MODEL 1
REMARK VINA RESULT:      -7.9      0.000      0.000
REMARK SMILES CC(=O)CCc1ccc2c(c1)OCO2
REMARK SMILES IDX 4 1 2 2 1 3 3 4 5 5 6 6 7 7 11 8 8 9 10 10 9 11 12 12 14 13
REMARK SMILES IDX 13 14
REMARK H PARENT
REMARK Flexibility Score: inf
ROOT
ATOM      1  C   UNL     1       5.447   2.905   0.228  1.00  0.00     0.080 C 
ENDROOT
BRANCH   1   2
ATOM      2  C   UNL     1       6.345   3.784   1.028  1.00  0.00     0.130 C 
ATOM      3  C   UNL     1       7.247   4.774   0.381  1.00  0.00     0.087 C 
ATOM      4  O   UNL     1       6.366   3.716   2.246  1.00  0.00    -0.300 OA
ENDBRANCH   1   2
BRANCH   1   5
ATOM      5  C   UNL     1       5.192   1.589   0.936  1.00  0.00     0.043 C 
BRANCH   5   6
ATOM      6  C   UNL     1       6.024   0.504   0.387  1.00  0.00    -0.044 A 
ATOM      7  C   UNL     1       6.389  -0.604   1.161  1.00  0.00     0.008 A 
ATOM      8  C   UNL     1       6.457   0.569  -0.918  1.00  0.00     0.054 A 
ATOM      9  C   UNL     1       7.171  -1.592   0.591  1.00  0.00     0.051 A 
ATOM     10  C   UNL     1       7.247  -0.433  -1.489  1.00  0.00     0.166 A 
ATOM     11  C   UNL     1       7.607  -1.523  -0.728  1.00  0.00     0.165 A 
ATOM     12  O   UNL     1       7.796  -0.597  -2.744  1.00  0.00    -0.454 OA
ATOM     13  O   UNL     1       8.377  -2.342  -1.539  1.00  0.00    -0.454 OA
ATOM     14  C   UNL     1       8.446  -1.837  -2.852  1.00  0.00     0.468 C 
ENDBRANCH   5   6
ENDBRANCH   1   5
TORSDOF 3
ENDMDL
MODEL 2
REMARK VINA RESULT:      -7.8      0.987      1.976
REMARK SMILES CC(=O)CCc1ccc2c(c1)OCO2
REMARK SMILES IDX 4 1 2 2 1 3 3 4 5 5 6 6 7 7 11 8 8 9 10 10 9 11 12 12 14 13
REMARK SMILES IDX 13 14
REMARK H PARENT
REMARK Flexibility Score: inf
ROOT
ATOM      1  C   UNL     1       5.362   2.959   0.236  1.00  0.00     0.080 C 
ENDROOT
BRANCH   1   2
ATOM      2  C   UNL     1       6.262   3.871   0.996  1.00  0.00     0.130 C 
ATOM      3  C   UNL     1       7.236   4.759   0.307  1.00  0.00     0.087 C 
ATOM      4  O   UNL     1       6.226   3.914   2.215  1.00  0.00    -0.300 OA
ENDBRANCH   1   2
BRANCH   1   5
ATOM      5  C   UNL     1       5.182   1.637   0.956  1.00  0.00     0.043 C 
BRANCH   5   6
ATOM      6  C   UNL     1       6.002   0.571   0.354  1.00  0.00    -0.044 A 
ATOM      7  C   UNL     1       6.360   0.597  -0.999  1.00  0.00     0.008 A 
ATOM      8  C   UNL     1       6.434  -0.479   1.132  1.00  0.00     0.054 A 
ATOM      9  C   UNL     1       7.132  -0.431  -1.509  1.00  0.00     0.051 A 
ATOM     10  C   UNL     1       7.215  -1.516   0.612  1.00  0.00     0.166 A 
ATOM     11  C   UNL     1       7.566  -1.492  -0.719  1.00  0.00     0.165 A 
ATOM     12  O   UNL     1       7.759  -2.653   1.170  1.00  0.00    -0.454 OA
ATOM     13  O   UNL     1       8.328  -2.626  -0.953  1.00  0.00    -0.454 OA
ATOM     14  C   UNL     1       8.551  -3.343   0.238  1.00  0.00     0.468 C 
ENDBRANCH   5   6
ENDBRANCH   1   5
TORSDOF 3
ENDMDL
MODEL 3
REMARK VINA RESULT:      -7.6      1.891      2.629
REMARK SMILES CC(=O)CCc1ccc2c(c1)OCO2
REMARK SMILES IDX 4 1 2 2 1 3 3 4 5 5 6 6 7 7 11 8 8 9 10 10 9 11 12 12 14 13
REMARK SMILES IDX 13 14
REMARK H PARENT
REMARK Flexibility Score: inf
ROOT
ATOM      1  C   UNL     1       5.536   1.930   1.269  1.00  0.00     0.080 C 
ENDROOT
BRANCH   1   2
ATOM      2  C   UNL     1       5.122   0.710   2.015  1.00  0.00     0.130 C 
ATOM      3  C   UNL     1       6.041  -0.446   2.194  1.00  0.00     0.087 C 
ATOM      4  O   UNL     1       4.007   0.622   2.505  1.00  0.00    -0.300 OA
ENDBRANCH   1   2
BRANCH   1   5
ATOM      5  C   UNL     1       5.404   1.731  -0.228  1.00  0.00     0.043 C 
BRANCH   5   6
ATOM      6  C   UNL     1       6.572   1.028  -0.791  1.00  0.00    -0.044 A 
ATOM      7  C   UNL     1       7.879   1.454  -0.529  1.00  0.00     0.008 A 
ATOM      8  C   UNL     1       6.384  -0.075  -1.591  1.00  0.00     0.054 A 
ATOM      9  C   UNL     1       8.936   0.755  -1.083  1.00  0.00     0.051 A 
ATOM     10  C   UNL     1       7.455  -0.779  -2.149  1.00  0.00     0.166 A 
ATOM     11  C   UNL     1       8.742  -0.360  -1.893  1.00  0.00     0.165 A 
ATOM     12  O   UNL     1       7.529  -1.888  -2.965  1.00  0.00    -0.454 OA
ATOM     13  O   UNL     1       9.588  -1.230  -2.563  1.00  0.00    -0.454 OA
ATOM     14  C   UNL     1       8.864  -2.267  -3.181  1.00  0.00     0.468 C 
ENDBRANCH   5   6
ENDBRANCH   1   5
TORSDOF 3
ENDMDL
