@<TRIPOS>MOLECULE
/home/cewinharhar/GITHUB/reincatalyze/data/processed/docking_pred/2023-May-22-1531_sub9_nm5_bs15_s42_ex16_mel10_mts1000_k50_ec02_g099_lra9e-4_lrc1e-3/5c54d156b22251270ecdcbd3d684e6dc7dd5ede7_ligand_9.pdbqt
 14 15 0 0 0
SMALL
GASTEIGER

@<TRIPOS>ATOM
      1  C          5.7820    1.3390   -0.3870 C.3     1  UNL1        0.0800
      2  C          5.2280    1.4150    0.9930 C.2     1  UNL1        0.1300
      3  C          5.1760    0.2220    1.8800 C.3     1  UNL1        0.0870
      4  O          4.7980    2.4670    1.4390 O.2     1  UNL1       -0.3000
      5  C          7.2820    1.1230   -0.3680 C.3     1  UNL1        0.0430
      6  C          7.6540   -0.1870   -0.9310 C.2     1  UNL1       -0.0440
      7  C          7.7590   -0.3880   -2.3120 C.2     1  UNL1        0.0080
      8  C          7.9070   -1.2450   -0.0880 C.2     1  UNL1        0.0540
      9  C          8.1120   -1.6400   -2.7830 C.2     1  UNL1        0.0510
     10  C          8.2640   -2.5080   -0.5690 C.2     1  UNL1        0.1660
     11  C          8.3670   -2.7070   -1.9280 C.2     1  UNL1        0.1650
     12  O          8.5610   -3.7020    0.0540 O.2     1  UNL1       -0.4540
     13  O          8.7300   -4.0320   -2.1120 O.2     1  UNL1       -0.4540
     14  C          8.9520   -4.6750   -0.8800 C.3     1  UNL1        0.4680
@<TRIPOS>BOND
     1     9     7    1
     2     9    11    2
     3     7     6    2
     4    13    11    1
     5    13    14    1
     6    11    10    1
     7     6     5    1
     8     6     8    1
     9    14    12    1
    10    10     8    2
    11    10    12    1
    12     1     5    1
    13     1     2    1
    14     2     4    2
    15     2     3    1
