@<TRIPOS>MOLECULE
/home/cewinharhar/GITHUB/reincatalyze/data/processed/docking_pred/2023-May-22-1531_sub9_nm5_bs15_s42_ex16_mel10_mts1000_k50_ec02_g099_lra9e-4_lrc1e-3/5c54d156b22251270ecdcbd3d684e6dc7dd5ede7_ligand_9.pdbqt
 14 15 0 0 0
SMALL
GASTEIGER

@<TRIPOS>ATOM
      1  C          5.5480    1.9130    1.2760 C.3     1  UNL1        0.0800
      2  C          5.1160    0.6910    2.0110 C.2     1  UNL1        0.1300
      3  C          6.0210   -0.4760    2.1830 C.3     1  UNL1        0.0870
      4  O          3.9990    0.6140    2.4960 O.2     1  UNL1       -0.3000
      5  C          5.4180    1.7280   -0.2230 C.3     1  UNL1        0.0430
      6  C          6.5820    1.0250   -0.7900 C.2     1  UNL1       -0.0440
      7  C          7.8910    1.4530   -0.5390 C.2     1  UNL1        0.0080
      8  C          6.3890   -0.0820   -1.5850 C.2     1  UNL1        0.0540
      9  C          8.9440    0.7530   -1.0980 C.2     1  UNL1        0.0510
     10  C          7.4580   -0.7870   -2.1460 C.2     1  UNL1        0.1660
     11  C          8.7460   -0.3660   -1.9010 C.2     1  UNL1        0.1650
     12  O          7.5270   -1.8990   -2.9580 O.2     1  UNL1       -0.4540
     13  O          9.5880   -1.2380   -2.5730 O.2     1  UNL1       -0.4540
     14  C          8.8610   -2.2780   -3.1820 C.3     1  UNL1        0.4680
@<TRIPOS>BOND
     1    14    12    1
     2    14    13    1
     3    12    10    1
     4    13    11    1
     5    10    11    2
     6    10     8    1
     7    11     9    1
     8     8     6    2
     9     9     7    2
    10     6     7    1
    11     6     5    1
    12     5     1    1
    13     1     2    1
    14     2     3    1
    15     2     4    2
