@<TRIPOS>MOLECULE
/home/cewinharhar/GITHUB/reincatalyze/data/processed/docking_pred/2023-May-22-1531_sub9_nm5_bs15_s42_ex16_mel10_mts1000_k50_ec02_g099_lra9e-4_lrc1e-3/5c54d156b22251270ecdcbd3d684e6dc7dd5ede7_ligand_9.pdbqt
 14 15 0 0 0
SMALL
GASTEIGER

@<TRIPOS>ATOM
      1  C          5.4710    2.9290    0.0750 C.3     1  UNL1        0.0800
      2  C          6.2990    3.7780    0.9760 C.2     1  UNL1        0.1300
      3  C          7.2640    4.7750    0.4400 C.3     1  UNL1        0.0870
      4  O          6.2090    3.6780    2.1880 O.2     1  UNL1       -0.3000
      5  C          5.0690    1.6350    0.7540 C.3     1  UNL1        0.0430
      6  C          5.9390    0.5140    0.3530 C.2     1  UNL1       -0.0440
      7  C          6.4070   -0.4190    1.2850 C.2     1  UNL1        0.0080
      8  C          6.3030    0.3720   -0.9660 C.2     1  UNL1        0.0540
      9  C          7.2200   -1.4510    0.8510 C.2     1  UNL1        0.0510
     10  C          7.1250   -0.6730   -1.4000 C.2     1  UNL1        0.1660
     11  C          7.5870   -1.5920   -0.4840 C.2     1  UNL1        0.1650
     12  O          7.6210   -1.0260   -2.6370 O.2     1  UNL1       -0.4540
     13  O          8.3660   -2.5000   -1.1850 O.2     1  UNL1       -0.4540
     14  C          8.3400   -2.2310   -2.5660 C.3     1  UNL1        0.4680
@<TRIPOS>BOND
     1    12    14    1
     2    12    10    1
     3    14    13    1
     4    10     8    1
     5    10    11    2
     6    13    11    1
     7     8     6    2
     8    11     9    1
     9     1     5    1
    10     1     2    1
    11     6     5    1
    12     6     7    1
    13     3     2    1
    14     9     7    2
    15     2     4    2
