MODEL 1
REMARK VINA RESULT:      -7.9      0.000      0.000
REMARK SMILES CC(=O)CCc1ccc2c(c1)OCO2
REMARK SMILES IDX 4 1 2 2 1 3 3 4 5 5 6 6 7 7 11 8 8 9 10 10 9 11 12 12 14 13
REMARK SMILES IDX 13 14
REMARK H PARENT
REMARK Flexibility Score: inf
ROOT
ATOM      1  C   UNL     1       5.471   2.929   0.075  1.00  0.00     0.080 C 
ENDROOT
BRANCH   1   2
ATOM      2  C   UNL     1       6.299   3.778   0.976  1.00  0.00     0.130 C 
ATOM      3  C   UNL     1       7.264   4.775   0.440  1.00  0.00     0.087 C 
ATOM      4  O   UNL     1       6.209   3.678   2.188  1.00  0.00    -0.300 OA
ENDBRANCH   1   2
BRANCH   1   5
ATOM      5  C   UNL     1       5.069   1.635   0.754  1.00  0.00     0.043 C 
BRANCH   5   6
ATOM      6  C   UNL     1       5.939   0.514   0.353  1.00  0.00    -0.044 A 
ATOM      7  C   UNL     1       6.407  -0.419   1.285  1.00  0.00     0.008 A 
ATOM      8  C   UNL     1       6.303   0.372  -0.966  1.00  0.00     0.054 A 
ATOM      9  C   UNL     1       7.220  -1.451   0.851  1.00  0.00     0.051 A 
ATOM     10  C   UNL     1       7.125  -0.673  -1.400  1.00  0.00     0.166 A 
ATOM     11  C   UNL     1       7.587  -1.592  -0.484  1.00  0.00     0.165 A 
ATOM     12  O   UNL     1       7.621  -1.026  -2.637  1.00  0.00    -0.454 OA
ATOM     13  O   UNL     1       8.366  -2.500  -1.185  1.00  0.00    -0.454 OA
ATOM     14  C   UNL     1       8.340  -2.231  -2.566  1.00  0.00     0.468 C 
ENDBRANCH   5   6
ENDBRANCH   1   5
TORSDOF 3
ENDMDL
MODEL 2
REMARK VINA RESULT:      -7.6      1.888      2.638
REMARK SMILES CC(=O)CCc1ccc2c(c1)OCO2
REMARK SMILES IDX 4 1 2 2 1 3 3 4 5 5 6 6 7 7 11 8 8 9 10 10 9 11 12 12 14 13
REMARK SMILES IDX 13 14
REMARK H PARENT
REMARK Flexibility Score: inf
ROOT
ATOM      1  C   UNL     1       5.548   1.913   1.276  1.00  0.00     0.080 C 
ENDROOT
BRANCH   1   2
ATOM      2  C   UNL     1       5.116   0.691   2.011  1.00  0.00     0.130 C 
ATOM      3  C   UNL     1       6.021  -0.476   2.183  1.00  0.00     0.087 C 
ATOM      4  O   UNL     1       3.999   0.614   2.496  1.00  0.00    -0.300 OA
ENDBRANCH   1   2
BRANCH   1   5
ATOM      5  C   UNL     1       5.418   1.728  -0.223  1.00  0.00     0.043 C 
BRANCH   5   6
ATOM      6  C   UNL     1       6.582   1.025  -0.790  1.00  0.00    -0.044 A 
ATOM      7  C   UNL     1       7.891   1.453  -0.539  1.00  0.00     0.008 A 
ATOM      8  C   UNL     1       6.389  -0.082  -1.585  1.00  0.00     0.054 A 
ATOM      9  C   UNL     1       8.944   0.753  -1.098  1.00  0.00     0.051 A 
ATOM     10  C   UNL     1       7.458  -0.787  -2.146  1.00  0.00     0.166 A 
ATOM     11  C   UNL     1       8.746  -0.366  -1.901  1.00  0.00     0.165 A 
ATOM     12  O   UNL     1       7.527  -1.899  -2.958  1.00  0.00    -0.454 OA
ATOM     13  O   UNL     1       9.588  -1.238  -2.573  1.00  0.00    -0.454 OA
ATOM     14  C   UNL     1       8.861  -2.278  -3.182  1.00  0.00     0.468 C 
ENDBRANCH   5   6
ENDBRANCH   1   5
TORSDOF 3
ENDMDL
MODEL 3
REMARK VINA RESULT:      -7.5      1.877      2.978
REMARK SMILES CC(=O)CCc1ccc2c(c1)OCO2
REMARK SMILES IDX 4 1 2 2 1 3 3 4 5 5 6 6 7 7 11 8 8 9 10 10 9 11 12 12 14 13
REMARK SMILES IDX 13 14
REMARK H PARENT
REMARK Flexibility Score: inf
ROOT
ATOM      1  C   UNL     1       5.782   1.339  -0.387  1.00  0.00     0.080 C 
ENDROOT
BRANCH   1   2
ATOM      2  C   UNL     1       5.228   1.415   0.993  1.00  0.00     0.130 C 
ATOM      3  C   UNL     1       5.176   0.222   1.880  1.00  0.00     0.087 C 
ATOM      4  O   UNL     1       4.798   2.467   1.439  1.00  0.00    -0.300 OA
ENDBRANCH   1   2
BRANCH   1   5
ATOM      5  C   UNL     1       7.282   1.123  -0.368  1.00  0.00     0.043 C 
BRANCH   5   6
ATOM      6  C   UNL     1       7.654  -0.187  -0.931  1.00  0.00    -0.044 A 
ATOM      7  C   UNL     1       7.759  -0.388  -2.312  1.00  0.00     0.008 A 
ATOM      8  C   UNL     1       7.907  -1.245  -0.088  1.00  0.00     0.054 A 
ATOM      9  C   UNL     1       8.112  -1.640  -2.783  1.00  0.00     0.051 A 
ATOM     10  C   UNL     1       8.264  -2.508  -0.569  1.00  0.00     0.166 A 
ATOM     11  C   UNL     1       8.367  -2.707  -1.928  1.00  0.00     0.165 A 
ATOM     12  O   UNL     1       8.561  -3.702   0.054  1.00  0.00    -0.454 OA
ATOM     13  O   UNL     1       8.730  -4.032  -2.112  1.00  0.00    -0.454 OA
ATOM     14  C   UNL     1       8.952  -4.675  -0.880  1.00  0.00     0.468 C 
ENDBRANCH   5   6
ENDBRANCH   1   5
TORSDOF 3
ENDMDL
