@<TRIPOS>MOLECULE
/home/cewinharhar/GITHUB/reincatalyze/data/processed/docking_pred/2023-May-22-1531_sub9_nm5_bs15_s42_ex16_mel10_mts1000_k50_ec02_g099_lra9e-4_lrc1e-3/5f00cdda1ab61f28c1ea6d7129614616e9231d70_ligand_9.pdbqt
 14 15 0 0 0
SMALL
GASTEIGER

@<TRIPOS>ATOM
      1  C          5.4450    2.8960    0.0810 C.3     1  UNL1        0.0800
      2  C          6.2730    3.7940    0.9340 C.2     1  UNL1        0.1300
      3  C          7.2220    4.7750    0.3440 C.3     1  UNL1        0.0870
      4  O          6.1940    3.7490    2.1510 O.2     1  UNL1       -0.3000
      5  C          5.1600    1.5820    0.7800 C.3     1  UNL1        0.0430
      6  C          5.9930    0.4880    0.2490 C.2     1  UNL1       -0.0440
      7  C          6.2980   -0.6410    1.0180 C.2     1  UNL1        0.0080
      8  C          6.4850    0.5660   -1.0340 C.2     1  UNL1        0.0540
      9  C          7.0840   -1.6360    0.4670 C.2     1  UNL1        0.0510
     10  C          7.2780   -0.4430   -1.5870 C.2     1  UNL1        0.1660
     11  C          7.5810   -1.5530   -0.8300 C.2     1  UNL1        0.1650
     12  O          7.8800   -0.5970   -2.8180 O.2     1  UNL1       -0.4540
     13  O          8.3680   -2.3750   -1.6210 O.2     1  UNL1       -0.4540
     14  C          8.5080   -1.8500   -2.9200 C.3     1  UNL1        0.4680
@<TRIPOS>BOND
     1    14    12    1
     2    14    13    1
     3    12    10    1
     4    13    11    1
     5    10     8    1
     6    10    11    2
     7     8     6    2
     8    11     9    1
     9     1     5    1
    10     1     2    1
    11     6     5    1
    12     6     7    1
    13     3     2    1
    14     9     7    2
    15     2     4    2
