MODEL 1
REMARK VINA RESULT:      -7.9      0.000      0.000
REMARK SMILES CC(=O)CCc1ccc2c(c1)OCO2
REMARK SMILES IDX 4 1 2 2 1 3 3 4 5 5 6 6 7 7 11 8 8 9 10 10 9 11 12 12 14 13
REMARK SMILES IDX 13 14
REMARK H PARENT
REMARK Flexibility Score: inf
ROOT
ATOM      1  C   UNL     1       5.445   2.896   0.081  1.00  0.00     0.080 C 
ENDROOT
BRANCH   1   2
ATOM      2  C   UNL     1       6.273   3.794   0.934  1.00  0.00     0.130 C 
ATOM      3  C   UNL     1       7.222   4.775   0.344  1.00  0.00     0.087 C 
ATOM      4  O   UNL     1       6.194   3.749   2.151  1.00  0.00    -0.300 OA
ENDBRANCH   1   2
BRANCH   1   5
ATOM      5  C   UNL     1       5.160   1.582   0.780  1.00  0.00     0.043 C 
BRANCH   5   6
ATOM      6  C   UNL     1       5.993   0.488   0.249  1.00  0.00    -0.044 A 
ATOM      7  C   UNL     1       6.298  -0.641   1.018  1.00  0.00     0.008 A 
ATOM      8  C   UNL     1       6.485   0.566  -1.034  1.00  0.00     0.054 A 
ATOM      9  C   UNL     1       7.084  -1.636   0.467  1.00  0.00     0.051 A 
ATOM     10  C   UNL     1       7.278  -0.443  -1.587  1.00  0.00     0.166 A 
ATOM     11  C   UNL     1       7.581  -1.553  -0.830  1.00  0.00     0.165 A 
ATOM     12  O   UNL     1       7.880  -0.597  -2.818  1.00  0.00    -0.454 OA
ATOM     13  O   UNL     1       8.368  -2.375  -1.621  1.00  0.00    -0.454 OA
ATOM     14  C   UNL     1       8.508  -1.850  -2.920  1.00  0.00     0.468 C 
ENDBRANCH   5   6
ENDBRANCH   1   5
TORSDOF 3
ENDMDL
MODEL 2
REMARK VINA RESULT:      -7.8      1.011      1.997
REMARK SMILES CC(=O)CCc1ccc2c(c1)OCO2
REMARK SMILES IDX 4 1 2 2 1 3 3 4 5 5 6 6 7 7 11 8 8 9 10 10 9 11 12 12 14 13
REMARK SMILES IDX 13 14
REMARK H PARENT
REMARK Flexibility Score: inf
ROOT
ATOM      1  C   UNL     1       5.418   2.904   0.204  1.00  0.00     0.080 C 
ENDROOT
BRANCH   1   2
ATOM      2  C   UNL     1       6.374   3.685   1.038  1.00  0.00     0.130 C 
ATOM      3  C   UNL     1       7.205   4.775   0.459  1.00  0.00     0.087 C 
ATOM      4  O   UNL     1       6.504   3.451   2.228  1.00  0.00    -0.300 OA
ENDBRANCH   1   2
BRANCH   1   5
ATOM      5  C   UNL     1       5.132   1.548   0.819  1.00  0.00     0.043 C 
BRANCH   5   6
ATOM      6  C   UNL     1       5.995   0.497   0.250  1.00  0.00    -0.044 A 
ATOM      7  C   UNL     1       6.415   0.536  -1.084  1.00  0.00     0.008 A 
ATOM      8  C   UNL     1       6.405  -0.551   1.042  1.00  0.00     0.054 A 
ATOM      9  C   UNL     1       7.224  -0.478  -1.563  1.00  0.00     0.051 A 
ATOM     10  C   UNL     1       7.224  -1.574   0.553  1.00  0.00     0.166 A 
ATOM     11  C   UNL     1       7.637  -1.537  -0.760  1.00  0.00     0.165 A 
ATOM     12  O   UNL     1       7.759  -2.706   1.130  1.00  0.00    -0.454 OA
ATOM     13  O   UNL     1       8.425  -2.658  -0.964  1.00  0.00    -0.454 OA
ATOM     14  C   UNL     1       8.603  -3.379   0.232  1.00  0.00     0.468 C 
ENDBRANCH   5   6
ENDBRANCH   1   5
TORSDOF 3
ENDMDL
MODEL 3
REMARK VINA RESULT:      -7.7      1.878      2.627
REMARK SMILES CC(=O)CCc1ccc2c(c1)OCO2
REMARK SMILES IDX 4 1 2 2 1 3 3 4 5 5 6 6 7 7 11 8 8 9 10 10 9 11 12 12 14 13
REMARK SMILES IDX 13 14
REMARK H PARENT
REMARK Flexibility Score: inf
ROOT
ATOM      1  C   UNL     1       5.537   1.917   1.273  1.00  0.00     0.080 C 
ENDROOT
BRANCH   1   2
ATOM      2  C   UNL     1       5.089   0.704   2.011  1.00  0.00     0.130 C 
ATOM      3  C   UNL     1       5.975  -0.479   2.182  1.00  0.00     0.087 C 
ATOM      4  O   UNL     1       3.972   0.645   2.500  1.00  0.00    -0.300 OA
ENDBRANCH   1   2
BRANCH   1   5
ATOM      5  C   UNL     1       5.405   1.730  -0.226  1.00  0.00     0.043 C 
BRANCH   5   6
ATOM      6  C   UNL     1       6.570   1.029  -0.794  1.00  0.00    -0.044 A 
ATOM      7  C   UNL     1       7.878   1.466  -0.553  1.00  0.00     0.008 A 
ATOM      8  C   UNL     1       6.380  -0.086  -1.579  1.00  0.00     0.054 A 
ATOM      9  C   UNL     1       8.933   0.767  -1.112  1.00  0.00     0.051 A 
ATOM     10  C   UNL     1       7.450  -0.789  -2.141  1.00  0.00     0.166 A 
ATOM     11  C   UNL     1       8.736  -0.359  -1.906  1.00  0.00     0.165 A 
ATOM     12  O   UNL     1       7.520  -1.907  -2.944  1.00  0.00    -0.454 OA
ATOM     13  O   UNL     1       9.580  -1.231  -2.576  1.00  0.00    -0.454 OA
ATOM     14  C   UNL     1       8.855  -2.281  -3.172  1.00  0.00     0.468 C 
ENDBRANCH   5   6
ENDBRANCH   1   5
TORSDOF 3
ENDMDL
