@<TRIPOS>MOLECULE
/home/cewinharhar/GITHUB/reincatalyze/data/processed/docking_pred/2023-May-22-1531_sub9_nm5_bs15_s42_ex16_mel10_mts1000_k50_ec02_g099_lra9e-4_lrc1e-3/5f00cdda1ab61f28c1ea6d7129614616e9231d70_ligand_9.pdbqt
 14 15 0 0 0
SMALL
GASTEIGER

@<TRIPOS>ATOM
      1  C          5.4180    2.9040    0.2040 C.3     1  UNL1        0.0800
      2  C          6.3740    3.6850    1.0380 C.2     1  UNL1        0.1300
      3  C          7.2050    4.7750    0.4590 C.3     1  UNL1        0.0870
      4  O          6.5040    3.4510    2.2280 O.2     1  UNL1       -0.3000
      5  C          5.1320    1.5480    0.8190 C.3     1  UNL1        0.0430
      6  C          5.9950    0.4970    0.2500 C.2     1  UNL1       -0.0440
      7  C          6.4150    0.5360   -1.0840 C.2     1  UNL1        0.0080
      8  C          6.4050   -0.5510    1.0420 C.2     1  UNL1        0.0540
      9  C          7.2240   -0.4780   -1.5630 C.2     1  UNL1        0.0510
     10  C          7.2240   -1.5740    0.5530 C.2     1  UNL1        0.1660
     11  C          7.6370   -1.5370   -0.7600 C.2     1  UNL1        0.1650
     12  O          7.7590   -2.7060    1.1300 O.2     1  UNL1       -0.4540
     13  O          8.4250   -2.6580   -0.9640 O.2     1  UNL1       -0.4540
     14  C          8.6030   -3.3790    0.2320 C.3     1  UNL1        0.4680
@<TRIPOS>BOND
     1     9     7    1
     2     9    11    2
     3     7     6    2
     4    13    11    1
     5    13    14    1
     6    11    10    1
     7     1     5    1
     8     1     2    1
     9    14    12    1
    10     6     5    1
    11     6     8    1
    12     3     2    1
    13    10     8    2
    14    10    12    1
    15     2     4    2
