@<TRIPOS>MOLECULE
/home/cewinharhar/GITHUB/reincatalyze/data/processed/docking_pred/2023-May-22-1531_sub9_nm5_bs15_s42_ex16_mel10_mts1000_k50_ec02_g099_lra9e-4_lrc1e-3/6070aa1b8336213875ea865ca7f6d729a9af33a9_ligand_9.pdbqt
 14 15 0 0 0
SMALL
GASTEIGER

@<TRIPOS>ATOM
      1  C          5.4480    2.9020    0.3350 C.3     1  UNL1        0.0800
      2  C          6.3940    3.7510    1.1110 C.2     1  UNL1        0.1300
      3  C          7.2460    4.7750    0.4500 C.3     1  UNL1        0.0870
      4  O          6.4980    3.6290    2.3210 O.2     1  UNL1       -0.3000
      5  C          5.2150    1.5700    1.0200 C.3     1  UNL1        0.0430
      6  C          6.0450    0.5020    0.4350 C.2     1  UNL1       -0.0440
      7  C          6.4300   -0.6190    1.1800 C.2     1  UNL1        0.0080
      8  C          6.4560    0.5980   -0.8750 C.2     1  UNL1        0.0540
      9  C          7.2090   -1.5900    0.5770 C.2     1  UNL1        0.0510
     10  C          7.2430   -0.3870   -1.4800 C.2     1  UNL1        0.1660
     11  C          7.6230   -1.4890   -0.7480 C.2     1  UNL1        0.1650
     12  O          7.7720   -0.5200   -2.7460 O.2     1  UNL1       -0.4540
     13  O          8.3840   -2.2860   -1.5880 O.2     1  UNL1       -0.4540
     14  C          8.4280   -1.7540   -2.8910 C.3     1  UNL1        0.4680
@<TRIPOS>BOND
     1    14    12    1
     2    14    13    1
     3    12    10    1
     4    13    11    1
     5    10     8    1
     6    10    11    2
     7     8     6    2
     8    11     9    1
     9     1     5    1
    10     1     2    1
    11     6     5    1
    12     6     7    1
    13     3     2    1
    14     9     7    2
    15     2     4    2
