MODEL 1
REMARK VINA RESULT:      -7.8      0.000      0.000
REMARK SMILES CC(=O)CCc1ccc2c(c1)OCO2
REMARK SMILES IDX 4 1 2 2 1 3 3 4 5 5 6 6 7 7 11 8 8 9 10 10 9 11 12 12 14 13
REMARK SMILES IDX 13 14
REMARK H PARENT
REMARK Flexibility Score: inf
ROOT
ATOM      1  C   UNL     1       5.448   2.902   0.335  1.00  0.00     0.080 C 
ENDROOT
BRANCH   1   2
ATOM      2  C   UNL     1       6.394   3.751   1.111  1.00  0.00     0.130 C 
ATOM      3  C   UNL     1       7.246   4.775   0.450  1.00  0.00     0.087 C 
ATOM      4  O   UNL     1       6.498   3.629   2.321  1.00  0.00    -0.300 OA
ENDBRANCH   1   2
BRANCH   1   5
ATOM      5  C   UNL     1       5.215   1.570   1.020  1.00  0.00     0.043 C 
BRANCH   5   6
ATOM      6  C   UNL     1       6.045   0.502   0.435  1.00  0.00    -0.044 A 
ATOM      7  C   UNL     1       6.430  -0.619   1.180  1.00  0.00     0.008 A 
ATOM      8  C   UNL     1       6.456   0.598  -0.875  1.00  0.00     0.054 A 
ATOM      9  C   UNL     1       7.209  -1.590   0.577  1.00  0.00     0.051 A 
ATOM     10  C   UNL     1       7.243  -0.387  -1.480  1.00  0.00     0.166 A 
ATOM     11  C   UNL     1       7.623  -1.489  -0.748  1.00  0.00     0.165 A 
ATOM     12  O   UNL     1       7.772  -0.520  -2.746  1.00  0.00    -0.454 OA
ATOM     13  O   UNL     1       8.384  -2.286  -1.588  1.00  0.00    -0.454 OA
ATOM     14  C   UNL     1       8.428  -1.754  -2.891  1.00  0.00     0.468 C 
ENDBRANCH   5   6
ENDBRANCH   1   5
TORSDOF 3
ENDMDL
MODEL 2
REMARK VINA RESULT:      -7.6      1.903      2.642
REMARK SMILES CC(=O)CCc1ccc2c(c1)OCO2
REMARK SMILES IDX 4 1 2 2 1 3 3 4 5 5 6 6 7 7 11 8 8 9 10 10 9 11 12 12 14 13
REMARK SMILES IDX 13 14
REMARK H PARENT
REMARK Flexibility Score: inf
ROOT
ATOM      1  C   UNL     1       5.535   1.895   1.282  1.00  0.00     0.080 C 
ENDROOT
BRANCH   1   2
ATOM      2  C   UNL     1       5.091   0.673   2.009  1.00  0.00     0.130 C 
ATOM      3  C   UNL     1       5.983  -0.507   2.169  1.00  0.00     0.087 C 
ATOM      4  O   UNL     1       3.975   0.605   2.496  1.00  0.00    -0.300 OA
ENDBRANCH   1   2
BRANCH   1   5
ATOM      5  C   UNL     1       5.408   1.719  -0.219  1.00  0.00     0.043 C 
BRANCH   5   6
ATOM      6  C   UNL     1       6.574   1.019  -0.787  1.00  0.00    -0.044 A 
ATOM      7  C   UNL     1       7.882   1.453  -0.541  1.00  0.00     0.008 A 
ATOM      8  C   UNL     1       6.384  -0.091  -1.578  1.00  0.00     0.054 A 
ATOM      9  C   UNL     1       8.937   0.756  -1.100  1.00  0.00     0.051 A 
ATOM     10  C   UNL     1       7.454  -0.793  -2.141  1.00  0.00     0.166 A 
ATOM     11  C   UNL     1       8.741  -0.366  -1.900  1.00  0.00     0.165 A 
ATOM     12  O   UNL     1       7.525  -1.907  -2.949  1.00  0.00    -0.454 OA
ATOM     13  O   UNL     1       9.585  -1.236  -2.572  1.00  0.00    -0.454 OA
ATOM     14  C   UNL     1       8.860  -2.281  -3.176  1.00  0.00     0.468 C 
ENDBRANCH   5   6
ENDBRANCH   1   5
TORSDOF 3
ENDMDL
MODEL 3
REMARK VINA RESULT:      -7.5      2.004      3.060
REMARK SMILES CC(=O)CCc1ccc2c(c1)OCO2
REMARK SMILES IDX 4 1 2 2 1 3 3 4 5 5 6 6 7 7 11 8 8 9 10 10 9 11 12 12 14 13
REMARK SMILES IDX 13 14
REMARK H PARENT
REMARK Flexibility Score: inf
ROOT
ATOM      1  C   UNL     1       5.776   1.370  -0.379  1.00  0.00     0.080 C 
ENDROOT
BRANCH   1   2
ATOM      2  C   UNL     1       5.128   1.330   0.962  1.00  0.00     0.130 C 
ATOM      3  C   UNL     1       5.383   0.221   1.920  1.00  0.00     0.087 C 
ATOM      4  O   UNL     1       4.362   2.212   1.314  1.00  0.00    -0.300 OA
ENDBRANCH   1   2
BRANCH   1   5
ATOM      5  C   UNL     1       7.265   1.107  -0.278  1.00  0.00     0.043 C 
BRANCH   5   6
ATOM      6  C   UNL     1       7.633  -0.188  -0.878  1.00  0.00    -0.044 A 
ATOM      7  C   UNL     1       7.715  -0.358  -2.264  1.00  0.00     0.008 A 
ATOM      8  C   UNL     1       7.908  -1.263  -0.063  1.00  0.00     0.054 A 
ATOM      9  C   UNL     1       8.066  -1.596  -2.770  1.00  0.00     0.051 A 
ATOM     10  C   UNL     1       8.263  -2.513  -0.579  1.00  0.00     0.166 A 
ATOM     11  C   UNL     1       8.342  -2.681  -1.944  1.00  0.00     0.165 A 
ATOM     12  O   UNL     1       8.578  -3.719   0.012  1.00  0.00    -0.454 OA
ATOM     13  O   UNL     1       8.709  -3.999  -2.165  1.00  0.00    -0.454 OA
ATOM     14  C   UNL     1       8.958  -4.668  -0.951  1.00  0.00     0.468 C 
ENDBRANCH   5   6
ENDBRANCH   1   5
TORSDOF 3
ENDMDL
