@<TRIPOS>MOLECULE
/home/cewinharhar/GITHUB/reincatalyze/data/processed/docking_pred/2023-May-22-1531_sub9_nm5_bs15_s42_ex16_mel10_mts1000_k50_ec02_g099_lra9e-4_lrc1e-3/6070aa1b8336213875ea865ca7f6d729a9af33a9_ligand_9.pdbqt
 14 15 0 0 0
SMALL
GASTEIGER

@<TRIPOS>ATOM
      1  C          5.5350    1.8950    1.2820 C.3     1  UNL1        0.0800
      2  C          5.0910    0.6730    2.0090 C.2     1  UNL1        0.1300
      3  C          5.9830   -0.5070    2.1690 C.3     1  UNL1        0.0870
      4  O          3.9750    0.6050    2.4960 O.2     1  UNL1       -0.3000
      5  C          5.4080    1.7190   -0.2190 C.3     1  UNL1        0.0430
      6  C          6.5740    1.0190   -0.7870 C.2     1  UNL1       -0.0440
      7  C          7.8820    1.4530   -0.5410 C.2     1  UNL1        0.0080
      8  C          6.3840   -0.0910   -1.5780 C.2     1  UNL1        0.0540
      9  C          8.9370    0.7560   -1.1000 C.2     1  UNL1        0.0510
     10  C          7.4540   -0.7930   -2.1410 C.2     1  UNL1        0.1660
     11  C          8.7410   -0.3660   -1.9000 C.2     1  UNL1        0.1650
     12  O          7.5250   -1.9070   -2.9490 O.2     1  UNL1       -0.4540
     13  O          9.5850   -1.2360   -2.5720 O.2     1  UNL1       -0.4540
     14  C          8.8600   -2.2810   -3.1760 C.3     1  UNL1        0.4680
@<TRIPOS>BOND
     1    14    12    1
     2    14    13    1
     3    12    10    1
     4    13    11    1
     5    10    11    2
     6    10     8    1
     7    11     9    1
     8     8     6    2
     9     9     7    2
    10     6     7    1
    11     6     5    1
    12     5     1    1
    13     1     2    1
    14     2     3    1
    15     2     4    2
