@<TRIPOS>MOLECULE
/home/cewinharhar/GITHUB/reincatalyze/data/processed/docking_pred/2023-May-22-1531_sub9_nm5_bs15_s42_ex16_mel10_mts1000_k50_ec02_g099_lra9e-4_lrc1e-3/6070aa1b8336213875ea865ca7f6d729a9af33a9_ligand_9.pdbqt
 14 15 0 0 0
SMALL
GASTEIGER

@<TRIPOS>ATOM
      1  C          5.7760    1.3700   -0.3790 C.3     1  UNL1        0.0800
      2  C          5.1280    1.3300    0.9620 C.2     1  UNL1        0.1300
      3  C          5.3830    0.2210    1.9200 C.3     1  UNL1        0.0870
      4  O          4.3620    2.2120    1.3140 O.2     1  UNL1       -0.3000
      5  C          7.2650    1.1070   -0.2780 C.3     1  UNL1        0.0430
      6  C          7.6330   -0.1880   -0.8780 C.2     1  UNL1       -0.0440
      7  C          7.7150   -0.3580   -2.2640 C.2     1  UNL1        0.0080
      8  C          7.9080   -1.2630   -0.0630 C.2     1  UNL1        0.0540
      9  C          8.0660   -1.5960   -2.7700 C.2     1  UNL1        0.0510
     10  C          8.2630   -2.5130   -0.5790 C.2     1  UNL1        0.1660
     11  C          8.3420   -2.6810   -1.9440 C.2     1  UNL1        0.1650
     12  O          8.5780   -3.7190    0.0120 O.2     1  UNL1       -0.4540
     13  O          8.7090   -3.9990   -2.1650 O.2     1  UNL1       -0.4540
     14  C          8.9580   -4.6680   -0.9510 C.3     1  UNL1        0.4680
@<TRIPOS>BOND
     1     9     7    1
     2     9    11    2
     3     7     6    2
     4    13    11    1
     5    13    14    1
     6    11    10    1
     7    14    12    1
     8     6     5    1
     9     6     8    1
    10    10     8    2
    11    10    12    1
    12     1     5    1
    13     1     2    1
    14     2     4    2
    15     2     3    1
