@<TRIPOS>MOLECULE
/home/cewinharhar/GITHUB/reincatalyze/data/processed/docking_pred/2023-May-22-1531_sub9_nm5_bs15_s42_ex16_mel10_mts1000_k50_ec02_g099_lra9e-4_lrc1e-3/64ade7361adfbcba1ebdf367c3e16aacabd62181_ligand_9.pdbqt
 14 15 0 0 0
SMALL
GASTEIGER

@<TRIPOS>ATOM
      1  C          5.4360    2.9510    0.1660 C.3     1  UNL1        0.0800
      2  C          6.2700    3.8730    0.9860 C.2     1  UNL1        0.1300
      3  C          7.2780    4.7740    0.3660 C.3     1  UNL1        0.0870
      4  O          6.1490    3.9150    2.2000 O.2     1  UNL1       -0.3000
      5  C          5.2310    1.6230    0.8670 C.3     1  UNL1        0.0430
      6  C          6.0640    0.5590    0.2770 C.2     1  UNL1       -0.0440
      7  C          6.4590    0.5970   -1.0650 C.2     1  UNL1        0.0080
      8  C          6.4700   -0.5000    1.0560 C.2     1  UNL1        0.0540
      9  C          7.2410   -0.4290   -1.5630 C.2     1  UNL1        0.0510
     10  C          7.2620   -1.5340    0.5480 C.2     1  UNL1        0.1660
     11  C          7.6500   -1.4980   -0.7730 C.2     1  UNL1        0.1650
     12  O          7.7870   -2.6780    1.1090 O.2     1  UNL1       -0.4540
     13  O          8.4140   -2.6330   -0.9970 O.2     1  UNL1       -0.4540
     14  C          8.6020   -3.3620    0.1920 C.3     1  UNL1        0.4680
@<TRIPOS>BOND
     1     9     7    1
     2     9    11    2
     3     7     6    2
     4    13    11    1
     5    13    14    1
     6    11    10    1
     7     1     5    1
     8     1     2    1
     9    14    12    1
    10     6     5    1
    11     6     8    1
    12     3     2    1
    13    10     8    2
    14    10    12    1
    15     2     4    2
