MODEL 1
REMARK VINA RESULT:      -7.8      0.000      0.000
REMARK SMILES CC(=O)CCc1ccc2c(c1)OCO2
REMARK SMILES IDX 4 1 2 2 1 3 3 4 5 5 6 6 7 7 11 8 8 9 10 10 9 11 12 12 14 13
REMARK SMILES IDX 13 14
REMARK H PARENT
REMARK Flexibility Score: inf
ROOT
ATOM      1  C   UNL     1       5.456   2.882   0.280  1.00  0.00     0.080 C 
ENDROOT
BRANCH   1   2
ATOM      2  C   UNL     1       6.397   3.732   1.063  1.00  0.00     0.130 C 
ATOM      3  C   UNL     1       7.233   4.775   0.411  1.00  0.00     0.087 C 
ATOM      4  O   UNL     1       6.508   3.595   2.270  1.00  0.00    -0.300 OA
ENDBRANCH   1   2
BRANCH   1   5
ATOM      5  C   UNL     1       5.211   1.554   0.970  1.00  0.00     0.043 C 
BRANCH   5   6
ATOM      6  C   UNL     1       6.047   0.481   0.403  1.00  0.00    -0.044 A 
ATOM      7  C   UNL     1       6.429  -0.630   1.163  1.00  0.00     0.008 A 
ATOM      8  C   UNL     1       6.465   0.562  -0.906  1.00  0.00     0.054 A 
ATOM      9  C   UNL     1       7.213  -1.607   0.577  1.00  0.00     0.051 A 
ATOM     10  C   UNL     1       7.258  -0.428  -1.494  1.00  0.00     0.166 A 
ATOM     11  C   UNL     1       7.635  -1.521  -0.746  1.00  0.00     0.165 A 
ATOM     12  O   UNL     1       7.796  -0.576  -2.755  1.00  0.00    -0.454 OA
ATOM     13  O   UNL     1       8.404  -2.327  -1.572  1.00  0.00    -0.454 OA
ATOM     14  C   UNL     1       8.455  -1.810  -2.880  1.00  0.00     0.468 C 
ENDBRANCH   5   6
ENDBRANCH   1   5
TORSDOF 3
ENDMDL
MODEL 2
REMARK VINA RESULT:      -7.8      0.989      1.978
REMARK SMILES CC(=O)CCc1ccc2c(c1)OCO2
REMARK SMILES IDX 4 1 2 2 1 3 3 4 5 5 6 6 7 7 11 8 8 9 10 10 9 11 12 12 14 13
REMARK SMILES IDX 13 14
REMARK H PARENT
REMARK Flexibility Score: inf
ROOT
ATOM      1  C   UNL     1       5.436   2.951   0.166  1.00  0.00     0.080 C 
ENDROOT
BRANCH   1   2
ATOM      2  C   UNL     1       6.270   3.873   0.986  1.00  0.00     0.130 C 
ATOM      3  C   UNL     1       7.278   4.774   0.366  1.00  0.00     0.087 C 
ATOM      4  O   UNL     1       6.149   3.915   2.200  1.00  0.00    -0.300 OA
ENDBRANCH   1   2
BRANCH   1   5
ATOM      5  C   UNL     1       5.231   1.623   0.867  1.00  0.00     0.043 C 
BRANCH   5   6
ATOM      6  C   UNL     1       6.064   0.559   0.277  1.00  0.00    -0.044 A 
ATOM      7  C   UNL     1       6.459   0.597  -1.065  1.00  0.00     0.008 A 
ATOM      8  C   UNL     1       6.470  -0.500   1.056  1.00  0.00     0.054 A 
ATOM      9  C   UNL     1       7.241  -0.429  -1.563  1.00  0.00     0.051 A 
ATOM     10  C   UNL     1       7.262  -1.534   0.548  1.00  0.00     0.166 A 
ATOM     11  C   UNL     1       7.650  -1.498  -0.773  1.00  0.00     0.165 A 
ATOM     12  O   UNL     1       7.787  -2.678   1.109  1.00  0.00    -0.454 OA
ATOM     13  O   UNL     1       8.414  -2.633  -0.997  1.00  0.00    -0.454 OA
ATOM     14  C   UNL     1       8.602  -3.362   0.192  1.00  0.00     0.468 C 
ENDBRANCH   5   6
ENDBRANCH   1   5
TORSDOF 3
ENDMDL
MODEL 3
REMARK VINA RESULT:      -7.7      1.897      2.634
REMARK SMILES CC(=O)CCc1ccc2c(c1)OCO2
REMARK SMILES IDX 4 1 2 2 1 3 3 4 5 5 6 6 7 7 11 8 8 9 10 10 9 11 12 12 14 13
REMARK SMILES IDX 13 14
REMARK H PARENT
REMARK Flexibility Score: inf
ROOT
ATOM      1  C   UNL     1       5.539   1.900   1.281  1.00  0.00     0.080 C 
ENDROOT
BRANCH   1   2
ATOM      2  C   UNL     1       5.101   0.678   2.012  1.00  0.00     0.130 C 
ATOM      3  C   UNL     1       5.998  -0.496   2.178  1.00  0.00     0.087 C 
ATOM      4  O   UNL     1       3.984   0.606   2.499  1.00  0.00    -0.300 OA
ENDBRANCH   1   2
BRANCH   1   5
ATOM      5  C   UNL     1       5.410   1.720  -0.218  1.00  0.00     0.043 C 
BRANCH   5   6
ATOM      6  C   UNL     1       6.576   1.019  -0.786  1.00  0.00    -0.044 A 
ATOM      7  C   UNL     1       7.884   1.450  -0.537  1.00  0.00     0.008 A 
ATOM      8  C   UNL     1       6.385  -0.089  -1.580  1.00  0.00     0.054 A 
ATOM      9  C   UNL     1       8.938   0.752  -1.096  1.00  0.00     0.051 A 
ATOM     10  C   UNL     1       7.455  -0.792  -2.143  1.00  0.00     0.166 A 
ATOM     11  C   UNL     1       8.742  -0.367  -1.899  1.00  0.00     0.165 A 
ATOM     12  O   UNL     1       7.526  -1.904  -2.954  1.00  0.00    -0.454 OA
ATOM     13  O   UNL     1       9.585  -1.238  -2.572  1.00  0.00    -0.454 OA
ATOM     14  C   UNL     1       8.860  -2.280  -3.179  1.00  0.00     0.468 C 
ENDBRANCH   5   6
ENDBRANCH   1   5
TORSDOF 3
ENDMDL
