@<TRIPOS>MOLECULE
/home/cewinharhar/GITHUB/reincatalyze/data/processed/docking_pred/2023-May-22-1531_sub9_nm5_bs15_s42_ex16_mel10_mts1000_k50_ec02_g099_lra9e-4_lrc1e-3/64ade7361adfbcba1ebdf367c3e16aacabd62181_ligand_9.pdbqt
 14 15 0 0 0
SMALL
GASTEIGER

@<TRIPOS>ATOM
      1  C          5.5390    1.9000    1.2810 C.3     1  UNL1        0.0800
      2  C          5.1010    0.6780    2.0120 C.2     1  UNL1        0.1300
      3  C          5.9980   -0.4960    2.1780 C.3     1  UNL1        0.0870
      4  O          3.9840    0.6060    2.4990 O.2     1  UNL1       -0.3000
      5  C          5.4100    1.7200   -0.2180 C.3     1  UNL1        0.0430
      6  C          6.5760    1.0190   -0.7860 C.2     1  UNL1       -0.0440
      7  C          7.8840    1.4500   -0.5370 C.2     1  UNL1        0.0080
      8  C          6.3850   -0.0890   -1.5800 C.2     1  UNL1        0.0540
      9  C          8.9380    0.7520   -1.0960 C.2     1  UNL1        0.0510
     10  C          7.4550   -0.7920   -2.1430 C.2     1  UNL1        0.1660
     11  C          8.7420   -0.3670   -1.8990 C.2     1  UNL1        0.1650
     12  O          7.5260   -1.9040   -2.9540 O.2     1  UNL1       -0.4540
     13  O          9.5850   -1.2380   -2.5720 O.2     1  UNL1       -0.4540
     14  C          8.8600   -2.2800   -3.1790 C.3     1  UNL1        0.4680
@<TRIPOS>BOND
     1    14    12    1
     2    14    13    1
     3    12    10    1
     4    13    11    1
     5    10    11    2
     6    10     8    1
     7    11     9    1
     8     8     6    2
     9     9     7    2
    10     6     7    1
    11     6     5    1
    12     5     1    1
    13     1     2    1
    14     2     3    1
    15     2     4    2
