@<TRIPOS>MOLECULE
/home/cewinharhar/GITHUB/reincatalyze/data/processed/docking_pred/2023-May-22-1531_sub9_nm5_bs15_s42_ex16_mel10_mts1000_k50_ec02_g099_lra9e-4_lrc1e-3/64ade7361adfbcba1ebdf367c3e16aacabd62181_ligand_9.pdbqt
 14 15 0 0 0
SMALL
GASTEIGER

@<TRIPOS>ATOM
      1  C          5.4560    2.8820    0.2800 C.3     1  UNL1        0.0800
      2  C          6.3970    3.7320    1.0630 C.2     1  UNL1        0.1300
      3  C          7.2330    4.7750    0.4110 C.3     1  UNL1        0.0870
      4  O          6.5080    3.5950    2.2700 O.2     1  UNL1       -0.3000
      5  C          5.2110    1.5540    0.9700 C.3     1  UNL1        0.0430
      6  C          6.0470    0.4810    0.4030 C.2     1  UNL1       -0.0440
      7  C          6.4290   -0.6300    1.1630 C.2     1  UNL1        0.0080
      8  C          6.4650    0.5620   -0.9060 C.2     1  UNL1        0.0540
      9  C          7.2130   -1.6070    0.5770 C.2     1  UNL1        0.0510
     10  C          7.2580   -0.4280   -1.4940 C.2     1  UNL1        0.1660
     11  C          7.6350   -1.5210   -0.7460 C.2     1  UNL1        0.1650
     12  O          7.7960   -0.5760   -2.7550 O.2     1  UNL1       -0.4540
     13  O          8.4040   -2.3270   -1.5720 O.2     1  UNL1       -0.4540
     14  C          8.4550   -1.8100   -2.8800 C.3     1  UNL1        0.4680
@<TRIPOS>BOND
     1    14    12    1
     2    14    13    1
     3    12    10    1
     4    13    11    1
     5    10     8    1
     6    10    11    2
     7     8     6    2
     8    11     9    1
     9     1     5    1
    10     1     2    1
    11     6     5    1
    12     6     7    1
    13     3     2    1
    14     9     7    2
    15     2     4    2
