@<TRIPOS>MOLECULE
/home/cewinharhar/GITHUB/reincatalyze/data/processed/docking_pred/2023-May-22-1531_sub9_nm5_bs15_s42_ex16_mel10_mts1000_k50_ec02_g099_lra9e-4_lrc1e-3/650932a4c96e02f0afcc120cab6b741f416c7ae8_ligand_9.pdbqt
 14 15 0 0 0
SMALL
GASTEIGER

@<TRIPOS>ATOM
      1  C          5.5870    1.3000   -0.5040 C.3     1  UNL1        0.0800
      2  C          5.3370    2.2630    0.6050 C.2     1  UNL1        0.1300
      3  C          6.1400    3.5050    0.7570 C.3     1  UNL1        0.0870
      4  O          4.4580    2.0570    1.4270 O.2     1  UNL1       -0.3000
      5  C          7.0720    1.1290   -0.7590 C.3     1  UNL1        0.0430
      6  C          7.5260   -0.2370   -0.4460 C.2     1  UNL1       -0.0440
      7  C          7.6800   -0.6740    0.8750 C.2     1  UNL1        0.0080
      8  C          7.8070   -1.1140   -1.4690 C.2     1  UNL1        0.0540
      9  C          8.1090   -1.9680    1.1080 C.2     1  UNL1        0.0510
     10  C          8.2400   -2.4210   -1.2280 C.2     1  UNL1        0.1660
     11  C          8.3930   -2.8520    0.0710 C.2     1  UNL1        0.1650
     12  O          8.5800   -3.4670   -2.0600 O.2     1  UNL1       -0.4540
     13  O          8.8260   -4.1670    0.0090 O.2     1  UNL1       -0.4540
     14  C          8.8700   -4.6260   -1.3210 C.3     1  UNL1        0.4680
@<TRIPOS>BOND
     1    12    14    1
     2    12    10    1
     3     8    10    1
     4     8     6    2
     5    14    13    1
     6    10    11    2
     7     5     1    1
     8     5     6    1
     9     1     2    1
    10     6     7    1
    11    13    11    1
    12    11     9    1
    13     2     3    1
    14     2     4    2
    15     7     9    2
