@<TRIPOS>MOLECULE
/home/cewinharhar/GITHUB/reincatalyze/data/processed/docking_pred/2023-May-22-1531_sub9_nm5_bs15_s42_ex16_mel10_mts1000_k50_ec02_g099_lra9e-4_lrc1e-3/650932a4c96e02f0afcc120cab6b741f416c7ae8_ligand_9.pdbqt
 14 15 0 0 0
SMALL
GASTEIGER

@<TRIPOS>ATOM
      1  C          5.7370    1.3300   -0.3620 C.3     1  UNL1        0.0800
      2  C          5.1360    1.3020    1.0000 C.2     1  UNL1        0.1300
      3  C          5.3720    0.1690    1.9340 C.3     1  UNL1        0.0870
      4  O          4.4260    2.2150    1.3910 O.2     1  UNL1       -0.3000
      5  C          7.2360    1.1090   -0.3070 C.3     1  UNL1        0.0430
      6  C          7.6180   -0.1870   -0.8960 C.2     1  UNL1       -0.0440
      7  C          7.7290   -0.3590   -2.2800 C.2     1  UNL1        0.0080
      8  C          7.8780   -1.2600   -0.0730 C.2     1  UNL1        0.0540
      9  C          8.0930   -1.5980   -2.7750 C.2     1  UNL1        0.0510
     10  C          8.2460   -2.5100   -0.5790 C.2     1  UNL1        0.1660
     11  C          8.3540   -2.6810   -1.9410 C.2     1  UNL1        0.1650
     12  O          8.5500   -3.7140    0.0210 O.2     1  UNL1       -0.4540
     13  O          8.7280   -3.9990   -2.1510 O.2     1  UNL1       -0.4540
     14  C          8.9510   -4.6650   -0.9310 C.3     1  UNL1        0.4680
@<TRIPOS>BOND
     1     9     7    1
     2     9    11    2
     3     7     6    2
     4    13    11    1
     5    13    14    1
     6    11    10    1
     7    14    12    1
     8     6     5    1
     9     6     8    1
    10    10     8    2
    11    10    12    1
    12     1     5    1
    13     1     2    1
    14     2     4    2
    15     2     3    1
