MODEL 1
REMARK VINA RESULT:      -7.6      0.000      0.000
REMARK SMILES CC(=O)CCc1ccc2c(c1)OCO2
REMARK SMILES IDX 4 1 2 2 1 3 3 4 5 5 6 6 7 7 11 8 8 9 10 10 9 11 12 12 14 13
REMARK SMILES IDX 13 14
REMARK H PARENT
REMARK Flexibility Score: inf
ROOT
ATOM      1  C   UNL     1       5.538   1.914   1.280  1.00  0.00     0.080 C 
ENDROOT
BRANCH   1   2
ATOM      2  C   UNL     1       5.099   0.695   2.014  1.00  0.00     0.130 C 
ATOM      3  C   UNL     1       5.998  -0.477   2.191  1.00  0.00     0.087 C 
ATOM      4  O   UNL     1       3.980   0.623   2.496  1.00  0.00    -0.300 OA
ENDBRANCH   1   2
BRANCH   1   5
ATOM      5  C   UNL     1       5.408   1.730  -0.219  1.00  0.00     0.043 C 
BRANCH   5   6
ATOM      6  C   UNL     1       6.574   1.028  -0.786  1.00  0.00    -0.044 A 
ATOM      7  C   UNL     1       7.882   1.458  -0.536  1.00  0.00     0.008 A 
ATOM      8  C   UNL     1       6.383  -0.079  -1.581  1.00  0.00     0.054 A 
ATOM      9  C   UNL     1       8.936   0.759  -1.094  1.00  0.00     0.051 A 
ATOM     10  C   UNL     1       7.452  -0.783  -2.143  1.00  0.00     0.166 A 
ATOM     11  C   UNL     1       8.740  -0.360  -1.898  1.00  0.00     0.165 A 
ATOM     12  O   UNL     1       7.523  -1.895  -2.955  1.00  0.00    -0.454 OA
ATOM     13  O   UNL     1       9.583  -1.231  -2.570  1.00  0.00    -0.454 OA
ATOM     14  C   UNL     1       8.857  -2.272  -3.179  1.00  0.00     0.468 C 
ENDBRANCH   5   6
ENDBRANCH   1   5
TORSDOF 3
ENDMDL
MODEL 2
REMARK VINA RESULT:      -7.4      1.936      2.408
REMARK SMILES CC(=O)CCc1ccc2c(c1)OCO2
REMARK SMILES IDX 4 1 2 2 1 3 3 4 5 5 6 6 7 7 11 8 8 9 10 10 9 11 12 12 14 13
REMARK SMILES IDX 13 14
REMARK H PARENT
REMARK Flexibility Score: inf
ROOT
ATOM      1  C   UNL     1       5.737   1.330  -0.362  1.00  0.00     0.080 C 
ENDROOT
BRANCH   1   2
ATOM      2  C   UNL     1       5.136   1.302   1.000  1.00  0.00     0.130 C 
ATOM      3  C   UNL     1       5.372   0.169   1.934  1.00  0.00     0.087 C 
ATOM      4  O   UNL     1       4.426   2.215   1.391  1.00  0.00    -0.300 OA
ENDBRANCH   1   2
BRANCH   1   5
ATOM      5  C   UNL     1       7.236   1.109  -0.307  1.00  0.00     0.043 C 
BRANCH   5   6
ATOM      6  C   UNL     1       7.618  -0.187  -0.896  1.00  0.00    -0.044 A 
ATOM      7  C   UNL     1       7.729  -0.359  -2.280  1.00  0.00     0.008 A 
ATOM      8  C   UNL     1       7.878  -1.260  -0.073  1.00  0.00     0.054 A 
ATOM      9  C   UNL     1       8.093  -1.598  -2.775  1.00  0.00     0.051 A 
ATOM     10  C   UNL     1       8.246  -2.510  -0.579  1.00  0.00     0.166 A 
ATOM     11  C   UNL     1       8.354  -2.681  -1.941  1.00  0.00     0.165 A 
ATOM     12  O   UNL     1       8.550  -3.714   0.021  1.00  0.00    -0.454 OA
ATOM     13  O   UNL     1       8.728  -3.999  -2.151  1.00  0.00    -0.454 OA
ATOM     14  C   UNL     1       8.951  -4.665  -0.931  1.00  0.00     0.468 C 
ENDBRANCH   5   6
ENDBRANCH   1   5
TORSDOF 3
ENDMDL
MODEL 3
REMARK VINA RESULT:      -7.2      2.184      2.695
REMARK SMILES CC(=O)CCc1ccc2c(c1)OCO2
REMARK SMILES IDX 4 1 2 2 1 3 3 4 5 5 6 6 7 7 11 8 8 9 10 10 9 11 12 12 14 13
REMARK SMILES IDX 13 14
REMARK H PARENT
REMARK Flexibility Score: inf
ROOT
ATOM      1  C   UNL     1       5.587   1.300  -0.504  1.00  0.00     0.080 C 
ENDROOT
BRANCH   1   2
ATOM      2  C   UNL     1       5.337   2.263   0.605  1.00  0.00     0.130 C 
ATOM      3  C   UNL     1       6.140   3.505   0.757  1.00  0.00     0.087 C 
ATOM      4  O   UNL     1       4.458   2.057   1.427  1.00  0.00    -0.300 OA
ENDBRANCH   1   2
BRANCH   1   5
ATOM      5  C   UNL     1       7.072   1.129  -0.759  1.00  0.00     0.043 C 
BRANCH   5   6
ATOM      6  C   UNL     1       7.526  -0.237  -0.446  1.00  0.00    -0.044 A 
ATOM      7  C   UNL     1       7.680  -0.674   0.875  1.00  0.00     0.008 A 
ATOM      8  C   UNL     1       7.807  -1.114  -1.469  1.00  0.00     0.054 A 
ATOM      9  C   UNL     1       8.109  -1.968   1.108  1.00  0.00     0.051 A 
ATOM     10  C   UNL     1       8.240  -2.421  -1.228  1.00  0.00     0.166 A 
ATOM     11  C   UNL     1       8.393  -2.852   0.071  1.00  0.00     0.165 A 
ATOM     12  O   UNL     1       8.580  -3.467  -2.060  1.00  0.00    -0.454 OA
ATOM     13  O   UNL     1       8.826  -4.167   0.009  1.00  0.00    -0.454 OA
ATOM     14  C   UNL     1       8.870  -4.626  -1.321  1.00  0.00     0.468 C 
ENDBRANCH   5   6
ENDBRANCH   1   5
TORSDOF 3
ENDMDL
