@<TRIPOS>MOLECULE
/home/cewinharhar/GITHUB/reincatalyze/data/processed/docking_pred/2023-May-22-1531_sub9_nm5_bs15_s42_ex16_mel10_mts1000_k50_ec02_g099_lra9e-4_lrc1e-3/67ebe37560d6b2ff0daae954040d2bc7ae74be81_ligand_9.pdbqt
 14 15 0 0 0
SMALL
GASTEIGER

@<TRIPOS>ATOM
      1  C          5.5120    2.8580    0.1650 C.3     1  UNL1        0.0800
      2  C          6.3300    3.7600    1.0240 C.2     1  UNL1        0.1300
      3  C          7.2470    4.7750    0.4400 C.3     1  UNL1        0.0870
      4  O          6.2700    3.6890    2.2410 O.2     1  UNL1       -0.3000
      5  C          5.2250    1.5440    0.8630 C.3     1  UNL1        0.0430
      6  C          6.0560    0.4490    0.3290 C.2     1  UNL1       -0.0440
      7  C          6.4320   -0.6400    1.1240 C.2     1  UNL1        0.0080
      8  C          6.4740    0.4870   -0.9810 C.2     1  UNL1        0.0540
      9  C          7.2120   -1.6380    0.5690 C.2     1  UNL1        0.0510
     10  C          7.2610   -0.5250   -1.5380 C.2     1  UNL1        0.1660
     11  C          7.6330   -1.5960   -0.7570 C.2     1  UNL1        0.1650
     12  O          7.7970   -0.7150   -2.7940 O.2     1  UNL1       -0.4540
     13  O          8.3970   -2.4310   -1.5580 O.2     1  UNL1       -0.4540
     14  C          8.4510   -1.9560   -2.8820 C.3     1  UNL1        0.4680
@<TRIPOS>BOND
     1    14    12    1
     2    14    13    1
     3    12    10    1
     4    13    11    1
     5    10     8    1
     6    10    11    2
     7     8     6    2
     8    11     9    1
     9     1     5    1
    10     1     2    1
    11     6     5    1
    12     6     7    1
    13     3     2    1
    14     9     7    2
    15     2     4    2
