@<TRIPOS>MOLECULE
/home/cewinharhar/GITHUB/reincatalyze/data/processed/docking_pred/2023-May-22-1531_sub9_nm5_bs15_s42_ex16_mel10_mts1000_k50_ec02_g099_lra9e-4_lrc1e-3/67ebe37560d6b2ff0daae954040d2bc7ae74be81_ligand_9.pdbqt
 14 15 0 0 0
SMALL
GASTEIGER

@<TRIPOS>ATOM
      1  C          5.7860    1.3690   -0.3510 C.3     1  UNL1        0.0800
      2  C          5.1470    1.3210    0.9930 C.2     1  UNL1        0.1300
      3  C          5.4020    0.2030    1.9400 C.3     1  UNL1        0.0870
      4  O          4.3880    2.2050    1.3580 O.2     1  UNL1       -0.3000
      5  C          7.2720    1.0800   -0.2640 C.3     1  UNL1        0.0430
      6  C          7.6120   -0.2180   -0.8750 C.2     1  UNL1       -0.0440
      7  C          7.6240   -0.3940   -2.2640 C.2     1  UNL1        0.0080
      8  C          7.9300   -1.2880   -0.0710 C.2     1  UNL1        0.0540
      9  C          7.9520   -1.6340   -2.7800 C.2     1  UNL1        0.0510
     10  C          8.2610   -2.5400   -0.5980 C.2     1  UNL1        0.1660
     11  C          8.2720   -2.7140   -1.9640 C.2     1  UNL1        0.1650
     12  O          8.6090   -3.7420   -0.0180 O.2     1  UNL1       -0.4540
     13  O          8.6300   -4.0330   -2.1970 O.2     1  UNL1       -0.4540
     14  C          8.9410   -4.6950   -0.9940 C.3     1  UNL1        0.4680
@<TRIPOS>BOND
     1     9     7    1
     2     9    11    2
     3     7     6    2
     4    13    11    1
     5    13    14    1
     6    11    10    1
     7    14    12    1
     8     6     5    1
     9     6     8    1
    10    10     8    2
    11    10    12    1
    12     1     5    1
    13     1     2    1
    14     2     4    2
    15     2     3    1
