MODEL 1
REMARK VINA RESULT:      -7.9      0.000      0.000
REMARK SMILES CC(=O)CCc1ccc2c(c1)OCO2
REMARK SMILES IDX 4 1 2 2 1 3 3 4 5 5 6 6 7 7 11 8 8 9 10 10 9 11 12 12 14 13
REMARK SMILES IDX 13 14
REMARK H PARENT
REMARK Flexibility Score: inf
ROOT
ATOM      1  C   UNL     1       5.512   2.858   0.165  1.00  0.00     0.080 C 
ENDROOT
BRANCH   1   2
ATOM      2  C   UNL     1       6.330   3.760   1.024  1.00  0.00     0.130 C 
ATOM      3  C   UNL     1       7.247   4.775   0.440  1.00  0.00     0.087 C 
ATOM      4  O   UNL     1       6.270   3.689   2.241  1.00  0.00    -0.300 OA
ENDBRANCH   1   2
BRANCH   1   5
ATOM      5  C   UNL     1       5.225   1.544   0.863  1.00  0.00     0.043 C 
BRANCH   5   6
ATOM      6  C   UNL     1       6.056   0.449   0.329  1.00  0.00    -0.044 A 
ATOM      7  C   UNL     1       6.432  -0.640   1.124  1.00  0.00     0.008 A 
ATOM      8  C   UNL     1       6.474   0.487  -0.981  1.00  0.00     0.054 A 
ATOM      9  C   UNL     1       7.212  -1.638   0.569  1.00  0.00     0.051 A 
ATOM     10  C   UNL     1       7.261  -0.525  -1.538  1.00  0.00     0.166 A 
ATOM     11  C   UNL     1       7.633  -1.596  -0.757  1.00  0.00     0.165 A 
ATOM     12  O   UNL     1       7.797  -0.715  -2.794  1.00  0.00    -0.454 OA
ATOM     13  O   UNL     1       8.397  -2.431  -1.558  1.00  0.00    -0.454 OA
ATOM     14  C   UNL     1       8.451  -1.956  -2.882  1.00  0.00     0.468 C 
ENDBRANCH   5   6
ENDBRANCH   1   5
TORSDOF 3
ENDMDL
MODEL 2
REMARK VINA RESULT:      -7.8      1.876      2.615
REMARK SMILES CC(=O)CCc1ccc2c(c1)OCO2
REMARK SMILES IDX 4 1 2 2 1 3 3 4 5 5 6 6 7 7 11 8 8 9 10 10 9 11 12 12 14 13
REMARK SMILES IDX 13 14
REMARK H PARENT
REMARK Flexibility Score: inf
ROOT
ATOM      1  C   UNL     1       5.515   1.918   1.248  1.00  0.00     0.080 C 
ENDROOT
BRANCH   1   2
ATOM      2  C   UNL     1       5.074   0.713   2.004  1.00  0.00     0.130 C 
ATOM      3  C   UNL     1       5.959  -0.472   2.169  1.00  0.00     0.087 C 
ATOM      4  O   UNL     1       3.966   0.662   2.512  1.00  0.00    -0.300 OA
ENDBRANCH   1   2
BRANCH   1   5
ATOM      5  C   UNL     1       5.385   1.709  -0.247  1.00  0.00     0.043 C 
BRANCH   5   6
ATOM      6  C   UNL     1       6.559   1.015  -0.806  1.00  0.00    -0.044 A 
ATOM      7  C   UNL     1       7.862   1.463  -0.559  1.00  0.00     0.008 A 
ATOM      8  C   UNL     1       6.382  -0.102  -1.590  1.00  0.00     0.054 A 
ATOM      9  C   UNL     1       8.925   0.772  -1.110  1.00  0.00     0.051 A 
ATOM     10  C   UNL     1       7.461  -0.798  -2.144  1.00  0.00     0.166 A 
ATOM     11  C   UNL     1       8.743  -0.357  -1.902  1.00  0.00     0.165 A 
ATOM     12  O   UNL     1       7.545  -1.918  -2.944  1.00  0.00    -0.454 OA
ATOM     13  O   UNL     1       9.597  -1.225  -2.565  1.00  0.00    -0.454 OA
ATOM     14  C   UNL     1       8.884  -2.281  -3.163  1.00  0.00     0.468 C 
ENDBRANCH   5   6
ENDBRANCH   1   5
TORSDOF 3
ENDMDL
MODEL 3
REMARK VINA RESULT:      -7.5      1.960      2.985
REMARK SMILES CC(=O)CCc1ccc2c(c1)OCO2
REMARK SMILES IDX 4 1 2 2 1 3 3 4 5 5 6 6 7 7 11 8 8 9 10 10 9 11 12 12 14 13
REMARK SMILES IDX 13 14
REMARK H PARENT
REMARK Flexibility Score: inf
ROOT
ATOM      1  C   UNL     1       5.786   1.369  -0.351  1.00  0.00     0.080 C 
ENDROOT
BRANCH   1   2
ATOM      2  C   UNL     1       5.147   1.321   0.993  1.00  0.00     0.130 C 
ATOM      3  C   UNL     1       5.402   0.203   1.940  1.00  0.00     0.087 C 
ATOM      4  O   UNL     1       4.388   2.205   1.358  1.00  0.00    -0.300 OA
ENDBRANCH   1   2
BRANCH   1   5
ATOM      5  C   UNL     1       7.272   1.080  -0.264  1.00  0.00     0.043 C 
BRANCH   5   6
ATOM      6  C   UNL     1       7.612  -0.218  -0.875  1.00  0.00    -0.044 A 
ATOM      7  C   UNL     1       7.624  -0.394  -2.264  1.00  0.00     0.008 A 
ATOM      8  C   UNL     1       7.930  -1.288  -0.071  1.00  0.00     0.054 A 
ATOM      9  C   UNL     1       7.952  -1.634  -2.780  1.00  0.00     0.051 A 
ATOM     10  C   UNL     1       8.261  -2.540  -0.598  1.00  0.00     0.166 A 
ATOM     11  C   UNL     1       8.272  -2.714  -1.964  1.00  0.00     0.165 A 
ATOM     12  O   UNL     1       8.609  -3.742  -0.018  1.00  0.00    -0.454 OA
ATOM     13  O   UNL     1       8.630  -4.033  -2.197  1.00  0.00    -0.454 OA
ATOM     14  C   UNL     1       8.941  -4.695  -0.994  1.00  0.00     0.468 C 
ENDBRANCH   5   6
ENDBRANCH   1   5
TORSDOF 3
ENDMDL
