@<TRIPOS>MOLECULE
/home/cewinharhar/GITHUB/reincatalyze/data/processed/docking_pred/2023-May-22-1531_sub9_nm5_bs15_s42_ex16_mel10_mts1000_k50_ec02_g099_lra9e-4_lrc1e-3/681e80220216c71ec10eb1429598bf11558fcb24_ligand_9.pdbqt
 14 15 0 0 0
SMALL
GASTEIGER

@<TRIPOS>ATOM
      1  C          5.4060    2.9510    0.2500 C.3     1  UNL1        0.0800
      2  C          6.3710    3.7430    1.0620 C.2     1  UNL1        0.1300
      3  C          7.2470    4.7750    0.4460 C.3     1  UNL1        0.0870
      4  O          6.4720    3.5640    2.2650 O.2     1  UNL1       -0.3000
      5  C          5.1200    1.6070    0.8900 C.3     1  UNL1        0.0430
      6  C          5.9740    0.5430    0.3320 C.2     1  UNL1       -0.0440
      7  C          6.3390   -0.5760    1.0890 C.2     1  UNL1        0.0080
      8  C          6.4290    0.6420   -0.9630 C.2     1  UNL1        0.0540
      9  C          7.1420   -1.5430    0.5130 C.2     1  UNL1        0.0510
     10  C          7.2400   -0.3390   -1.5410 C.2     1  UNL1        0.1660
     11  C          7.6000   -1.4400   -0.7970 C.2     1  UNL1        0.1650
     12  O          7.8130   -0.4690   -2.7890 O.2     1  UNL1       -0.4540
     13  O          8.3930   -2.2330   -1.6120 O.2     1  UNL1       -0.4540
     14  C          8.4790   -1.6990   -2.9120 C.3     1  UNL1        0.4680
@<TRIPOS>BOND
     1    14    12    1
     2    14    13    1
     3    12    10    1
     4    13    11    1
     5    10     8    1
     6    10    11    2
     7     8     6    2
     8    11     9    1
     9     1     5    1
    10     1     2    1
    11     6     5    1
    12     6     7    1
    13     3     2    1
    14     9     7    2
    15     2     4    2
