MODEL 1
REMARK VINA RESULT:      -7.8      0.000      0.000
REMARK SMILES CC(=O)CCc1ccc2c(c1)OCO2
REMARK SMILES IDX 4 1 2 2 1 3 3 4 5 5 6 6 7 7 11 8 8 9 10 10 9 11 12 12 14 13
REMARK SMILES IDX 13 14
REMARK H PARENT
REMARK Flexibility Score: inf
ROOT
ATOM      1  C   UNL     1       5.406   2.951   0.250  1.00  0.00     0.080 C 
ENDROOT
BRANCH   1   2
ATOM      2  C   UNL     1       6.371   3.743   1.062  1.00  0.00     0.130 C 
ATOM      3  C   UNL     1       7.247   4.775   0.446  1.00  0.00     0.087 C 
ATOM      4  O   UNL     1       6.472   3.564   2.265  1.00  0.00    -0.300 OA
ENDBRANCH   1   2
BRANCH   1   5
ATOM      5  C   UNL     1       5.120   1.607   0.890  1.00  0.00     0.043 C 
BRANCH   5   6
ATOM      6  C   UNL     1       5.974   0.543   0.332  1.00  0.00    -0.044 A 
ATOM      7  C   UNL     1       6.339  -0.576   1.089  1.00  0.00     0.008 A 
ATOM      8  C   UNL     1       6.429   0.642  -0.963  1.00  0.00     0.054 A 
ATOM      9  C   UNL     1       7.142  -1.543   0.513  1.00  0.00     0.051 A 
ATOM     10  C   UNL     1       7.240  -0.339  -1.541  1.00  0.00     0.166 A 
ATOM     11  C   UNL     1       7.600  -1.440  -0.797  1.00  0.00     0.165 A 
ATOM     12  O   UNL     1       7.813  -0.469  -2.789  1.00  0.00    -0.454 OA
ATOM     13  O   UNL     1       8.393  -2.233  -1.612  1.00  0.00    -0.454 OA
ATOM     14  C   UNL     1       8.479  -1.699  -2.912  1.00  0.00     0.468 C 
ENDBRANCH   5   6
ENDBRANCH   1   5
TORSDOF 3
ENDMDL
MODEL 2
REMARK VINA RESULT:      -7.7      1.010      1.998
REMARK SMILES CC(=O)CCc1ccc2c(c1)OCO2
REMARK SMILES IDX 4 1 2 2 1 3 3 4 5 5 6 6 7 7 11 8 8 9 10 10 9 11 12 12 14 13
REMARK SMILES IDX 13 14
REMARK H PARENT
REMARK Flexibility Score: inf
ROOT
ATOM      1  C   UNL     1       5.387   2.939   0.344  1.00  0.00     0.080 C 
ENDROOT
BRANCH   1   2
ATOM      2  C   UNL     1       6.334   3.816   1.086  1.00  0.00     0.130 C 
ATOM      3  C   UNL     1       7.227   4.775   0.382  1.00  0.00     0.087 C 
ATOM      4  O   UNL     1       6.404   3.773   2.304  1.00  0.00    -0.300 OA
ENDBRANCH   1   2
BRANCH   1   5
ATOM      5  C   UNL     1       5.217   1.601   1.037  1.00  0.00     0.043 C 
BRANCH   5   6
ATOM      6  C   UNL     1       6.032   0.550   0.403  1.00  0.00    -0.044 A 
ATOM      7  C   UNL     1       6.360   0.596  -0.957  1.00  0.00     0.008 A 
ATOM      8  C   UNL     1       6.491  -0.506   1.158  1.00  0.00     0.054 A 
ATOM      9  C   UNL     1       7.129  -0.419  -1.497  1.00  0.00     0.051 A 
ATOM     10  C   UNL     1       7.269  -1.529   0.608  1.00  0.00     0.166 A 
ATOM     11  C   UNL     1       7.590  -1.485  -0.731  1.00  0.00     0.165 A 
ATOM     12  O   UNL     1       7.836  -2.668   1.139  1.00  0.00    -0.454 OA
ATOM     13  O   UNL     1       8.357  -2.609  -0.996  1.00  0.00    -0.454 OA
ATOM     14  C   UNL     1       8.613  -3.339   0.181  1.00  0.00     0.468 C 
ENDBRANCH   5   6
ENDBRANCH   1   5
TORSDOF 3
ENDMDL
MODEL 3
REMARK VINA RESULT:      -7.7      1.884      2.612
REMARK SMILES CC(=O)CCc1ccc2c(c1)OCO2
REMARK SMILES IDX 4 1 2 2 1 3 3 4 5 5 6 6 7 7 11 8 8 9 10 10 9 11 12 12 14 13
REMARK SMILES IDX 13 14
REMARK H PARENT
REMARK Flexibility Score: inf
ROOT
ATOM      1  C   UNL     1       5.510   1.928   1.267  1.00  0.00     0.080 C 
ENDROOT
BRANCH   1   2
ATOM      2  C   UNL     1       5.068   0.712   2.005  1.00  0.00     0.130 C 
ATOM      3  C   UNL     1       5.957  -0.470   2.166  1.00  0.00     0.087 C 
ATOM      4  O   UNL     1       3.955   0.650   2.502  1.00  0.00    -0.300 OA
ENDBRANCH   1   2
BRANCH   1   5
ATOM      5  C   UNL     1       5.386   1.738  -0.232  1.00  0.00     0.043 C 
BRANCH   5   6
ATOM      6  C   UNL     1       6.555   1.038  -0.793  1.00  0.00    -0.044 A 
ATOM      7  C   UNL     1       7.861   1.475  -0.542  1.00  0.00     0.008 A 
ATOM      8  C   UNL     1       6.371  -0.074  -1.582  1.00  0.00     0.054 A 
ATOM      9  C   UNL     1       8.920   0.778  -1.094  1.00  0.00     0.051 A 
ATOM     10  C   UNL     1       7.445  -0.776  -2.138  1.00  0.00     0.166 A 
ATOM     11  C   UNL     1       8.730  -0.346  -1.892  1.00  0.00     0.165 A 
ATOM     12  O   UNL     1       7.522  -1.892  -2.943  1.00  0.00    -0.454 OA
ATOM     13  O   UNL     1       9.578  -1.217  -2.558  1.00  0.00    -0.454 OA
ATOM     14  C   UNL     1       8.858  -2.265  -3.162  1.00  0.00     0.468 C 
ENDBRANCH   5   6
ENDBRANCH   1   5
TORSDOF 3
ENDMDL
