@<TRIPOS>MOLECULE
/home/cewinharhar/GITHUB/reincatalyze/data/processed/docking_pred/2023-May-22-1531_sub9_nm5_bs15_s42_ex16_mel10_mts1000_k50_ec02_g099_lra9e-4_lrc1e-3/681e80220216c71ec10eb1429598bf11558fcb24_ligand_9.pdbqt
 14 15 0 0 0
SMALL
GASTEIGER

@<TRIPOS>ATOM
      1  C          5.5100    1.9280    1.2670 C.3     1  UNL1        0.0800
      2  C          5.0680    0.7120    2.0050 C.2     1  UNL1        0.1300
      3  C          5.9570   -0.4700    2.1660 C.3     1  UNL1        0.0870
      4  O          3.9550    0.6500    2.5020 O.2     1  UNL1       -0.3000
      5  C          5.3860    1.7380   -0.2320 C.3     1  UNL1        0.0430
      6  C          6.5550    1.0380   -0.7930 C.2     1  UNL1       -0.0440
      7  C          7.8610    1.4750   -0.5420 C.2     1  UNL1        0.0080
      8  C          6.3710   -0.0740   -1.5820 C.2     1  UNL1        0.0540
      9  C          8.9200    0.7780   -1.0940 C.2     1  UNL1        0.0510
     10  C          7.4450   -0.7760   -2.1380 C.2     1  UNL1        0.1660
     11  C          8.7300   -0.3460   -1.8920 C.2     1  UNL1        0.1650
     12  O          7.5220   -1.8920   -2.9430 O.2     1  UNL1       -0.4540
     13  O          9.5780   -1.2170   -2.5580 O.2     1  UNL1       -0.4540
     14  C          8.8580   -2.2650   -3.1620 C.3     1  UNL1        0.4680
@<TRIPOS>BOND
     1    14    12    1
     2    14    13    1
     3    12    10    1
     4    13    11    1
     5    10    11    2
     6    10     8    1
     7    11     9    1
     8     8     6    2
     9     9     7    2
    10     6     7    1
    11     6     5    1
    12     5     1    1
    13     1     2    1
    14     2     3    1
    15     2     4    2
