@<TRIPOS>MOLECULE
/home/cewinharhar/GITHUB/reincatalyze/data/processed/docking_pred/2023-May-22-1531_sub9_nm5_bs15_s42_ex16_mel10_mts1000_k50_ec02_g099_lra9e-4_lrc1e-3/681e80220216c71ec10eb1429598bf11558fcb24_ligand_9.pdbqt
 14 15 0 0 0
SMALL
GASTEIGER

@<TRIPOS>ATOM
      1  C          5.3870    2.9390    0.3440 C.3     1  UNL1        0.0800
      2  C          6.3340    3.8160    1.0860 C.2     1  UNL1        0.1300
      3  C          7.2270    4.7750    0.3820 C.3     1  UNL1        0.0870
      4  O          6.4040    3.7730    2.3040 O.2     1  UNL1       -0.3000
      5  C          5.2170    1.6010    1.0370 C.3     1  UNL1        0.0430
      6  C          6.0320    0.5500    0.4030 C.2     1  UNL1       -0.0440
      7  C          6.3600    0.5960   -0.9570 C.2     1  UNL1        0.0080
      8  C          6.4910   -0.5060    1.1580 C.2     1  UNL1        0.0540
      9  C          7.1290   -0.4190   -1.4970 C.2     1  UNL1        0.0510
     10  C          7.2690   -1.5290    0.6080 C.2     1  UNL1        0.1660
     11  C          7.5900   -1.4850   -0.7310 C.2     1  UNL1        0.1650
     12  O          7.8360   -2.6680    1.1390 O.2     1  UNL1       -0.4540
     13  O          8.3570   -2.6090   -0.9960 O.2     1  UNL1       -0.4540
     14  C          8.6130   -3.3390    0.1810 C.3     1  UNL1        0.4680
@<TRIPOS>BOND
     1     9     7    1
     2     9    11    2
     3    13    11    1
     4    13    14    1
     5     7     6    2
     6    11    10    1
     7    14    12    1
     8     1     5    1
     9     1     2    1
    10     3     2    1
    11     6     5    1
    12     6     8    1
    13    10    12    1
    14    10     8    2
    15     2     4    2
