@<TRIPOS>MOLECULE
/home/cewinharhar/GITHUB/reincatalyze/data/processed/docking_pred/2023-May-22-1531_sub9_nm5_bs15_s42_ex16_mel10_mts1000_k50_ec02_g099_lra9e-4_lrc1e-3/69e2ce579100b0ee4b56c8bb4a95d1562fd611af_ligand_9.pdbqt
 14 15 0 0 0
SMALL
GASTEIGER

@<TRIPOS>ATOM
      1  C          5.5550    1.9120    1.2750 C.3     1  UNL1        0.0800
      2  C          5.1050    0.7010    2.0150 C.2     1  UNL1        0.1300
      3  C          5.9930   -0.4790    2.1960 C.3     1  UNL1        0.0870
      4  O          3.9850    0.6410    2.4970 O.2     1  UNL1       -0.3000
      5  C          5.4200    1.7240   -0.2230 C.3     1  UNL1        0.0430
      6  C          6.5840    1.0220   -0.7930 C.2     1  UNL1       -0.0440
      7  C          7.8920    1.4610   -0.5580 C.2     1  UNL1        0.0080
      8  C          6.3910   -0.0940   -1.5750 C.2     1  UNL1        0.0540
      9  C          8.9450    0.7610   -1.1180 C.2     1  UNL1        0.0510
     10  C          7.4600   -0.7980   -2.1390 C.2     1  UNL1        0.1660
     11  C          8.7470   -0.3660   -1.9090 C.2     1  UNL1        0.1650
     12  O          7.5290   -1.9180   -2.9400 O.2     1  UNL1       -0.4540
     13  O          9.5890   -1.2400   -2.5790 O.2     1  UNL1       -0.4540
     14  C          8.8630   -2.2910   -3.1710 C.3     1  UNL1        0.4680
@<TRIPOS>BOND
     1    14    12    1
     2    14    13    1
     3    12    10    1
     4    13    11    1
     5    10    11    2
     6    10     8    1
     7    11     9    1
     8     8     6    2
     9     9     7    2
    10     6     7    1
    11     6     5    1
    12     5     1    1
    13     1     2    1
    14     2     3    1
    15     2     4    2
