@<TRIPOS>MOLECULE
/home/cewinharhar/GITHUB/reincatalyze/data/processed/docking_pred/2023-May-22-1531_sub9_nm5_bs15_s42_ex16_mel10_mts1000_k50_ec02_g099_lra9e-4_lrc1e-3/69e2ce579100b0ee4b56c8bb4a95d1562fd611af_ligand_9.pdbqt
 14 15 0 0 0
SMALL
GASTEIGER

@<TRIPOS>ATOM
      1  C          5.7590    1.3640   -0.3460 C.3     1  UNL1        0.0800
      2  C          5.1250    1.3100    1.0010 C.2     1  UNL1        0.1300
      3  C          5.3880    0.1900    1.9430 C.3     1  UNL1        0.0870
      4  O          4.3640    2.1890    1.3710 O.2     1  UNL1       -0.3000
      5  C          7.2520    1.1110   -0.2620 C.3     1  UNL1        0.0430
      6  C          7.6220   -0.1810   -0.8660 C.2     1  UNL1       -0.0440
      7  C          7.6970   -0.3470   -2.2540 C.2     1  UNL1        0.0080
      8  C          7.9050   -1.2570   -0.0560 C.2     1  UNL1        0.0540
      9  C          8.0500   -1.5820   -2.7650 C.2     1  UNL1        0.0510
     10  C          8.2630   -2.5040   -0.5770 C.2     1  UNL1        0.1660
     11  C          8.3360   -2.6680   -1.9430 C.2     1  UNL1        0.1650
     12  O          8.5860   -3.7100    0.0090 O.2     1  UNL1       -0.4540
     13  O          8.7070   -3.9840   -2.1690 O.2     1  UNL1       -0.4540
     14  C          8.9640   -4.6550   -0.9590 C.3     1  UNL1        0.4680
@<TRIPOS>BOND
     1     9     7    1
     2     9    11    2
     3     7     6    2
     4    13    11    1
     5    13    14    1
     6    11    10    1
     7    14    12    1
     8     6     5    1
     9     6     8    1
    10    10     8    2
    11    10    12    1
    12     1     5    1
    13     1     2    1
    14     2     4    2
    15     2     3    1
