@<TRIPOS>MOLECULE
/home/cewinharhar/GITHUB/reincatalyze/data/processed/docking_pred/2023-May-22-1531_sub9_nm5_bs15_s42_ex16_mel10_mts1000_k50_ec02_g099_lra9e-4_lrc1e-3/69e2ce579100b0ee4b56c8bb4a95d1562fd611af_ligand_9.pdbqt
 14 15 0 0 0
SMALL
GASTEIGER

@<TRIPOS>ATOM
      1  C          5.4760    2.8930    0.3340 C.3     1  UNL1        0.0800
      2  C          6.4070    3.7570    1.1120 C.2     1  UNL1        0.1300
      3  C          7.2660    4.7750    0.4490 C.3     1  UNL1        0.0870
      4  O          6.4940    3.6520    2.3240 O.2     1  UNL1       -0.3000
      5  C          5.2490    1.5640    1.0270 C.3     1  UNL1        0.0430
      6  C          6.0690    0.4920    0.4350 C.2     1  UNL1       -0.0440
      7  C          6.4280   -0.6460    1.1670 C.2     1  UNL1        0.0080
      8  C          6.4950    0.6010   -0.8700 C.2     1  UNL1        0.0540
      9  C          7.1980   -1.6200    0.5580 C.2     1  UNL1        0.0510
     10  C          7.2730   -0.3870   -1.4810 C.2     1  UNL1        0.1660
     11  C          7.6270   -1.5070   -0.7610 C.2     1  UNL1        0.1650
     12  O          7.8130   -0.5110   -2.7430 O.2     1  UNL1       -0.4540
     13  O          8.3850   -2.3030   -1.6050 O.2     1  UNL1       -0.4540
     14  C          8.4520   -1.7520   -2.8990 C.3     1  UNL1        0.4680
@<TRIPOS>BOND
     1    14    12    1
     2    14    13    1
     3    12    10    1
     4    13    11    1
     5    10     8    1
     6    10    11    2
     7     8     6    2
     8    11     9    1
     9     1     5    1
    10     1     2    1
    11     6     5    1
    12     6     7    1
    13     3     2    1
    14     9     7    2
    15     2     4    2
