MODEL 1
REMARK VINA RESULT:      -7.6      0.000      0.000
REMARK SMILES CC(=O)CCc1ccc2c(c1)OCO2
REMARK SMILES IDX 4 1 2 2 1 3 3 4 5 5 6 6 7 7 11 8 8 9 10 10 9 11 12 12 14 13
REMARK SMILES IDX 13 14
REMARK H PARENT
REMARK Flexibility Score: inf
ROOT
ATOM      1  C   UNL     1       5.555   1.912   1.275  1.00  0.00     0.080 C 
ENDROOT
BRANCH   1   2
ATOM      2  C   UNL     1       5.105   0.701   2.015  1.00  0.00     0.130 C 
ATOM      3  C   UNL     1       5.993  -0.479   2.196  1.00  0.00     0.087 C 
ATOM      4  O   UNL     1       3.985   0.641   2.497  1.00  0.00    -0.300 OA
ENDBRANCH   1   2
BRANCH   1   5
ATOM      5  C   UNL     1       5.420   1.724  -0.223  1.00  0.00     0.043 C 
BRANCH   5   6
ATOM      6  C   UNL     1       6.584   1.022  -0.793  1.00  0.00    -0.044 A 
ATOM      7  C   UNL     1       7.892   1.461  -0.558  1.00  0.00     0.008 A 
ATOM      8  C   UNL     1       6.391  -0.094  -1.575  1.00  0.00     0.054 A 
ATOM      9  C   UNL     1       8.945   0.761  -1.118  1.00  0.00     0.051 A 
ATOM     10  C   UNL     1       7.460  -0.798  -2.139  1.00  0.00     0.166 A 
ATOM     11  C   UNL     1       8.747  -0.366  -1.909  1.00  0.00     0.165 A 
ATOM     12  O   UNL     1       7.529  -1.918  -2.940  1.00  0.00    -0.454 OA
ATOM     13  O   UNL     1       9.589  -1.240  -2.579  1.00  0.00    -0.454 OA
ATOM     14  C   UNL     1       8.863  -2.291  -3.171  1.00  0.00     0.468 C 
ENDBRANCH   5   6
ENDBRANCH   1   5
TORSDOF 3
ENDMDL
MODEL 2
REMARK VINA RESULT:      -7.5      1.902      2.643
REMARK SMILES CC(=O)CCc1ccc2c(c1)OCO2
REMARK SMILES IDX 4 1 2 2 1 3 3 4 5 5 6 6 7 7 11 8 8 9 10 10 9 11 12 12 14 13
REMARK SMILES IDX 13 14
REMARK H PARENT
REMARK Flexibility Score: inf
ROOT
ATOM      1  C   UNL     1       5.476   2.893   0.334  1.00  0.00     0.080 C 
ENDROOT
BRANCH   1   2
ATOM      2  C   UNL     1       6.407   3.757   1.112  1.00  0.00     0.130 C 
ATOM      3  C   UNL     1       7.266   4.775   0.449  1.00  0.00     0.087 C 
ATOM      4  O   UNL     1       6.494   3.652   2.324  1.00  0.00    -0.300 OA
ENDBRANCH   1   2
BRANCH   1   5
ATOM      5  C   UNL     1       5.249   1.564   1.027  1.00  0.00     0.043 C 
BRANCH   5   6
ATOM      6  C   UNL     1       6.069   0.492   0.435  1.00  0.00    -0.044 A 
ATOM      7  C   UNL     1       6.428  -0.646   1.167  1.00  0.00     0.008 A 
ATOM      8  C   UNL     1       6.495   0.601  -0.870  1.00  0.00     0.054 A 
ATOM      9  C   UNL     1       7.198  -1.620   0.558  1.00  0.00     0.051 A 
ATOM     10  C   UNL     1       7.273  -0.387  -1.481  1.00  0.00     0.166 A 
ATOM     11  C   UNL     1       7.627  -1.507  -0.761  1.00  0.00     0.165 A 
ATOM     12  O   UNL     1       7.813  -0.511  -2.743  1.00  0.00    -0.454 OA
ATOM     13  O   UNL     1       8.385  -2.303  -1.605  1.00  0.00    -0.454 OA
ATOM     14  C   UNL     1       8.452  -1.752  -2.899  1.00  0.00     0.468 C 
ENDBRANCH   5   6
ENDBRANCH   1   5
TORSDOF 3
ENDMDL
MODEL 3
REMARK VINA RESULT:      -7.5      1.922      2.389
REMARK SMILES CC(=O)CCc1ccc2c(c1)OCO2
REMARK SMILES IDX 4 1 2 2 1 3 3 4 5 5 6 6 7 7 11 8 8 9 10 10 9 11 12 12 14 13
REMARK SMILES IDX 13 14
REMARK H PARENT
REMARK Flexibility Score: inf
ROOT
ATOM      1  C   UNL     1       5.759   1.364  -0.346  1.00  0.00     0.080 C 
ENDROOT
BRANCH   1   2
ATOM      2  C   UNL     1       5.125   1.310   1.001  1.00  0.00     0.130 C 
ATOM      3  C   UNL     1       5.388   0.190   1.943  1.00  0.00     0.087 C 
ATOM      4  O   UNL     1       4.364   2.189   1.371  1.00  0.00    -0.300 OA
ENDBRANCH   1   2
BRANCH   1   5
ATOM      5  C   UNL     1       7.252   1.111  -0.262  1.00  0.00     0.043 C 
BRANCH   5   6
ATOM      6  C   UNL     1       7.622  -0.181  -0.866  1.00  0.00    -0.044 A 
ATOM      7  C   UNL     1       7.697  -0.347  -2.254  1.00  0.00     0.008 A 
ATOM      8  C   UNL     1       7.905  -1.257  -0.056  1.00  0.00     0.054 A 
ATOM      9  C   UNL     1       8.050  -1.582  -2.765  1.00  0.00     0.051 A 
ATOM     10  C   UNL     1       8.263  -2.504  -0.577  1.00  0.00     0.166 A 
ATOM     11  C   UNL     1       8.336  -2.668  -1.943  1.00  0.00     0.165 A 
ATOM     12  O   UNL     1       8.586  -3.710   0.009  1.00  0.00    -0.454 OA
ATOM     13  O   UNL     1       8.707  -3.984  -2.169  1.00  0.00    -0.454 OA
ATOM     14  C   UNL     1       8.964  -4.655  -0.959  1.00  0.00     0.468 C 
ENDBRANCH   5   6
ENDBRANCH   1   5
TORSDOF 3
ENDMDL
