@<TRIPOS>MOLECULE
/home/cewinharhar/GITHUB/reincatalyze/data/processed/docking_pred/2023-May-22-1531_sub9_nm5_bs15_s42_ex16_mel10_mts1000_k50_ec02_g099_lra9e-4_lrc1e-3/6b061a7890d75c8b26c884693b3b8f9ee5a9c423_ligand_9.pdbqt
 14 15 0 0 0
SMALL
GASTEIGER

@<TRIPOS>ATOM
      1  C          5.7530    1.3370   -0.2940 C.3     1  UNL1        0.0800
      2  C          5.1550    1.2790    1.0690 C.2     1  UNL1        0.1300
      3  C          5.3320    0.0940    1.9500 C.3     1  UNL1        0.0870
      4  O          4.4970    2.2100    1.5050 O.2     1  UNL1       -0.3000
      5  C          7.2490    1.0990   -0.2490 C.3     1  UNL1        0.0430
      6  C          7.6160   -0.1890   -0.8630 C.2     1  UNL1       -0.0440
      7  C          7.6820   -0.3470   -2.2520 C.2     1  UNL1        0.0080
      8  C          7.9050   -1.2700   -0.0610 C.2     1  UNL1        0.0540
      9  C          8.0330   -1.5800   -2.7720 C.2     1  UNL1        0.0510
     10  C          8.2600   -2.5140   -0.5910 C.2     1  UNL1        0.1660
     11  C          8.3240   -2.6700   -1.9580 C.2     1  UNL1        0.1650
     12  O          8.5870   -3.7220   -0.0130 O.2     1  UNL1       -0.4540
     13  O          8.6940   -3.9850   -2.1930 O.2     1  UNL1       -0.4540
     14  C          8.9590   -4.6630   -0.9880 C.3     1  UNL1        0.4680
@<TRIPOS>BOND
     1     9     7    1
     2     9    11    2
     3     7     6    2
     4    13    11    1
     5    13    14    1
     6    11    10    1
     7    14    12    1
     8     6     5    1
     9     6     8    1
    10    10     8    2
    11    10    12    1
    12     1     5    1
    13     1     2    1
    14     2     4    2
    15     2     3    1
