@<TRIPOS>MOLECULE
/home/cewinharhar/GITHUB/reincatalyze/data/processed/docking_pred/2023-May-22-1531_sub9_nm5_bs15_s42_ex16_mel10_mts1000_k50_ec02_g099_lra9e-4_lrc1e-3/6b061a7890d75c8b26c884693b3b8f9ee5a9c423_ligand_9.pdbqt
 14 15 0 0 0
SMALL
GASTEIGER

@<TRIPOS>ATOM
      1  C          5.5090    1.9230    1.2640 C.3     1  UNL1        0.0800
      2  C          5.0590    0.7090    2.0000 C.2     1  UNL1        0.1300
      3  C          5.9380   -0.4800    2.1550 C.3     1  UNL1        0.0870
      4  O          3.9470    0.6560    2.5000 O.2     1  UNL1       -0.3000
      5  C          5.3860    1.7350   -0.2350 C.3     1  UNL1        0.0430
      6  C          6.5560    1.0350   -0.7960 C.2     1  UNL1       -0.0440
      7  C          7.8610    1.4720   -0.5440 C.2     1  UNL1        0.0080
      8  C          6.3710   -0.0780   -1.5840 C.2     1  UNL1        0.0540
      9  C          8.9200    0.7740   -1.0960 C.2     1  UNL1        0.0510
     10  C          7.4450   -0.7800   -2.1390 C.2     1  UNL1        0.1660
     11  C          8.7300   -0.3500   -1.8940 C.2     1  UNL1        0.1650
     12  O          7.5220   -1.8970   -2.9440 O.2     1  UNL1       -0.4540
     13  O          9.5790   -1.2210   -2.5590 O.2     1  UNL1       -0.4540
     14  C          8.8590   -2.2690   -3.1630 C.3     1  UNL1        0.4680
@<TRIPOS>BOND
     1    14    12    1
     2    14    13    1
     3    12    10    1
     4    13    11    1
     5    10    11    2
     6    10     8    1
     7    11     9    1
     8     8     6    2
     9     9     7    2
    10     6     7    1
    11     6     5    1
    12     5     1    1
    13     1     2    1
    14     2     3    1
    15     2     4    2
