MODEL 1
REMARK VINA RESULT:      -7.7      0.000      0.000
REMARK SMILES CC(=O)CCc1ccc2c(c1)OCO2
REMARK SMILES IDX 4 1 2 2 1 3 3 4 5 5 6 6 7 7 11 8 8 9 10 10 9 11 12 12 14 13
REMARK SMILES IDX 13 14
REMARK H PARENT
REMARK Flexibility Score: inf
ROOT
ATOM      1  C   UNL     1       5.509   1.923   1.264  1.00  0.00     0.080 C 
ENDROOT
BRANCH   1   2
ATOM      2  C   UNL     1       5.059   0.709   2.000  1.00  0.00     0.130 C 
ATOM      3  C   UNL     1       5.938  -0.480   2.155  1.00  0.00     0.087 C 
ATOM      4  O   UNL     1       3.947   0.656   2.500  1.00  0.00    -0.300 OA
ENDBRANCH   1   2
BRANCH   1   5
ATOM      5  C   UNL     1       5.386   1.735  -0.235  1.00  0.00     0.043 C 
BRANCH   5   6
ATOM      6  C   UNL     1       6.556   1.035  -0.796  1.00  0.00    -0.044 A 
ATOM      7  C   UNL     1       7.861   1.472  -0.544  1.00  0.00     0.008 A 
ATOM      8  C   UNL     1       6.371  -0.078  -1.584  1.00  0.00     0.054 A 
ATOM      9  C   UNL     1       8.920   0.774  -1.096  1.00  0.00     0.051 A 
ATOM     10  C   UNL     1       7.445  -0.780  -2.139  1.00  0.00     0.166 A 
ATOM     11  C   UNL     1       8.730  -0.350  -1.894  1.00  0.00     0.165 A 
ATOM     12  O   UNL     1       7.522  -1.897  -2.944  1.00  0.00    -0.454 OA
ATOM     13  O   UNL     1       9.579  -1.221  -2.559  1.00  0.00    -0.454 OA
ATOM     14  C   UNL     1       8.859  -2.269  -3.163  1.00  0.00     0.468 C 
ENDBRANCH   5   6
ENDBRANCH   1   5
TORSDOF 3
ENDMDL
MODEL 2
REMARK VINA RESULT:      -7.5      1.923      2.393
REMARK SMILES CC(=O)CCc1ccc2c(c1)OCO2
REMARK SMILES IDX 4 1 2 2 1 3 3 4 5 5 6 6 7 7 11 8 8 9 10 10 9 11 12 12 14 13
REMARK SMILES IDX 13 14
REMARK H PARENT
REMARK Flexibility Score: inf
ROOT
ATOM      1  C   UNL     1       5.753   1.337  -0.294  1.00  0.00     0.080 C 
ENDROOT
BRANCH   1   2
ATOM      2  C   UNL     1       5.155   1.279   1.069  1.00  0.00     0.130 C 
ATOM      3  C   UNL     1       5.332   0.094   1.950  1.00  0.00     0.087 C 
ATOM      4  O   UNL     1       4.497   2.210   1.505  1.00  0.00    -0.300 OA
ENDBRANCH   1   2
BRANCH   1   5
ATOM      5  C   UNL     1       7.249   1.099  -0.249  1.00  0.00     0.043 C 
BRANCH   5   6
ATOM      6  C   UNL     1       7.616  -0.189  -0.863  1.00  0.00    -0.044 A 
ATOM      7  C   UNL     1       7.682  -0.347  -2.252  1.00  0.00     0.008 A 
ATOM      8  C   UNL     1       7.905  -1.270  -0.061  1.00  0.00     0.054 A 
ATOM      9  C   UNL     1       8.033  -1.580  -2.772  1.00  0.00     0.051 A 
ATOM     10  C   UNL     1       8.260  -2.514  -0.591  1.00  0.00     0.166 A 
ATOM     11  C   UNL     1       8.324  -2.670  -1.958  1.00  0.00     0.165 A 
ATOM     12  O   UNL     1       8.587  -3.722  -0.013  1.00  0.00    -0.454 OA
ATOM     13  O   UNL     1       8.694  -3.985  -2.193  1.00  0.00    -0.454 OA
ATOM     14  C   UNL     1       8.959  -4.663  -0.988  1.00  0.00     0.468 C 
ENDBRANCH   5   6
ENDBRANCH   1   5
TORSDOF 3
ENDMDL
MODEL 3
REMARK VINA RESULT:      -7.3      2.236      2.747
REMARK SMILES CC(=O)CCc1ccc2c(c1)OCO2
REMARK SMILES IDX 4 1 2 2 1 3 3 4 5 5 6 6 7 7 11 8 8 9 10 10 9 11 12 12 14 13
REMARK SMILES IDX 13 14
REMARK H PARENT
REMARK Flexibility Score: inf
ROOT
ATOM      1  C   UNL     1       5.677   1.282  -0.506  1.00  0.00     0.080 C 
ENDROOT
BRANCH   1   2
ATOM      2  C   UNL     1       5.444   2.279   0.575  1.00  0.00     0.130 C 
ATOM      3  C   UNL     1       6.252   3.524   0.677  1.00  0.00     0.087 C 
ATOM      4  O   UNL     1       4.576   2.102   1.415  1.00  0.00    -0.300 OA
ENDBRANCH   1   2
BRANCH   1   5
ATOM      5  C   UNL     1       7.157   1.089  -0.767  1.00  0.00     0.043 C 
BRANCH   5   6
ATOM      6  C   UNL     1       7.594  -0.282  -0.447  1.00  0.00    -0.044 A 
ATOM      7  C   UNL     1       7.749  -0.712   0.876  1.00  0.00     0.008 A 
ATOM      8  C   UNL     1       7.856  -1.170  -1.465  1.00  0.00     0.054 A 
ATOM      9  C   UNL     1       8.161  -2.010   1.116  1.00  0.00     0.051 A 
ATOM     10  C   UNL     1       8.272  -2.481  -1.218  1.00  0.00     0.166 A 
ATOM     11  C   UNL     1       8.426  -2.905   0.084  1.00  0.00     0.165 A 
ATOM     12  O   UNL     1       8.591  -3.538  -2.044  1.00  0.00    -0.454 OA
ATOM     13  O   UNL     1       8.840  -4.226   0.029  1.00  0.00    -0.454 OA
ATOM     14  C   UNL     1       8.870  -4.695  -1.298  1.00  0.00     0.468 C 
ENDBRANCH   5   6
ENDBRANCH   1   5
TORSDOF 3
ENDMDL
