@<TRIPOS>MOLECULE
/home/cewinharhar/GITHUB/reincatalyze/data/processed/docking_pred/2023-May-22-1531_sub9_nm5_bs15_s42_ex16_mel10_mts1000_k50_ec02_g099_lra9e-4_lrc1e-3/6b061a7890d75c8b26c884693b3b8f9ee5a9c423_ligand_9.pdbqt
 14 15 0 0 0
SMALL
GASTEIGER

@<TRIPOS>ATOM
      1  C          5.6770    1.2820   -0.5060 C.3     1  UNL1        0.0800
      2  C          5.4440    2.2790    0.5750 C.2     1  UNL1        0.1300
      3  C          6.2520    3.5240    0.6770 C.3     1  UNL1        0.0870
      4  O          4.5760    2.1020    1.4150 O.2     1  UNL1       -0.3000
      5  C          7.1570    1.0890   -0.7670 C.3     1  UNL1        0.0430
      6  C          7.5940   -0.2820   -0.4470 C.2     1  UNL1       -0.0440
      7  C          7.7490   -0.7120    0.8760 C.2     1  UNL1        0.0080
      8  C          7.8560   -1.1700   -1.4650 C.2     1  UNL1        0.0540
      9  C          8.1610   -2.0100    1.1160 C.2     1  UNL1        0.0510
     10  C          8.2720   -2.4810   -1.2180 C.2     1  UNL1        0.1660
     11  C          8.4260   -2.9050    0.0840 C.2     1  UNL1        0.1650
     12  O          8.5910   -3.5380   -2.0440 O.2     1  UNL1       -0.4540
     13  O          8.8400   -4.2260    0.0290 O.2     1  UNL1       -0.4540
     14  C          8.8700   -4.6950   -1.2980 C.3     1  UNL1        0.4680
@<TRIPOS>BOND
     1    12    14    1
     2    12    10    1
     3     8    10    1
     4     8     6    2
     5    14    13    1
     6    10    11    2
     7     5     1    1
     8     5     6    1
     9     1     2    1
    10     6     7    1
    11    13    11    1
    12    11     9    1
    13     2     3    1
    14     2     4    2
    15     7     9    2
