@<TRIPOS>MOLECULE
/home/cewinharhar/GITHUB/reincatalyze/data/processed/docking_pred/2023-May-22-1531_sub9_nm5_bs15_s42_ex16_mel10_mts1000_k50_ec02_g099_lra9e-4_lrc1e-3/6d158fe290fd5017d73aec191e5eef2bb245b649_ligand_9.pdbqt
 14 15 0 0 0
SMALL
GASTEIGER

@<TRIPOS>ATOM
      1  C          5.5060    1.9260    1.2650 C.3     1  UNL1        0.0800
      2  C          5.0550    0.7110    1.9990 C.2     1  UNL1        0.1300
      3  C          5.9310   -0.4820    2.1470 C.3     1  UNL1        0.0870
      4  O          3.9450    0.6590    2.5030 O.2     1  UNL1       -0.3000
      5  C          5.3840    1.7400   -0.2340 C.3     1  UNL1        0.0430
      6  C          6.5530    1.0410   -0.7950 C.2     1  UNL1       -0.0440
      7  C          7.8590    1.4780   -0.5440 C.2     1  UNL1        0.0080
      8  C          6.3690   -0.0720   -1.5840 C.2     1  UNL1        0.0540
      9  C          8.9180    0.7810   -1.0960 C.2     1  UNL1        0.0510
     10  C          7.4430   -0.7740   -2.1390 C.2     1  UNL1        0.1660
     11  C          8.7280   -0.3440   -1.8940 C.2     1  UNL1        0.1650
     12  O          7.5200   -1.8900   -2.9450 O.2     1  UNL1       -0.4540
     13  O          9.5760   -1.2150   -2.5600 O.2     1  UNL1       -0.4540
     14  C          8.8570   -2.2630   -3.1640 C.3     1  UNL1        0.4680
@<TRIPOS>BOND
     1    14    12    1
     2    14    13    1
     3    12    10    1
     4    13    11    1
     5    10    11    2
     6    10     8    1
     7    11     9    1
     8     8     6    2
     9     9     7    2
    10     6     7    1
    11     6     5    1
    12     5     1    1
    13     1     2    1
    14     2     3    1
    15     2     4    2
