@<TRIPOS>MOLECULE
/home/cewinharhar/GITHUB/reincatalyze/data/processed/docking_pred/2023-May-22-1531_sub9_nm5_bs15_s42_ex16_mel10_mts1000_k50_ec02_g099_lra9e-4_lrc1e-3/6d158fe290fd5017d73aec191e5eef2bb245b649_ligand_9.pdbqt
 14 15 0 0 0
SMALL
GASTEIGER

@<TRIPOS>ATOM
      1  C          5.5490    3.0950   -0.1110 C.3     1  UNL1        0.0800
      2  C          6.3180    3.9090    0.8710 C.2     1  UNL1        0.1300
      3  C          7.4520    4.7750    0.4510 C.3     1  UNL1        0.0870
      4  O          6.0380    3.8870    2.0590 O.2     1  UNL1       -0.3000
      5  C          5.1150    1.7730    0.4890 C.3     1  UNL1        0.0430
      6  C          5.9620    0.6590    0.0270 C.2     1  UNL1       -0.0440
      7  C          6.3780    0.5580   -1.3050 C.2     1  UNL1        0.0080
      8  C          6.3610   -0.3100    0.9190 C.2     1  UNL1        0.0540
      9  C          7.1730   -0.5100   -1.6810 C.2     1  UNL1        0.0510
     10  C          7.1660   -1.3870    0.5350 C.2     1  UNL1        0.1660
     11  C          7.5750   -1.4880   -0.7760 C.2     1  UNL1        0.1650
     12  O          7.6880   -2.4630    1.2220 O.2     1  UNL1       -0.4540
     13  O          8.3480   -2.6350   -0.8680 O.2     1  UNL1       -0.4540
     14  C          8.5200   -3.2340    0.3940 C.3     1  UNL1        0.4680
@<TRIPOS>BOND
     1     9     7    1
     2     9    11    2
     3     7     6    2
     4    13    11    1
     5    13    14    1
     6    11    10    1
     7     1     5    1
     8     1     2    1
     9     6     5    1
    10     6     8    1
    11    14    12    1
    12     3     2    1
    13    10     8    2
    14    10    12    1
    15     2     4    2
