@<TRIPOS>MOLECULE
/home/cewinharhar/GITHUB/reincatalyze/data/processed/docking_pred/2023-May-22-1531_sub9_nm5_bs15_s42_ex16_mel10_mts1000_k50_ec02_g099_lra9e-4_lrc1e-3/6d158fe290fd5017d73aec191e5eef2bb245b649_ligand_9.pdbqt
 14 15 0 0 0
SMALL
GASTEIGER

@<TRIPOS>ATOM
      1  C          5.5220    2.8300    0.3380 C.3     1  UNL1        0.0800
      2  C          6.4170    3.7370    1.1100 C.2     1  UNL1        0.1300
      3  C          7.2440    4.7750    0.4380 C.3     1  UNL1        0.0870
      4  O          6.4980    3.6530    2.3250 O.2     1  UNL1       -0.3000
      5  C          5.3220    1.5120    1.0580 C.3     1  UNL1        0.0430
      6  C          6.1240    0.4320    0.4550 C.2     1  UNL1       -0.0440
      7  C          6.4820   -0.7090    1.1820 C.2     1  UNL1        0.0080
      8  C          6.5330    0.5370   -0.8550 C.2     1  UNL1        0.0540
      9  C          7.2360   -1.6900    0.5630 C.2     1  UNL1        0.0510
     10  C          7.2940   -0.4580   -1.4760 C.2     1  UNL1        0.1660
     11  C          7.6480   -1.5800   -0.7610 C.2     1  UNL1        0.1650
     12  O          7.8170   -0.5860   -2.7460 O.2     1  UNL1       -0.4540
     13  O          8.3880   -2.3830   -1.6160 O.2     1  UNL1       -0.4540
     14  C          8.4420   -1.8330   -2.9100 C.3     1  UNL1        0.4680
@<TRIPOS>BOND
     1    14    12    1
     2    14    13    1
     3    12    10    1
     4    13    11    1
     5    10     8    1
     6    10    11    2
     7     8     6    2
     8    11     9    1
     9     1     5    1
    10     1     2    1
    11     3     2    1
    12     6     5    1
    13     6     7    1
    14     9     7    2
    15     2     4    2
