MODEL 1
REMARK VINA RESULT:      -7.7      0.000      0.000
REMARK SMILES CC(=O)CCc1ccc2c(c1)OCO2
REMARK SMILES IDX 4 1 2 2 1 3 3 4 5 5 6 6 7 7 11 8 8 9 10 10 9 11 12 12 14 13
REMARK SMILES IDX 13 14
REMARK H PARENT
REMARK Flexibility Score: inf
ROOT
ATOM      1  C   UNL     1       5.522   2.830   0.338  1.00  0.00     0.080 C 
ENDROOT
BRANCH   1   2
ATOM      2  C   UNL     1       6.417   3.737   1.110  1.00  0.00     0.130 C 
ATOM      3  C   UNL     1       7.244   4.775   0.438  1.00  0.00     0.087 C 
ATOM      4  O   UNL     1       6.498   3.653   2.325  1.00  0.00    -0.300 OA
ENDBRANCH   1   2
BRANCH   1   5
ATOM      5  C   UNL     1       5.322   1.512   1.058  1.00  0.00     0.043 C 
BRANCH   5   6
ATOM      6  C   UNL     1       6.124   0.432   0.455  1.00  0.00    -0.044 A 
ATOM      7  C   UNL     1       6.482  -0.709   1.182  1.00  0.00     0.008 A 
ATOM      8  C   UNL     1       6.533   0.537  -0.855  1.00  0.00     0.054 A 
ATOM      9  C   UNL     1       7.236  -1.690   0.563  1.00  0.00     0.051 A 
ATOM     10  C   UNL     1       7.294  -0.458  -1.476  1.00  0.00     0.166 A 
ATOM     11  C   UNL     1       7.648  -1.580  -0.761  1.00  0.00     0.165 A 
ATOM     12  O   UNL     1       7.817  -0.586  -2.746  1.00  0.00    -0.454 OA
ATOM     13  O   UNL     1       8.388  -2.383  -1.616  1.00  0.00    -0.454 OA
ATOM     14  C   UNL     1       8.442  -1.833  -2.910  1.00  0.00     0.468 C 
ENDBRANCH   5   6
ENDBRANCH   1   5
TORSDOF 3
ENDMDL
MODEL 2
REMARK VINA RESULT:      -7.7      1.904      2.644
REMARK SMILES CC(=O)CCc1ccc2c(c1)OCO2
REMARK SMILES IDX 4 1 2 2 1 3 3 4 5 5 6 6 7 7 11 8 8 9 10 10 9 11 12 12 14 13
REMARK SMILES IDX 13 14
REMARK H PARENT
REMARK Flexibility Score: inf
ROOT
ATOM      1  C   UNL     1       5.506   1.926   1.265  1.00  0.00     0.080 C 
ENDROOT
BRANCH   1   2
ATOM      2  C   UNL     1       5.055   0.711   1.999  1.00  0.00     0.130 C 
ATOM      3  C   UNL     1       5.931  -0.482   2.147  1.00  0.00     0.087 C 
ATOM      4  O   UNL     1       3.945   0.659   2.503  1.00  0.00    -0.300 OA
ENDBRANCH   1   2
BRANCH   1   5
ATOM      5  C   UNL     1       5.384   1.740  -0.234  1.00  0.00     0.043 C 
BRANCH   5   6
ATOM      6  C   UNL     1       6.553   1.041  -0.795  1.00  0.00    -0.044 A 
ATOM      7  C   UNL     1       7.859   1.478  -0.544  1.00  0.00     0.008 A 
ATOM      8  C   UNL     1       6.369  -0.072  -1.584  1.00  0.00     0.054 A 
ATOM      9  C   UNL     1       8.918   0.781  -1.096  1.00  0.00     0.051 A 
ATOM     10  C   UNL     1       7.443  -0.774  -2.139  1.00  0.00     0.166 A 
ATOM     11  C   UNL     1       8.728  -0.344  -1.894  1.00  0.00     0.165 A 
ATOM     12  O   UNL     1       7.520  -1.890  -2.945  1.00  0.00    -0.454 OA
ATOM     13  O   UNL     1       9.576  -1.215  -2.560  1.00  0.00    -0.454 OA
ATOM     14  C   UNL     1       8.857  -2.263  -3.164  1.00  0.00     0.468 C 
ENDBRANCH   5   6
ENDBRANCH   1   5
TORSDOF 3
ENDMDL
MODEL 3
REMARK VINA RESULT:      -7.6      1.055      2.023
REMARK SMILES CC(=O)CCc1ccc2c(c1)OCO2
REMARK SMILES IDX 4 1 2 2 1 3 3 4 5 5 6 6 7 7 11 8 8 9 10 10 9 11 12 12 14 13
REMARK SMILES IDX 13 14
REMARK H PARENT
REMARK Flexibility Score: inf
ROOT
ATOM      1  C   UNL     1       5.549   3.095  -0.111  1.00  0.00     0.080 C 
ENDROOT
BRANCH   1   2
ATOM      2  C   UNL     1       6.318   3.909   0.871  1.00  0.00     0.130 C 
ATOM      3  C   UNL     1       7.452   4.775   0.451  1.00  0.00     0.087 C 
ATOM      4  O   UNL     1       6.038   3.887   2.059  1.00  0.00    -0.300 OA
ENDBRANCH   1   2
BRANCH   1   5
ATOM      5  C   UNL     1       5.115   1.773   0.489  1.00  0.00     0.043 C 
BRANCH   5   6
ATOM      6  C   UNL     1       5.962   0.659   0.027  1.00  0.00    -0.044 A 
ATOM      7  C   UNL     1       6.378   0.558  -1.305  1.00  0.00     0.008 A 
ATOM      8  C   UNL     1       6.361  -0.310   0.919  1.00  0.00     0.054 A 
ATOM      9  C   UNL     1       7.173  -0.510  -1.681  1.00  0.00     0.051 A 
ATOM     10  C   UNL     1       7.166  -1.387   0.535  1.00  0.00     0.166 A 
ATOM     11  C   UNL     1       7.575  -1.488  -0.776  1.00  0.00     0.165 A 
ATOM     12  O   UNL     1       7.688  -2.463   1.222  1.00  0.00    -0.454 OA
ATOM     13  O   UNL     1       8.348  -2.635  -0.868  1.00  0.00    -0.454 OA
ATOM     14  C   UNL     1       8.520  -3.234   0.394  1.00  0.00     0.468 C 
ENDBRANCH   5   6
ENDBRANCH   1   5
TORSDOF 3
ENDMDL
