@<TRIPOS>MOLECULE
/home/cewinharhar/GITHUB/reincatalyze/data/processed/docking_pred/2023-May-22-1531_sub9_nm5_bs15_s42_ex16_mel10_mts1000_k50_ec02_g099_lra9e-4_lrc1e-3/6dc168e099aae66a1c19408847f7f9495b2b5216_ligand_9.pdbqt
 14 15 0 0 0
SMALL
GASTEIGER

@<TRIPOS>ATOM
      1  C          5.4360    2.9360    0.1380 C.3     1  UNL1        0.0800
      2  C          6.2690    3.8420    0.9760 C.2     1  UNL1        0.1300
      3  C          7.2590    4.7750    0.3730 C.3     1  UNL1        0.0870
      4  O          6.1630    3.8450    2.1920 O.2     1  UNL1       -0.3000
      5  C          5.1700    1.6220    0.8440 C.3     1  UNL1        0.0430
      6  C          5.9930    0.5300    0.2940 C.2     1  UNL1       -0.0440
      7  C          6.3190   -0.5980    1.0570 C.2     1  UNL1        0.0080
      8  C          6.4550    0.6080   -1.0000 C.2     1  UNL1        0.0540
      9  C          7.0930   -1.5920    0.4870 C.2     1  UNL1        0.0510
     10  C          7.2370   -0.4000   -1.5710 C.2     1  UNL1        0.1660
     11  C          7.5590   -1.5090   -0.8210 C.2     1  UNL1        0.1650
     12  O          7.8100   -0.5530   -2.8160 O.2     1  UNL1       -0.4540
     13  O          8.3300   -2.3290   -1.6300 O.2     1  UNL1       -0.4540
     14  C          8.4380   -1.8040   -2.9310 C.3     1  UNL1        0.4680
@<TRIPOS>BOND
     1    14    12    1
     2    14    13    1
     3    12    10    1
     4    13    11    1
     5    10     8    1
     6    10    11    2
     7     8     6    2
     8    11     9    1
     9     1     5    1
    10     1     2    1
    11     6     5    1
    12     6     7    1
    13     3     2    1
    14     9     7    2
    15     2     4    2
