@<TRIPOS>MOLECULE
/home/cewinharhar/GITHUB/reincatalyze/data/processed/docking_pred/2023-May-22-1531_sub9_nm5_bs15_s42_ex16_mel10_mts1000_k50_ec02_g099_lra9e-4_lrc1e-3/6dc168e099aae66a1c19408847f7f9495b2b5216_ligand_9.pdbqt
 14 15 0 0 0
SMALL
GASTEIGER

@<TRIPOS>ATOM
      1  C          5.5220    1.9410    1.2510 C.3     1  UNL1        0.0800
      2  C          5.1020    0.7240    2.0000 C.2     1  UNL1        0.1300
      3  C          6.0180   -0.4320    2.1890 C.3     1  UNL1        0.0870
      4  O          3.9840    0.6410    2.4840 O.2     1  UNL1       -0.3000
      5  C          5.3960    1.7370   -0.2460 C.3     1  UNL1        0.0430
      6  C          6.5630    1.0290   -0.8010 C.2     1  UNL1       -0.0440
      7  C          7.8710    1.4550   -0.5410 C.2     1  UNL1        0.0080
      8  C          6.3750   -0.0800   -1.5940 C.2     1  UNL1        0.0540
      9  C          8.9270    0.7510   -1.0890 C.2     1  UNL1        0.0510
     10  C          7.4470   -0.7880   -2.1460 C.2     1  UNL1        0.1660
     11  C          8.7330   -0.3690   -1.8910 C.2     1  UNL1        0.1650
     12  O          7.5200   -1.9030   -2.9540 O.2     1  UNL1       -0.4540
     13  O          9.5790   -1.2450   -2.5540 O.2     1  UNL1       -0.4540
     14  C          8.8540   -2.2860   -3.1650 C.3     1  UNL1        0.4680
@<TRIPOS>BOND
     1    14    12    1
     2    14    13    1
     3    12    10    1
     4    13    11    1
     5    10    11    2
     6    10     8    1
     7    11     9    1
     8     8     6    2
     9     9     7    2
    10     6     7    1
    11     6     5    1
    12     5     1    1
    13     1     2    1
    14     2     3    1
    15     2     4    2
