@<TRIPOS>MOLECULE
/home/cewinharhar/GITHUB/reincatalyze/data/processed/docking_pred/2023-May-22-1531_sub9_nm5_bs15_s42_ex16_mel10_mts1000_k50_ec02_g099_lra9e-4_lrc1e-3/6e01533e6265e20f53eb8495178921d7241890ed_ligand_9.pdbqt
 14 15 0 0 0
SMALL
GASTEIGER

@<TRIPOS>ATOM
      1  C          5.5420    1.9260    1.2590 C.3     1  UNL1        0.0800
      2  C          5.1090    0.7120    2.0060 C.2     1  UNL1        0.1300
      3  C          6.0150   -0.4520    2.1950 C.3     1  UNL1        0.0870
      4  O          3.9900    0.6380    2.4880 O.2     1  UNL1       -0.3000
      5  C          5.4090    1.7280   -0.2380 C.3     1  UNL1        0.0430
      6  C          6.5760    1.0260   -0.8020 C.2     1  UNL1       -0.0440
      7  C          7.8830    1.4600   -0.5520 C.2     1  UNL1        0.0080
      8  C          6.3870   -0.0850   -1.5920 C.2     1  UNL1        0.0540
      9  C          8.9390    0.7610   -1.1070 C.2     1  UNL1        0.0510
     10  C          7.4590   -0.7890   -2.1500 C.2     1  UNL1        0.1660
     11  C          8.7450   -0.3620   -1.9060 C.2     1  UNL1        0.1650
     12  O          7.5320   -1.9040   -2.9580 O.2     1  UNL1       -0.4540
     13  O          9.5900   -1.2340   -2.5750 O.2     1  UNL1       -0.4540
     14  C          8.8670   -2.2790   -3.1790 C.3     1  UNL1        0.4680
@<TRIPOS>BOND
     1    14    12    1
     2    14    13    1
     3    12    10    1
     4    13    11    1
     5    10    11    2
     6    10     8    1
     7    11     9    1
     8     8     6    2
     9     9     7    2
    10     6     7    1
    11     6     5    1
    12     5     1    1
    13     1     2    1
    14     2     3    1
    15     2     4    2
