@<TRIPOS>MOLECULE
/home/cewinharhar/GITHUB/reincatalyze/data/processed/docking_pred/2023-May-22-1531_sub9_nm5_bs15_s42_ex16_mel10_mts1000_k50_ec02_g099_lra9e-4_lrc1e-3/6e01533e6265e20f53eb8495178921d7241890ed_ligand_9.pdbqt
 14 15 0 0 0
SMALL
GASTEIGER

@<TRIPOS>ATOM
      1  C          5.4340    2.8240    0.2220 C.3     1  UNL1        0.0800
      2  C          6.2980    3.7560    1.0000 C.2     1  UNL1        0.1300
      3  C          7.1500    4.7740    0.3290 C.3     1  UNL1        0.0870
      4  O          6.3310    3.7090    2.2190 O.2     1  UNL1       -0.3000
      5  C          5.2280    1.5170    0.9620 C.3     1  UNL1        0.0430
      6  C          6.0730    0.4400    0.4150 C.2     1  UNL1       -0.0440
      7  C          6.5270   -0.6140    1.2160 C.2     1  UNL1        0.0080
      8  C          6.4280    0.4600   -0.9150 C.2     1  UNL1        0.0540
      9  C          7.3160   -1.5970    0.6480 C.2     1  UNL1        0.0510
     10  C          7.2260   -0.5370   -1.4850 C.2     1  UNL1        0.1660
     11  C          7.6740   -1.5730   -0.6970 C.2     1  UNL1        0.1650
     12  O          7.7090   -0.7390   -2.7600 O.2     1  UNL1       -0.4540
     13  O          8.4300   -2.4000   -1.5130 O.2     1  UNL1       -0.4540
     14  C          8.4030   -1.9560   -2.8490 C.3     1  UNL1        0.4680
@<TRIPOS>BOND
     1    14    12    1
     2    14    13    1
     3    12    10    1
     4    13    11    1
     5    10     8    1
     6    10    11    2
     7     8     6    2
     8    11     9    1
     9     1     5    1
    10     1     2    1
    11     3     2    1
    12     6     5    1
    13     6     7    1
    14     9     7    2
    15     2     4    2
