@<TRIPOS>MOLECULE
/home/cewinharhar/GITHUB/reincatalyze/data/processed/docking_pred/2023-May-22-1531_sub9_nm5_bs15_s42_ex16_mel10_mts1000_k50_ec02_g099_lra9e-4_lrc1e-3/6e01533e6265e20f53eb8495178921d7241890ed_ligand_9.pdbqt
 14 15 0 0 0
SMALL
GASTEIGER

@<TRIPOS>ATOM
      1  C          5.8250    1.4130   -0.3630 C.3     1  UNL1        0.0800
      2  C          5.1410    1.3470    0.9580 C.2     1  UNL1        0.1300
      3  C          5.3850    0.2290    1.9090 C.3     1  UNL1        0.0870
      4  O          4.3540    2.2150    1.3000 O.2     1  UNL1       -0.3000
      5  C          7.3010    1.0910   -0.2350 C.3     1  UNL1        0.0430
      6  C          7.6330   -0.2060   -0.8520 C.2     1  UNL1       -0.0440
      7  C          7.6360   -0.3780   -2.2410 C.2     1  UNL1        0.0080
      8  C          7.9510   -1.2800   -0.0530 C.2     1  UNL1        0.0540
      9  C          7.9560   -1.6180   -2.7630 C.2     1  UNL1        0.0510
     10  C          8.2750   -2.5320   -0.5850 C.2     1  UNL1        0.1660
     11  C          8.2770   -2.7020   -1.9520 C.2     1  UNL1        0.1650
     12  O          8.6210   -3.7370   -0.0110 O.2     1  UNL1       -0.4540
     13  O          8.6290   -4.0210   -2.1910 O.2     1  UNL1       -0.4540
     14  C          8.9440   -4.6880   -0.9930 C.3     1  UNL1        0.4680
@<TRIPOS>BOND
     1     9     7    1
     2     9    11    2
     3     7     6    2
     4    13    11    1
     5    13    14    1
     6    11    10    1
     7    14    12    1
     8     6     5    1
     9     6     8    1
    10    10     8    2
    11    10    12    1
    12     1     5    1
    13     1     2    1
    14     2     4    2
    15     2     3    1
