MODEL 1
REMARK VINA RESULT:      -7.8      0.000      0.000
REMARK SMILES CC(=O)CCc1ccc2c(c1)OCO2
REMARK SMILES IDX 4 1 2 2 1 3 3 4 5 5 6 6 7 7 11 8 8 9 10 10 9 11 12 12 14 13
REMARK SMILES IDX 13 14
REMARK H PARENT
REMARK Flexibility Score: inf
ROOT
ATOM      1  C   UNL     1       5.434   2.824   0.222  1.00  0.00     0.080 C 
ENDROOT
BRANCH   1   2
ATOM      2  C   UNL     1       6.298   3.756   1.000  1.00  0.00     0.130 C 
ATOM      3  C   UNL     1       7.150   4.774   0.329  1.00  0.00     0.087 C 
ATOM      4  O   UNL     1       6.331   3.709   2.219  1.00  0.00    -0.300 OA
ENDBRANCH   1   2
BRANCH   1   5
ATOM      5  C   UNL     1       5.228   1.517   0.962  1.00  0.00     0.043 C 
BRANCH   5   6
ATOM      6  C   UNL     1       6.073   0.440   0.415  1.00  0.00    -0.044 A 
ATOM      7  C   UNL     1       6.527  -0.614   1.216  1.00  0.00     0.008 A 
ATOM      8  C   UNL     1       6.428   0.460  -0.915  1.00  0.00     0.054 A 
ATOM      9  C   UNL     1       7.316  -1.597   0.648  1.00  0.00     0.051 A 
ATOM     10  C   UNL     1       7.226  -0.537  -1.485  1.00  0.00     0.166 A 
ATOM     11  C   UNL     1       7.674  -1.573  -0.697  1.00  0.00     0.165 A 
ATOM     12  O   UNL     1       7.709  -0.739  -2.760  1.00  0.00    -0.454 OA
ATOM     13  O   UNL     1       8.430  -2.400  -1.513  1.00  0.00    -0.454 OA
ATOM     14  C   UNL     1       8.403  -1.956  -2.849  1.00  0.00     0.468 C 
ENDBRANCH   5   6
ENDBRANCH   1   5
TORSDOF 3
ENDMDL
MODEL 2
REMARK VINA RESULT:      -7.6      1.884      2.617
REMARK SMILES CC(=O)CCc1ccc2c(c1)OCO2
REMARK SMILES IDX 4 1 2 2 1 3 3 4 5 5 6 6 7 7 11 8 8 9 10 10 9 11 12 12 14 13
REMARK SMILES IDX 13 14
REMARK H PARENT
REMARK Flexibility Score: inf
ROOT
ATOM      1  C   UNL     1       5.542   1.926   1.259  1.00  0.00     0.080 C 
ENDROOT
BRANCH   1   2
ATOM      2  C   UNL     1       5.109   0.712   2.006  1.00  0.00     0.130 C 
ATOM      3  C   UNL     1       6.015  -0.452   2.195  1.00  0.00     0.087 C 
ATOM      4  O   UNL     1       3.990   0.638   2.488  1.00  0.00    -0.300 OA
ENDBRANCH   1   2
BRANCH   1   5
ATOM      5  C   UNL     1       5.409   1.728  -0.238  1.00  0.00     0.043 C 
BRANCH   5   6
ATOM      6  C   UNL     1       6.576   1.026  -0.802  1.00  0.00    -0.044 A 
ATOM      7  C   UNL     1       7.883   1.460  -0.552  1.00  0.00     0.008 A 
ATOM      8  C   UNL     1       6.387  -0.085  -1.592  1.00  0.00     0.054 A 
ATOM      9  C   UNL     1       8.939   0.761  -1.107  1.00  0.00     0.051 A 
ATOM     10  C   UNL     1       7.459  -0.789  -2.150  1.00  0.00     0.166 A 
ATOM     11  C   UNL     1       8.745  -0.362  -1.906  1.00  0.00     0.165 A 
ATOM     12  O   UNL     1       7.532  -1.904  -2.958  1.00  0.00    -0.454 OA
ATOM     13  O   UNL     1       9.590  -1.234  -2.575  1.00  0.00    -0.454 OA
ATOM     14  C   UNL     1       8.867  -2.279  -3.179  1.00  0.00     0.468 C 
ENDBRANCH   5   6
ENDBRANCH   1   5
TORSDOF 3
ENDMDL
MODEL 3
REMARK VINA RESULT:      -7.5      1.955      2.993
REMARK SMILES CC(=O)CCc1ccc2c(c1)OCO2
REMARK SMILES IDX 4 1 2 2 1 3 3 4 5 5 6 6 7 7 11 8 8 9 10 10 9 11 12 12 14 13
REMARK SMILES IDX 13 14
REMARK H PARENT
REMARK Flexibility Score: inf
ROOT
ATOM      1  C   UNL     1       5.825   1.413  -0.363  1.00  0.00     0.080 C 
ENDROOT
BRANCH   1   2
ATOM      2  C   UNL     1       5.141   1.347   0.958  1.00  0.00     0.130 C 
ATOM      3  C   UNL     1       5.385   0.229   1.909  1.00  0.00     0.087 C 
ATOM      4  O   UNL     1       4.354   2.215   1.300  1.00  0.00    -0.300 OA
ENDBRANCH   1   2
BRANCH   1   5
ATOM      5  C   UNL     1       7.301   1.091  -0.235  1.00  0.00     0.043 C 
BRANCH   5   6
ATOM      6  C   UNL     1       7.633  -0.206  -0.852  1.00  0.00    -0.044 A 
ATOM      7  C   UNL     1       7.636  -0.378  -2.241  1.00  0.00     0.008 A 
ATOM      8  C   UNL     1       7.951  -1.280  -0.053  1.00  0.00     0.054 A 
ATOM      9  C   UNL     1       7.956  -1.618  -2.763  1.00  0.00     0.051 A 
ATOM     10  C   UNL     1       8.275  -2.532  -0.585  1.00  0.00     0.166 A 
ATOM     11  C   UNL     1       8.277  -2.702  -1.952  1.00  0.00     0.165 A 
ATOM     12  O   UNL     1       8.621  -3.737  -0.011  1.00  0.00    -0.454 OA
ATOM     13  O   UNL     1       8.629  -4.021  -2.191  1.00  0.00    -0.454 OA
ATOM     14  C   UNL     1       8.944  -4.688  -0.993  1.00  0.00     0.468 C 
ENDBRANCH   5   6
ENDBRANCH   1   5
TORSDOF 3
ENDMDL
