@<TRIPOS>MOLECULE
/home/cewinharhar/GITHUB/reincatalyze/data/processed/docking_pred/2023-May-22-1531_sub9_nm5_bs15_s42_ex16_mel10_mts1000_k50_ec02_g099_lra9e-4_lrc1e-3/6e6a373552f8835a6ba7a6c6fa001d8bbefa4498_ligand_9.pdbqt
 14 15 0 0 0
SMALL
GASTEIGER

@<TRIPOS>ATOM
      1  C          5.6780    1.2790   -0.4740 C.3     1  UNL1        0.0800
      2  C          5.3750    2.3380    0.5290 C.2     1  UNL1        0.1300
      3  C          6.1840    3.5830    0.6190 C.3     1  UNL1        0.0870
      4  O          4.4480    2.2120    1.3130 O.2     1  UNL1       -0.3000
      5  C          6.6990    0.2930    0.0570 C.3     1  UNL1        0.0430
      6  C          7.3450   -0.4640   -1.0300 C.2     1  UNL1       -0.0440
      7  C          7.6160    0.1220   -2.2710 C.2     1  UNL1        0.0080
      8  C          7.6950   -1.7800   -0.8300 C.2     1  UNL1        0.0540
      9  C          8.2250   -0.6370   -3.2540 C.2     1  UNL1        0.0510
     10  C          8.3100   -2.5440   -1.8260 C.2     1  UNL1        0.1660
     11  C          8.5770   -1.9680   -3.0480 C.2     1  UNL1        0.1650
     12  O          8.7480   -3.8510   -1.8730 O.2     1  UNL1       -0.4540
     13  O          9.1800   -2.9420   -3.8280 O.2     1  UNL1       -0.4540
     14  C          9.3900   -4.1240   -3.0920 C.3     1  UNL1        0.4680
@<TRIPOS>BOND
     1    13    14    1
     2    13    11    1
     3     9    11    2
     4     9     7    1
     5    14    12    1
     6    11    10    1
     7     7     6    2
     8    12    10    1
     9    10     8    2
    10     6     8    1
    11     6     5    1
    12     1     5    1
    13     1     2    1
    14     2     3    1
    15     2     4    2
