@<TRIPOS>MOLECULE
/home/cewinharhar/GITHUB/reincatalyze/data/processed/docking_pred/2023-May-22-1531_sub9_nm5_bs15_s42_ex16_mel10_mts1000_k50_ec02_g099_lra9e-4_lrc1e-3/6e6a373552f8835a6ba7a6c6fa001d8bbefa4498_ligand_9.pdbqt
 14 15 0 0 0
SMALL
GASTEIGER

@<TRIPOS>ATOM
      1  C          6.0070    1.6430    1.1500 C.3     1  UNL1        0.0800
      2  C          5.4320    0.5450    1.9760 C.2     1  UNL1        0.1300
      3  C          6.2160   -0.6740    2.3100 C.3     1  UNL1        0.0870
      4  O          4.2920    0.6150    2.4040 O.2     1  UNL1       -0.3000
      5  C          5.7300    1.4260   -0.3250 C.3     1  UNL1        0.0430
      6  C          6.8000    0.6480   -0.9740 C.2     1  UNL1       -0.0440
      7  C          8.1450    1.0200   -0.8660 C.2     1  UNL1        0.0080
      8  C          6.4810   -0.4740   -1.7040 C.2     1  UNL1        0.0540
      9  C          9.1070    0.2510   -1.4960 C.2     1  UNL1        0.0510
     10  C          7.4570   -1.2490   -2.3380 C.2     1  UNL1        0.1660
     11  C          8.7810   -0.8830   -2.2340 C.2     1  UNL1        0.1650
     12  O          7.3960   -2.3890   -3.1100 O.2     1  UNL1       -0.4540
     13  O          9.5120   -1.8170   -2.9500 O.2     1  UNL1       -0.4540
     14  C          8.6830   -2.8400   -3.4460 C.3     1  UNL1        0.4680
@<TRIPOS>BOND
     1    14    12    1
     2    14    13    1
     3    12    10    1
     4    13    11    1
     5    10    11    2
     6    10     8    1
     7    11     9    1
     8     8     6    2
     9     9     7    2
    10     6     7    1
    11     6     5    1
    12     5     1    1
    13     1     2    1
    14     2     3    1
    15     2     4    2
