@<TRIPOS>MOLECULE
/home/cewinharhar/GITHUB/reincatalyze/data/processed/docking_pred/2023-May-22-1531_sub9_nm5_bs15_s42_ex16_mel10_mts1000_k50_ec02_g099_lra9e-4_lrc1e-3/6e6a373552f8835a6ba7a6c6fa001d8bbefa4498_ligand_9.pdbqt
 14 15 0 0 0
SMALL
GASTEIGER

@<TRIPOS>ATOM
      1  C          5.4520    2.8610    0.0520 C.3     1  UNL1        0.0800
      2  C          6.2520    3.7770    0.9120 C.2     1  UNL1        0.1300
      3  C          7.1940    4.7710    0.3300 C.3     1  UNL1        0.0870
      4  O          6.1570    3.7380    2.1280 O.2     1  UNL1       -0.3000
      5  C          5.2160    1.5300    0.7370 C.3     1  UNL1        0.0430
      6  C          6.0840    0.4720    0.1900 C.2     1  UNL1       -0.0440
      7  C          6.5010   -0.6120    0.9710 C.2     1  UNL1        0.0080
      8  C          6.4980    0.5400   -1.1210 C.2     1  UNL1        0.0540
      9  C          7.3140   -1.5750    0.4030 C.2     1  UNL1        0.0510
     10  C          7.3190   -0.4370   -1.6910 C.2     1  UNL1        0.1660
     11  C          7.7310   -1.5030   -0.9230 C.2     1  UNL1        0.1650
     12  O          7.8590   -0.5930   -2.9500 O.2     1  UNL1       -0.4540
     13  O          8.5230   -2.3010   -1.7350 O.2     1  UNL1       -0.4540
     14  C          8.5560   -1.8090   -3.0530 C.3     1  UNL1        0.4680
@<TRIPOS>BOND
     1    14    12    1
     2    14    13    1
     3    12    10    1
     4    13    11    1
     5    10     8    1
     6    10    11    2
     7     8     6    2
     8    11     9    1
     9     1     5    1
    10     1     2    1
    11     6     5    1
    12     6     7    1
    13     3     2    1
    14     9     7    2
    15     2     4    2
