@<TRIPOS>MOLECULE
/home/cewinharhar/GITHUB/reincatalyze/data/processed/docking_pred/2023-May-22-1531_sub9_nm5_bs15_s42_ex16_mel10_mts1000_k50_ec02_g099_lra9e-4_lrc1e-3/6eca206a948153dc2868ed9d680cd756ab453321_ligand_9.pdbqt
 14 15 0 0 0
SMALL
GASTEIGER

@<TRIPOS>ATOM
      1  C          5.4420    2.9380    0.0870 C.3     1  UNL1        0.0800
      2  C          6.3060    3.8020    0.9390 C.2     1  UNL1        0.1300
      3  C          7.2700    4.7680    0.3470 C.3     1  UNL1        0.0870
      4  O          6.2460    3.7410    2.1560 O.2     1  UNL1       -0.3000
      5  C          5.1170    1.6300    0.7800 C.3     1  UNL1        0.0430
      6  C          5.9610    0.5260    0.2880 C.2     1  UNL1       -0.0440
      7  C          6.3180   -0.5470    1.1120 C.2     1  UNL1        0.0080
      8  C          6.4130    0.5410   -1.0120 C.2     1  UNL1        0.0540
      9  C          7.1110   -1.5550    0.5950 C.2     1  UNL1        0.0510
     10  C          7.2150   -0.4810   -1.5300 C.2     1  UNL1        0.1660
     11  C          7.5670   -1.5370   -0.7200 C.2     1  UNL1        0.1650
     12  O          7.7830   -0.6930   -2.7680 O.2     1  UNL1       -0.4540
     13  O          8.3510   -2.3860   -1.4850 O.2     1  UNL1       -0.4540
     14  C          8.4390   -1.9350   -2.8160 C.3     1  UNL1        0.4680
@<TRIPOS>BOND
     1    14    12    1
     2    14    13    1
     3    12    10    1
     4    10     8    1
     5    10    11    2
     6    13    11    1
     7     8     6    2
     8    11     9    1
     9     1     5    1
    10     1     2    1
    11     6     5    1
    12     6     7    1
    13     3     2    1
    14     9     7    2
    15     2     4    2
