@<TRIPOS>MOLECULE
/home/cewinharhar/GITHUB/reincatalyze/data/processed/docking_pred/2023-May-22-1531_sub9_nm5_bs15_s42_ex16_mel10_mts1000_k50_ec02_g099_lra9e-4_lrc1e-3/6eca206a948153dc2868ed9d680cd756ab453321_ligand_9.pdbqt
 14 15 0 0 0
SMALL
GASTEIGER

@<TRIPOS>ATOM
      1  C          5.5360    1.9070    1.2720 C.3     1  UNL1        0.0800
      2  C          5.1010    0.6860    2.0060 C.2     1  UNL1        0.1300
      3  C          6.0010   -0.4850    2.1770 C.3     1  UNL1        0.0870
      4  O          3.9830    0.6120    2.4920 O.2     1  UNL1       -0.3000
      5  C          5.4080    1.7230   -0.2270 C.3     1  UNL1        0.0430
      6  C          6.5740    1.0200   -0.7920 C.2     1  UNL1       -0.0440
      7  C          7.8820    1.4530   -0.5460 C.2     1  UNL1        0.0080
      8  C          6.3830   -0.0920   -1.5810 C.2     1  UNL1        0.0540
      9  C          8.9360    0.7530   -1.1030 C.2     1  UNL1        0.0510
     10  C          7.4530   -0.7960   -2.1410 C.2     1  UNL1        0.1660
     11  C          8.7400   -0.3700   -1.9010 C.2     1  UNL1        0.1650
     12  O          7.5240   -1.9130   -2.9470 O.2     1  UNL1       -0.4540
     13  O          9.5830   -1.2430   -2.5700 O.2     1  UNL1       -0.4540
     14  C          8.8580   -2.2890   -3.1720 C.3     1  UNL1        0.4680
@<TRIPOS>BOND
     1    14    12    1
     2    14    13    1
     3    12    10    1
     4    13    11    1
     5    10    11    2
     6    10     8    1
     7    11     9    1
     8     8     6    2
     9     9     7    2
    10     6     7    1
    11     6     5    1
    12     5     1    1
    13     1     2    1
    14     2     3    1
    15     2     4    2
