MODEL 1
REMARK VINA RESULT:      -8.0      0.000      0.000
REMARK SMILES CC(=O)CCc1ccc2c(c1)OCO2
REMARK SMILES IDX 4 1 2 2 1 3 3 4 5 5 6 6 7 7 11 8 8 9 10 10 9 11 12 12 14 13
REMARK SMILES IDX 13 14
REMARK H PARENT
REMARK Flexibility Score: inf
ROOT
ATOM      1  C   UNL     1       5.442   2.938   0.087  1.00  0.00     0.080 C 
ENDROOT
BRANCH   1   2
ATOM      2  C   UNL     1       6.306   3.802   0.939  1.00  0.00     0.130 C 
ATOM      3  C   UNL     1       7.270   4.768   0.347  1.00  0.00     0.087 C 
ATOM      4  O   UNL     1       6.246   3.741   2.156  1.00  0.00    -0.300 OA
ENDBRANCH   1   2
BRANCH   1   5
ATOM      5  C   UNL     1       5.117   1.630   0.780  1.00  0.00     0.043 C 
BRANCH   5   6
ATOM      6  C   UNL     1       5.961   0.526   0.288  1.00  0.00    -0.044 A 
ATOM      7  C   UNL     1       6.318  -0.547   1.112  1.00  0.00     0.008 A 
ATOM      8  C   UNL     1       6.413   0.541  -1.012  1.00  0.00     0.054 A 
ATOM      9  C   UNL     1       7.111  -1.555   0.595  1.00  0.00     0.051 A 
ATOM     10  C   UNL     1       7.215  -0.481  -1.530  1.00  0.00     0.166 A 
ATOM     11  C   UNL     1       7.567  -1.537  -0.720  1.00  0.00     0.165 A 
ATOM     12  O   UNL     1       7.783  -0.693  -2.768  1.00  0.00    -0.454 OA
ATOM     13  O   UNL     1       8.351  -2.386  -1.485  1.00  0.00    -0.454 OA
ATOM     14  C   UNL     1       8.439  -1.935  -2.816  1.00  0.00     0.468 C 
ENDBRANCH   5   6
ENDBRANCH   1   5
TORSDOF 3
ENDMDL
MODEL 2
REMARK VINA RESULT:      -7.8      0.982      1.972
REMARK SMILES CC(=O)CCc1ccc2c(c1)OCO2
REMARK SMILES IDX 4 1 2 2 1 3 3 4 5 5 6 6 7 7 11 8 8 9 10 10 9 11 12 12 14 13
REMARK SMILES IDX 13 14
REMARK H PARENT
REMARK Flexibility Score: inf
ROOT
ATOM      1  C   UNL     1       5.357   3.065   0.157  1.00  0.00     0.080 C 
ENDROOT
BRANCH   1   2
ATOM      2  C   UNL     1       6.291   3.839   1.020  1.00  0.00     0.130 C 
ATOM      3  C   UNL     1       7.293   4.775   0.444  1.00  0.00     0.087 C 
ATOM      4  O   UNL     1       6.260   3.727   2.235  1.00  0.00    -0.300 OA
ENDBRANCH   1   2
BRANCH   1   5
ATOM      5  C   UNL     1       5.035   1.715   0.766  1.00  0.00     0.043 C 
BRANCH   5   6
ATOM      6  C   UNL     1       5.913   0.654   0.239  1.00  0.00    -0.044 A 
ATOM      7  C   UNL     1       6.383   0.679  -1.079  1.00  0.00     0.008 A 
ATOM      8  C   UNL     1       6.288  -0.389   1.055  1.00  0.00     0.054 A 
ATOM      9  C   UNL     1       7.204  -0.343  -1.518  1.00  0.00     0.051 A 
ATOM     10  C   UNL     1       7.119  -1.419   0.606  1.00  0.00     0.166 A 
ATOM     11  C   UNL     1       7.581  -1.396  -0.691  1.00  0.00     0.165 A 
ATOM     12  O   UNL     1       7.626  -2.549   1.213  1.00  0.00    -0.454 OA
ATOM     13  O   UNL     1       8.371  -2.523  -0.855  1.00  0.00    -0.454 OA
ATOM     14  C   UNL     1       8.500  -3.234   0.353  1.00  0.00     0.468 C 
ENDBRANCH   5   6
ENDBRANCH   1   5
TORSDOF 3
ENDMDL
MODEL 3
REMARK VINA RESULT:      -7.6      1.886      2.638
REMARK SMILES CC(=O)CCc1ccc2c(c1)OCO2
REMARK SMILES IDX 4 1 2 2 1 3 3 4 5 5 6 6 7 7 11 8 8 9 10 10 9 11 12 12 14 13
REMARK SMILES IDX 13 14
REMARK H PARENT
REMARK Flexibility Score: inf
ROOT
ATOM      1  C   UNL     1       5.536   1.907   1.272  1.00  0.00     0.080 C 
ENDROOT
BRANCH   1   2
ATOM      2  C   UNL     1       5.101   0.686   2.006  1.00  0.00     0.130 C 
ATOM      3  C   UNL     1       6.001  -0.485   2.177  1.00  0.00     0.087 C 
ATOM      4  O   UNL     1       3.983   0.612   2.492  1.00  0.00    -0.300 OA
ENDBRANCH   1   2
BRANCH   1   5
ATOM      5  C   UNL     1       5.408   1.723  -0.227  1.00  0.00     0.043 C 
BRANCH   5   6
ATOM      6  C   UNL     1       6.574   1.020  -0.792  1.00  0.00    -0.044 A 
ATOM      7  C   UNL     1       7.882   1.453  -0.546  1.00  0.00     0.008 A 
ATOM      8  C   UNL     1       6.383  -0.092  -1.581  1.00  0.00     0.054 A 
ATOM      9  C   UNL     1       8.936   0.753  -1.103  1.00  0.00     0.051 A 
ATOM     10  C   UNL     1       7.453  -0.796  -2.141  1.00  0.00     0.166 A 
ATOM     11  C   UNL     1       8.740  -0.370  -1.901  1.00  0.00     0.165 A 
ATOM     12  O   UNL     1       7.524  -1.913  -2.947  1.00  0.00    -0.454 OA
ATOM     13  O   UNL     1       9.583  -1.243  -2.570  1.00  0.00    -0.454 OA
ATOM     14  C   UNL     1       8.858  -2.289  -3.172  1.00  0.00     0.468 C 
ENDBRANCH   5   6
ENDBRANCH   1   5
TORSDOF 3
ENDMDL
