@<TRIPOS>MOLECULE
/home/cewinharhar/GITHUB/reincatalyze/data/processed/docking_pred/2023-May-22-1531_sub9_nm5_bs15_s42_ex16_mel10_mts1000_k50_ec02_g099_lra9e-4_lrc1e-3/7076afde4386affa59e586c5ec9b2181426a643f_ligand_9.pdbqt
 14 15 0 0 0
SMALL
GASTEIGER

@<TRIPOS>ATOM
      1  C          5.5090    2.8410    0.3310 C.3     1  UNL1        0.0800
      2  C          6.4070    3.7420    1.1050 C.2     1  UNL1        0.1300
      3  C          7.2440    4.7730    0.4370 C.3     1  UNL1        0.0870
      4  O          6.4810    3.6580    2.3210 O.2     1  UNL1       -0.3000
      5  C          5.2990    1.5220    1.0480 C.3     1  UNL1        0.0430
      6  C          6.1140    0.4440    0.4600 C.2     1  UNL1       -0.0440
      7  C          6.4980   -0.6750    1.2070 C.2     1  UNL1        0.0080
      8  C          6.5090    0.5290   -0.8560 C.2     1  UNL1        0.0540
      9  C          7.2620   -1.6560    0.6010 C.2     1  UNL1        0.0510
     10  C          7.2810   -0.4660   -1.4640 C.2     1  UNL1        0.1660
     11  C          7.6610   -1.5670   -0.7290 C.2     1  UNL1        0.1650
     12  O          7.7930   -0.6120   -2.7360 O.2     1  UNL1       -0.4540
     13  O          8.4060   -2.3750   -1.5740 O.2     1  UNL1       -0.4540
     14  C          8.4380   -1.8510   -2.8800 C.3     1  UNL1        0.4680
@<TRIPOS>BOND
     1    14    12    1
     2    14    13    1
     3    12    10    1
     4    13    11    1
     5    10     8    1
     6    10    11    2
     7     8     6    2
     8    11     9    1
     9     1     5    1
    10     1     2    1
    11     3     2    1
    12     6     5    1
    13     6     7    1
    14     9     7    2
    15     2     4    2
