@<TRIPOS>MOLECULE
/home/cewinharhar/GITHUB/reincatalyze/data/processed/docking_pred/2023-May-22-1531_sub9_nm5_bs15_s42_ex16_mel10_mts1000_k50_ec02_g099_lra9e-4_lrc1e-3/7076afde4386affa59e586c5ec9b2181426a643f_ligand_9.pdbqt
 14 15 0 0 0
SMALL
GASTEIGER

@<TRIPOS>ATOM
      1  C          5.7650    1.3710   -0.3370 C.3     1  UNL1        0.0800
      2  C          5.1310    1.3120    1.0090 C.2     1  UNL1        0.1300
      3  C          5.4010    0.1910    1.9500 C.3     1  UNL1        0.0870
      4  O          4.3660    2.1870    1.3810 O.2     1  UNL1       -0.3000
      5  C          7.2570    1.1160   -0.2550 C.3     1  UNL1        0.0430
      6  C          7.6250   -0.1750   -0.8640 C.2     1  UNL1       -0.0440
      7  C          7.7010   -0.3360   -2.2520 C.2     1  UNL1        0.0080
      8  C          7.9050   -1.2540   -0.0570 C.2     1  UNL1        0.0540
      9  C          8.0520   -1.5710   -2.7660 C.2     1  UNL1        0.0510
     10  C          8.2600   -2.5000   -0.5810 C.2     1  UNL1        0.1660
     11  C          8.3340   -2.6600   -1.9470 C.2     1  UNL1        0.1650
     12  O          8.5800   -3.7080    0.0010 O.2     1  UNL1       -0.4540
     13  O          8.7030   -3.9760   -2.1780 O.2     1  UNL1       -0.4540
     14  C          8.9570   -4.6520   -0.9690 C.3     1  UNL1        0.4680
@<TRIPOS>BOND
     1     9     7    1
     2     9    11    2
     3     7     6    2
     4    13    11    1
     5    13    14    1
     6    11    10    1
     7    14    12    1
     8     6     5    1
     9     6     8    1
    10    10     8    2
    11    10    12    1
    12     1     5    1
    13     1     2    1
    14     2     4    2
    15     2     3    1
