MODEL 1
REMARK VINA RESULT:      -7.8      0.000      0.000
REMARK SMILES CC(=O)CCc1ccc2c(c1)OCO2
REMARK SMILES IDX 4 1 2 2 1 3 3 4 5 5 6 6 7 7 11 8 8 9 10 10 9 11 12 12 14 13
REMARK SMILES IDX 13 14
REMARK H PARENT
REMARK Flexibility Score: inf
ROOT
ATOM      1  C   UNL     1       5.509   2.841   0.331  1.00  0.00     0.080 C 
ENDROOT
BRANCH   1   2
ATOM      2  C   UNL     1       6.407   3.742   1.105  1.00  0.00     0.130 C 
ATOM      3  C   UNL     1       7.244   4.773   0.437  1.00  0.00     0.087 C 
ATOM      4  O   UNL     1       6.481   3.658   2.321  1.00  0.00    -0.300 OA
ENDBRANCH   1   2
BRANCH   1   5
ATOM      5  C   UNL     1       5.299   1.522   1.048  1.00  0.00     0.043 C 
BRANCH   5   6
ATOM      6  C   UNL     1       6.114   0.444   0.460  1.00  0.00    -0.044 A 
ATOM      7  C   UNL     1       6.498  -0.675   1.207  1.00  0.00     0.008 A 
ATOM      8  C   UNL     1       6.509   0.529  -0.856  1.00  0.00     0.054 A 
ATOM      9  C   UNL     1       7.262  -1.656   0.601  1.00  0.00     0.051 A 
ATOM     10  C   UNL     1       7.281  -0.466  -1.464  1.00  0.00     0.166 A 
ATOM     11  C   UNL     1       7.661  -1.567  -0.729  1.00  0.00     0.165 A 
ATOM     12  O   UNL     1       7.793  -0.612  -2.736  1.00  0.00    -0.454 OA
ATOM     13  O   UNL     1       8.406  -2.375  -1.574  1.00  0.00    -0.454 OA
ATOM     14  C   UNL     1       8.438  -1.851  -2.880  1.00  0.00     0.468 C 
ENDBRANCH   5   6
ENDBRANCH   1   5
TORSDOF 3
ENDMDL
MODEL 2
REMARK VINA RESULT:      -7.7      1.900      2.636
REMARK SMILES CC(=O)CCc1ccc2c(c1)OCO2
REMARK SMILES IDX 4 1 2 2 1 3 3 4 5 5 6 6 7 7 11 8 8 9 10 10 9 11 12 12 14 13
REMARK SMILES IDX 13 14
REMARK H PARENT
REMARK Flexibility Score: inf
ROOT
ATOM      1  C   UNL     1       5.555   1.919   1.272  1.00  0.00     0.080 C 
ENDROOT
BRANCH   1   2
ATOM      2  C   UNL     1       5.120   0.703   2.013  1.00  0.00     0.130 C 
ATOM      3  C   UNL     1       6.023  -0.464   2.198  1.00  0.00     0.087 C 
ATOM      4  O   UNL     1       4.000   0.629   2.493  1.00  0.00    -0.300 OA
ENDBRANCH   1   2
BRANCH   1   5
ATOM      5  C   UNL     1       5.421   1.729  -0.226  1.00  0.00     0.043 C 
BRANCH   5   6
ATOM      6  C   UNL     1       6.585   1.026  -0.794  1.00  0.00    -0.044 A 
ATOM      7  C   UNL     1       7.894   1.456  -0.547  1.00  0.00     0.008 A 
ATOM      8  C   UNL     1       6.392  -0.083  -1.586  1.00  0.00     0.054 A 
ATOM      9  C   UNL     1       8.947   0.756  -1.106  1.00  0.00     0.051 A 
ATOM     10  C   UNL     1       7.461  -0.788  -2.149  1.00  0.00     0.166 A 
ATOM     11  C   UNL     1       8.749  -0.365  -1.907  1.00  0.00     0.165 A 
ATOM     12  O   UNL     1       7.529  -1.902  -2.958  1.00  0.00    -0.454 OA
ATOM     13  O   UNL     1       9.590  -1.237  -2.579  1.00  0.00    -0.454 OA
ATOM     14  C   UNL     1       8.863  -2.280  -3.184  1.00  0.00     0.468 C 
ENDBRANCH   5   6
ENDBRANCH   1   5
TORSDOF 3
ENDMDL
MODEL 3
REMARK VINA RESULT:      -7.5      1.981      3.015
REMARK SMILES CC(=O)CCc1ccc2c(c1)OCO2
REMARK SMILES IDX 4 1 2 2 1 3 3 4 5 5 6 6 7 7 11 8 8 9 10 10 9 11 12 12 14 13
REMARK SMILES IDX 13 14
REMARK H PARENT
REMARK Flexibility Score: inf
ROOT
ATOM      1  C   UNL     1       5.765   1.371  -0.337  1.00  0.00     0.080 C 
ENDROOT
BRANCH   1   2
ATOM      2  C   UNL     1       5.131   1.312   1.009  1.00  0.00     0.130 C 
ATOM      3  C   UNL     1       5.401   0.191   1.950  1.00  0.00     0.087 C 
ATOM      4  O   UNL     1       4.366   2.187   1.381  1.00  0.00    -0.300 OA
ENDBRANCH   1   2
BRANCH   1   5
ATOM      5  C   UNL     1       7.257   1.116  -0.255  1.00  0.00     0.043 C 
BRANCH   5   6
ATOM      6  C   UNL     1       7.625  -0.175  -0.864  1.00  0.00    -0.044 A 
ATOM      7  C   UNL     1       7.701  -0.336  -2.252  1.00  0.00     0.008 A 
ATOM      8  C   UNL     1       7.905  -1.254  -0.057  1.00  0.00     0.054 A 
ATOM      9  C   UNL     1       8.052  -1.571  -2.766  1.00  0.00     0.051 A 
ATOM     10  C   UNL     1       8.260  -2.500  -0.581  1.00  0.00     0.166 A 
ATOM     11  C   UNL     1       8.334  -2.660  -1.947  1.00  0.00     0.165 A 
ATOM     12  O   UNL     1       8.580  -3.708   0.001  1.00  0.00    -0.454 OA
ATOM     13  O   UNL     1       8.703  -3.976  -2.178  1.00  0.00    -0.454 OA
ATOM     14  C   UNL     1       8.957  -4.652  -0.969  1.00  0.00     0.468 C 
ENDBRANCH   5   6
ENDBRANCH   1   5
TORSDOF 3
ENDMDL
