@<TRIPOS>MOLECULE
/home/cewinharhar/GITHUB/reincatalyze/data/processed/docking_pred/2023-May-22-1531_sub9_nm5_bs15_s42_ex16_mel10_mts1000_k50_ec02_g099_lra9e-4_lrc1e-3/7076afde4386affa59e586c5ec9b2181426a643f_ligand_9.pdbqt
 14 15 0 0 0
SMALL
GASTEIGER

@<TRIPOS>ATOM
      1  C          5.5550    1.9190    1.2720 C.3     1  UNL1        0.0800
      2  C          5.1200    0.7030    2.0130 C.2     1  UNL1        0.1300
      3  C          6.0230   -0.4640    2.1980 C.3     1  UNL1        0.0870
      4  O          4.0000    0.6290    2.4930 O.2     1  UNL1       -0.3000
      5  C          5.4210    1.7290   -0.2260 C.3     1  UNL1        0.0430
      6  C          6.5850    1.0260   -0.7940 C.2     1  UNL1       -0.0440
      7  C          7.8940    1.4560   -0.5470 C.2     1  UNL1        0.0080
      8  C          6.3920   -0.0830   -1.5860 C.2     1  UNL1        0.0540
      9  C          8.9470    0.7560   -1.1060 C.2     1  UNL1        0.0510
     10  C          7.4610   -0.7880   -2.1490 C.2     1  UNL1        0.1660
     11  C          8.7490   -0.3650   -1.9070 C.2     1  UNL1        0.1650
     12  O          7.5290   -1.9020   -2.9580 O.2     1  UNL1       -0.4540
     13  O          9.5900   -1.2370   -2.5790 O.2     1  UNL1       -0.4540
     14  C          8.8630   -2.2800   -3.1840 C.3     1  UNL1        0.4680
@<TRIPOS>BOND
     1    14    12    1
     2    14    13    1
     3    12    10    1
     4    13    11    1
     5    10    11    2
     6    10     8    1
     7    11     9    1
     8     8     6    2
     9     9     7    2
    10     6     7    1
    11     6     5    1
    12     5     1    1
    13     1     2    1
    14     2     3    1
    15     2     4    2
