@<TRIPOS>MOLECULE
/home/cewinharhar/GITHUB/reincatalyze/data/processed/docking_pred/2023-May-22-1531_sub9_nm5_bs15_s42_ex16_mel10_mts1000_k50_ec02_g099_lra9e-4_lrc1e-3/718d515b24ba45f014f0b5b5cf87c837722ccc26_ligand_9.pdbqt
 14 15 0 0 0
SMALL
GASTEIGER

@<TRIPOS>ATOM
      1  C          5.4480    2.9080    0.2420 C.3     1  UNL1        0.0800
      2  C          6.3930    3.7220    1.0550 C.2     1  UNL1        0.1300
      3  C          7.2450    4.7750    0.4410 C.3     1  UNL1        0.0870
      4  O          6.4970    3.5460    2.2590 O.2     1  UNL1       -0.3000
      5  C          5.1660    1.5710    0.9000 C.3     1  UNL1        0.0430
      6  C          6.0110    0.5000    0.3440 C.2     1  UNL1       -0.0440
      7  C          6.3860   -0.6100    1.1100 C.2     1  UNL1        0.0080
      8  C          6.4470    0.5810   -0.9590 C.2     1  UNL1        0.0540
      9  C          7.1800   -1.5850    0.5350 C.2     1  UNL1        0.0510
     10  C          7.2490   -0.4080   -1.5360 C.2     1  UNL1        0.1660
     11  C          7.6200   -1.5000   -0.7820 C.2     1  UNL1        0.1650
     12  O          7.8040   -0.5550   -2.7900 O.2     1  UNL1       -0.4540
     13  O          8.4000   -2.3040   -1.5980 O.2     1  UNL1       -0.4540
     14  C          8.4680   -1.7880   -2.9060 C.3     1  UNL1        0.4680
@<TRIPOS>BOND
     1    14    12    1
     2    14    13    1
     3    12    10    1
     4    13    11    1
     5    10     8    1
     6    10    11    2
     7     8     6    2
     8    11     9    1
     9     1     5    1
    10     1     2    1
    11     6     5    1
    12     6     7    1
    13     3     2    1
    14     9     7    2
    15     2     4    2
