MODEL 1
REMARK VINA RESULT:      -7.9      0.000      0.000
REMARK SMILES CC(=O)CCc1ccc2c(c1)OCO2
REMARK SMILES IDX 4 1 2 2 1 3 3 4 5 5 6 6 7 7 11 8 8 9 10 10 9 11 12 12 14 13
REMARK SMILES IDX 13 14
REMARK H PARENT
REMARK Flexibility Score: inf
ROOT
ATOM      1  C   UNL     1       5.448   2.908   0.242  1.00  0.00     0.080 C 
ENDROOT
BRANCH   1   2
ATOM      2  C   UNL     1       6.393   3.722   1.055  1.00  0.00     0.130 C 
ATOM      3  C   UNL     1       7.245   4.775   0.441  1.00  0.00     0.087 C 
ATOM      4  O   UNL     1       6.497   3.546   2.259  1.00  0.00    -0.300 OA
ENDBRANCH   1   2
BRANCH   1   5
ATOM      5  C   UNL     1       5.166   1.571   0.900  1.00  0.00     0.043 C 
BRANCH   5   6
ATOM      6  C   UNL     1       6.011   0.500   0.344  1.00  0.00    -0.044 A 
ATOM      7  C   UNL     1       6.386  -0.610   1.110  1.00  0.00     0.008 A 
ATOM      8  C   UNL     1       6.447   0.581  -0.959  1.00  0.00     0.054 A 
ATOM      9  C   UNL     1       7.180  -1.585   0.535  1.00  0.00     0.051 A 
ATOM     10  C   UNL     1       7.249  -0.408  -1.536  1.00  0.00     0.166 A 
ATOM     11  C   UNL     1       7.620  -1.500  -0.782  1.00  0.00     0.165 A 
ATOM     12  O   UNL     1       7.804  -0.555  -2.790  1.00  0.00    -0.454 OA
ATOM     13  O   UNL     1       8.400  -2.304  -1.598  1.00  0.00    -0.454 OA
ATOM     14  C   UNL     1       8.468  -1.788  -2.906  1.00  0.00     0.468 C 
ENDBRANCH   5   6
ENDBRANCH   1   5
TORSDOF 3
ENDMDL
MODEL 2
REMARK VINA RESULT:      -7.7      1.883      2.613
REMARK SMILES CC(=O)CCc1ccc2c(c1)OCO2
REMARK SMILES IDX 4 1 2 2 1 3 3 4 5 5 6 6 7 7 11 8 8 9 10 10 9 11 12 12 14 13
REMARK SMILES IDX 13 14
REMARK H PARENT
REMARK Flexibility Score: inf
ROOT
ATOM      1  C   UNL     1       5.508   1.921   1.255  1.00  0.00     0.080 C 
ENDROOT
BRANCH   1   2
ATOM      2  C   UNL     1       5.061   0.710   1.998  1.00  0.00     0.130 C 
ATOM      3  C   UNL     1       5.942  -0.478   2.156  1.00  0.00     0.087 C 
ATOM      4  O   UNL     1       3.951   0.659   2.503  1.00  0.00    -0.300 OA
ENDBRANCH   1   2
BRANCH   1   5
ATOM      5  C   UNL     1       5.384   1.724  -0.243  1.00  0.00     0.043 C 
BRANCH   5   6
ATOM      6  C   UNL     1       6.556   1.025  -0.801  1.00  0.00    -0.044 A 
ATOM      7  C   UNL     1       7.861   1.463  -0.546  1.00  0.00     0.008 A 
ATOM      8  C   UNL     1       6.374  -0.088  -1.590  1.00  0.00     0.054 A 
ATOM      9  C   UNL     1       8.921   0.766  -1.096  1.00  0.00     0.051 A 
ATOM     10  C   UNL     1       7.450  -0.789  -2.143  1.00  0.00     0.166 A 
ATOM     11  C   UNL     1       8.734  -0.358  -1.894  1.00  0.00     0.165 A 
ATOM     12  O   UNL     1       7.529  -1.906  -2.948  1.00  0.00    -0.454 OA
ATOM     13  O   UNL     1       9.584  -1.229  -2.557  1.00  0.00    -0.454 OA
ATOM     14  C   UNL     1       8.866  -2.278  -3.163  1.00  0.00     0.468 C 
ENDBRANCH   5   6
ENDBRANCH   1   5
TORSDOF 3
ENDMDL
MODEL 3
REMARK VINA RESULT:      -7.5      1.967      3.045
REMARK SMILES CC(=O)CCc1ccc2c(c1)OCO2
REMARK SMILES IDX 4 1 2 2 1 3 3 4 5 5 6 6 7 7 11 8 8 9 10 10 9 11 12 12 14 13
REMARK SMILES IDX 13 14
REMARK H PARENT
REMARK Flexibility Score: inf
ROOT
ATOM      1  C   UNL     1       5.728   1.290  -0.323  1.00  0.00     0.080 C 
ENDROOT
BRANCH   1   2
ATOM      2  C   UNL     1       5.185   1.296   1.064  1.00  0.00     0.130 C 
ATOM      3  C   UNL     1       5.341   0.125   1.969  1.00  0.00     0.087 C 
ATOM      4  O   UNL     1       4.591   2.269   1.501  1.00  0.00    -0.300 OA
ENDBRANCH   1   2
BRANCH   1   5
ATOM      5  C   UNL     1       7.231   1.091  -0.324  1.00  0.00     0.043 C 
BRANCH   5   6
ATOM      6  C   UNL     1       7.610  -0.206  -0.915  1.00  0.00    -0.044 A 
ATOM      7  C   UNL     1       7.691  -0.384  -2.301  1.00  0.00     0.008 A 
ATOM      8  C   UNL     1       7.895  -1.272  -0.093  1.00  0.00     0.054 A 
ATOM      9  C   UNL     1       8.052  -1.623  -2.798  1.00  0.00     0.051 A 
ATOM     10  C   UNL     1       8.261  -2.523  -0.600  1.00  0.00     0.166 A 
ATOM     11  C   UNL     1       8.339  -2.700  -1.964  1.00  0.00     0.165 A 
ATOM     12  O   UNL     1       8.587  -3.721  -0.002  1.00  0.00    -0.454 OA
ATOM     13  O   UNL     1       8.718  -4.016  -2.176  1.00  0.00    -0.454 OA
ATOM     14  C   UNL     1       8.973  -4.674  -0.958  1.00  0.00     0.468 C 
ENDBRANCH   5   6
ENDBRANCH   1   5
TORSDOF 3
ENDMDL
