@<TRIPOS>MOLECULE
/home/cewinharhar/GITHUB/reincatalyze/data/processed/docking_pred/2023-May-22-1531_sub9_nm5_bs15_s42_ex16_mel10_mts1000_k50_ec02_g099_lra9e-4_lrc1e-3/73f03501d88ed0f960f592fe5f6124e73644cb01_ligand_9.pdbqt
 14 15 0 0 0
SMALL
GASTEIGER

@<TRIPOS>ATOM
      1  C          5.5490    1.9040    1.2860 C.3     1  UNL1        0.0800
      2  C          5.1250    0.6830    2.0260 C.2     1  UNL1        0.1300
      3  C          6.0330   -0.4840    2.1920 C.3     1  UNL1        0.0870
      4  O          4.0120    0.6040    2.5210 O.2     1  UNL1       -0.3000
      5  C          5.4130    1.7150   -0.2120 C.3     1  UNL1        0.0430
      6  C          6.5800    1.0170   -0.7820 C.2     1  UNL1       -0.0440
      7  C          7.8870    1.4490   -0.5320 C.2     1  UNL1        0.0080
      8  C          6.3900   -0.0890   -1.5790 C.2     1  UNL1        0.0540
      9  C          8.9430    0.7540   -1.0940 C.2     1  UNL1        0.0510
     10  C          7.4610   -0.7880   -2.1440 C.2     1  UNL1        0.1660
     11  C          8.7480   -0.3630   -1.9000 C.2     1  UNL1        0.1650
     12  O          7.5330   -1.8980   -2.9590 O.2     1  UNL1       -0.4540
     13  O          9.5920   -1.2300   -2.5750 O.2     1  UNL1       -0.4540
     14  C          8.8680   -2.2720   -3.1850 C.3     1  UNL1        0.4680
@<TRIPOS>BOND
     1    14    12    1
     2    14    13    1
     3    12    10    1
     4    13    11    1
     5    10    11    2
     6    10     8    1
     7    11     9    1
     8     8     6    2
     9     9     7    2
    10     6     7    1
    11     6     5    1
    12     5     1    1
    13     1     2    1
    14     2     3    1
    15     2     4    2
