MODEL 1
REMARK VINA RESULT:      -7.6      0.000      0.000
REMARK SMILES CC(=O)CCc1ccc2c(c1)OCO2
REMARK SMILES IDX 4 1 2 2 1 3 3 4 5 5 6 6 7 7 11 8 8 9 10 10 9 11 12 12 14 13
REMARK SMILES IDX 13 14
REMARK H PARENT
REMARK Flexibility Score: inf
ROOT
ATOM      1  C   UNL     1       5.549   1.904   1.286  1.00  0.00     0.080 C 
ENDROOT
BRANCH   1   2
ATOM      2  C   UNL     1       5.125   0.683   2.026  1.00  0.00     0.130 C 
ATOM      3  C   UNL     1       6.033  -0.484   2.192  1.00  0.00     0.087 C 
ATOM      4  O   UNL     1       4.012   0.604   2.521  1.00  0.00    -0.300 OA
ENDBRANCH   1   2
BRANCH   1   5
ATOM      5  C   UNL     1       5.413   1.715  -0.212  1.00  0.00     0.043 C 
BRANCH   5   6
ATOM      6  C   UNL     1       6.580   1.017  -0.782  1.00  0.00    -0.044 A 
ATOM      7  C   UNL     1       7.887   1.449  -0.532  1.00  0.00     0.008 A 
ATOM      8  C   UNL     1       6.390  -0.089  -1.579  1.00  0.00     0.054 A 
ATOM      9  C   UNL     1       8.943   0.754  -1.094  1.00  0.00     0.051 A 
ATOM     10  C   UNL     1       7.461  -0.788  -2.144  1.00  0.00     0.166 A 
ATOM     11  C   UNL     1       8.748  -0.363  -1.900  1.00  0.00     0.165 A 
ATOM     12  O   UNL     1       7.533  -1.898  -2.959  1.00  0.00    -0.454 OA
ATOM     13  O   UNL     1       9.592  -1.230  -2.575  1.00  0.00    -0.454 OA
ATOM     14  C   UNL     1       8.868  -2.272  -3.185  1.00  0.00     0.468 C 
ENDBRANCH   5   6
ENDBRANCH   1   5
TORSDOF 3
ENDMDL
MODEL 2
REMARK VINA RESULT:      -7.5      1.932      2.394
REMARK SMILES CC(=O)CCc1ccc2c(c1)OCO2
REMARK SMILES IDX 4 1 2 2 1 3 3 4 5 5 6 6 7 7 11 8 8 9 10 10 9 11 12 12 14 13
REMARK SMILES IDX 13 14
REMARK H PARENT
REMARK Flexibility Score: inf
ROOT
ATOM      1  C   UNL     1       5.753   1.355  -0.330  1.00  0.00     0.080 C 
ENDROOT
BRANCH   1   2
ATOM      2  C   UNL     1       5.121   1.293   1.017  1.00  0.00     0.130 C 
ATOM      3  C   UNL     1       5.375   0.159   1.946  1.00  0.00     0.087 C 
ATOM      4  O   UNL     1       4.372   2.177   1.400  1.00  0.00    -0.300 OA
ENDBRANCH   1   2
BRANCH   1   5
ATOM      5  C   UNL     1       7.246   1.108  -0.251  1.00  0.00     0.043 C 
BRANCH   5   6
ATOM      6  C   UNL     1       7.620  -0.181  -0.859  1.00  0.00    -0.044 A 
ATOM      7  C   UNL     1       7.703  -0.339  -2.247  1.00  0.00     0.008 A 
ATOM      8  C   UNL     1       7.899  -1.261  -0.053  1.00  0.00     0.054 A 
ATOM      9  C   UNL     1       8.060  -1.573  -2.762  1.00  0.00     0.051 A 
ATOM     10  C   UNL     1       8.260  -2.505  -0.578  1.00  0.00     0.166 A 
ATOM     11  C   UNL     1       8.340  -2.662  -1.943  1.00  0.00     0.165 A 
ATOM     12  O   UNL     1       8.580  -3.713   0.004  1.00  0.00    -0.454 OA
ATOM     13  O   UNL     1       8.713  -3.977  -2.174  1.00  0.00    -0.454 OA
ATOM     14  C   UNL     1       8.964  -4.654  -0.966  1.00  0.00     0.468 C 
ENDBRANCH   5   6
ENDBRANCH   1   5
TORSDOF 3
ENDMDL
MODEL 3
REMARK VINA RESULT:      -7.1      2.024      2.583
REMARK SMILES CC(=O)CCc1ccc2c(c1)OCO2
REMARK SMILES IDX 4 1 2 2 1 3 3 4 5 5 6 6 7 7 11 8 8 9 10 10 9 11 12 12 14 13
REMARK SMILES IDX 13 14
REMARK H PARENT
REMARK Flexibility Score: inf
ROOT
ATOM      1  C   UNL     1       5.680   2.533   1.216  1.00  0.00     0.080 C 
ENDROOT
BRANCH   1   2
ATOM      2  C   UNL     1       6.362   3.849   1.072  1.00  0.00     0.130 C 
ATOM      3  C   UNL     1       6.895   4.585   2.250  1.00  0.00     0.087 C 
ATOM      4  O   UNL     1       6.504   4.365  -0.025  1.00  0.00    -0.300 OA
ENDBRANCH   1   2
BRANCH   1   5
ATOM      5  C   UNL     1       5.366   1.925  -0.137  1.00  0.00     0.043 C 
BRANCH   5   6
ATOM      6  C   UNL     1       6.142   0.695  -0.377  1.00  0.00    -0.044 A 
ATOM      7  C   UNL     1       6.348  -0.251   0.633  1.00  0.00     0.008 A 
ATOM      8  C   UNL     1       6.680   0.460  -1.622  1.00  0.00     0.054 A 
ATOM      9  C   UNL     1       7.084  -1.387   0.350  1.00  0.00     0.051 A 
ATOM     10  C   UNL     1       7.423  -0.690  -1.904  1.00  0.00     0.166 A 
ATOM     11  C   UNL     1       7.627  -1.621  -0.910  1.00  0.00     0.165 A 
ATOM     12  O   UNL     1       8.053  -1.147  -3.043  1.00  0.00    -0.454 OA
ATOM     13  O   UNL     1       8.384  -2.641  -1.465  1.00  0.00    -0.454 OA
ATOM     14  C   UNL     1       8.600  -2.424  -2.839  1.00  0.00     0.468 C 
ENDBRANCH   5   6
ENDBRANCH   1   5
TORSDOF 3
ENDMDL
