@<TRIPOS>MOLECULE
/home/cewinharhar/GITHUB/reincatalyze/data/processed/docking_pred/2023-May-22-1531_sub9_nm5_bs15_s42_ex16_mel10_mts1000_k50_ec02_g099_lra9e-4_lrc1e-3/73f03501d88ed0f960f592fe5f6124e73644cb01_ligand_9.pdbqt
 14 15 0 0 0
SMALL
GASTEIGER

@<TRIPOS>ATOM
      1  C          5.6800    2.5330    1.2160 C.3     1  UNL1        0.0800
      2  C          6.3620    3.8490    1.0720 C.2     1  UNL1        0.1300
      3  C          6.8950    4.5850    2.2500 C.3     1  UNL1        0.0870
      4  O          6.5040    4.3650   -0.0250 O.2     1  UNL1       -0.3000
      5  C          5.3660    1.9250   -0.1370 C.3     1  UNL1        0.0430
      6  C          6.1420    0.6950   -0.3770 C.2     1  UNL1       -0.0440
      7  C          6.3480   -0.2510    0.6330 C.2     1  UNL1        0.0080
      8  C          6.6800    0.4600   -1.6220 C.2     1  UNL1        0.0540
      9  C          7.0840   -1.3870    0.3500 C.2     1  UNL1        0.0510
     10  C          7.4230   -0.6900   -1.9040 C.2     1  UNL1        0.1660
     11  C          7.6270   -1.6210   -0.9100 C.2     1  UNL1        0.1650
     12  O          8.0530   -1.1470   -3.0430 O.2     1  UNL1       -0.4540
     13  O          8.3840   -2.6410   -1.4650 O.2     1  UNL1       -0.4540
     14  C          8.6000   -2.4240   -2.8390 C.3     1  UNL1        0.4680
@<TRIPOS>BOND
     1    12    14    1
     2    12    10    1
     3    14    13    1
     4    10     8    1
     5    10    11    2
     6     8     6    2
     7    13    11    1
     8    11     9    1
     9     6     5    1
    10     6     7    1
    11     5     1    1
    12     4     2    2
    13     9     7    2
    14     2     1    1
    15     2     3    1
