@<TRIPOS>MOLECULE
/home/cewinharhar/GITHUB/reincatalyze/data/processed/docking_pred/2023-May-22-1531_sub9_nm5_bs15_s42_ex16_mel10_mts1000_k50_ec02_g099_lra9e-4_lrc1e-3/73f03501d88ed0f960f592fe5f6124e73644cb01_ligand_9.pdbqt
 14 15 0 0 0
SMALL
GASTEIGER

@<TRIPOS>ATOM
      1  C          5.7530    1.3550   -0.3300 C.3     1  UNL1        0.0800
      2  C          5.1210    1.2930    1.0170 C.2     1  UNL1        0.1300
      3  C          5.3750    0.1590    1.9460 C.3     1  UNL1        0.0870
      4  O          4.3720    2.1770    1.4000 O.2     1  UNL1       -0.3000
      5  C          7.2460    1.1080   -0.2510 C.3     1  UNL1        0.0430
      6  C          7.6200   -0.1810   -0.8590 C.2     1  UNL1       -0.0440
      7  C          7.7030   -0.3390   -2.2470 C.2     1  UNL1        0.0080
      8  C          7.8990   -1.2610   -0.0530 C.2     1  UNL1        0.0540
      9  C          8.0600   -1.5730   -2.7620 C.2     1  UNL1        0.0510
     10  C          8.2600   -2.5050   -0.5780 C.2     1  UNL1        0.1660
     11  C          8.3400   -2.6620   -1.9430 C.2     1  UNL1        0.1650
     12  O          8.5800   -3.7130    0.0040 O.2     1  UNL1       -0.4540
     13  O          8.7130   -3.9770   -2.1740 O.2     1  UNL1       -0.4540
     14  C          8.9640   -4.6540   -0.9660 C.3     1  UNL1        0.4680
@<TRIPOS>BOND
     1     9     7    1
     2     9    11    2
     3     7     6    2
     4    13    11    1
     5    13    14    1
     6    11    10    1
     7    14    12    1
     8     6     5    1
     9     6     8    1
    10    10     8    2
    11    10    12    1
    12     1     5    1
    13     1     2    1
    14     2     4    2
    15     2     3    1
