@<TRIPOS>MOLECULE
/home/cewinharhar/GITHUB/reincatalyze/data/processed/docking_pred/2023-May-22-1531_sub9_nm5_bs15_s42_ex16_mel10_mts1000_k50_ec02_g099_lra9e-4_lrc1e-3/7473f82790d6809f011fa27bf7bcba9a4b9bdb46_ligand_9.pdbqt
 14 15 0 0 0
SMALL
GASTEIGER

@<TRIPOS>ATOM
      1  C          5.5330    1.9390    1.2560 C.3     1  UNL1        0.0800
      2  C          5.1150    0.7200    2.0020 C.2     1  UNL1        0.1300
      3  C          6.0340   -0.4340    2.1900 C.3     1  UNL1        0.0870
      4  O          3.9970    0.6330    2.4830 O.2     1  UNL1       -0.3000
      5  C          5.4060    1.7390   -0.2410 C.3     1  UNL1        0.0430
      6  C          6.5710    1.0300   -0.7990 C.2     1  UNL1       -0.0440
      7  C          7.8800    1.4520   -0.5390 C.2     1  UNL1        0.0080
      8  C          6.3790   -0.0770   -1.5940 C.2     1  UNL1        0.0540
      9  C          8.9340    0.7470   -1.0900 C.2     1  UNL1        0.0510
     10  C          7.4490   -0.7870   -2.1480 C.2     1  UNL1        0.1660
     11  C          8.7370   -0.3720   -1.8940 C.2     1  UNL1        0.1650
     12  O          7.5180   -1.9010   -2.9580 O.2     1  UNL1       -0.4540
     13  O          9.5790   -1.2480   -2.5590 O.2     1  UNL1       -0.4540
     14  C          8.8520   -2.2860   -3.1720 C.3     1  UNL1        0.4680
@<TRIPOS>BOND
     1    14    12    1
     2    14    13    1
     3    12    10    1
     4    13    11    1
     5    10    11    2
     6    10     8    1
     7    11     9    1
     8     8     6    2
     9     9     7    2
    10     6     7    1
    11     6     5    1
    12     5     1    1
    13     1     2    1
    14     2     3    1
    15     2     4    2
