@<TRIPOS>MOLECULE
/home/cewinharhar/GITHUB/reincatalyze/data/processed/docking_pred/2023-May-22-1531_sub9_nm5_bs15_s42_ex16_mel10_mts1000_k50_ec02_g099_lra9e-4_lrc1e-3/7473f82790d6809f011fa27bf7bcba9a4b9bdb46_ligand_9.pdbqt
 14 15 0 0 0
SMALL
GASTEIGER

@<TRIPOS>ATOM
      1  C          5.4580    2.9180    0.1230 C.3     1  UNL1        0.0800
      2  C          6.2850    3.8370    0.9540 C.2     1  UNL1        0.1300
      3  C          7.2650    4.7740    0.3410 C.3     1  UNL1        0.0870
      4  O          6.1810    3.8480    2.1690 O.2     1  UNL1       -0.3000
      5  C          5.1820    1.6170    0.8510 C.3     1  UNL1        0.0430
      6  C          6.0090    0.5140    0.3300 C.2     1  UNL1       -0.0440
      7  C          6.3500   -0.5860    1.1250 C.2     1  UNL1        0.0080
      8  C          6.4590    0.5540   -0.9700 C.2     1  UNL1        0.0540
      9  C          7.1270   -1.5930    0.5820 C.2     1  UNL1        0.0510
     10  C          7.2450   -0.4670   -1.5150 C.2     1  UNL1        0.1660
     11  C          7.5810   -1.5480   -0.7320 C.2     1  UNL1        0.1650
     12  O          7.8080   -0.6560   -2.7590 O.2     1  UNL1       -0.4540
     13  O          8.3520   -2.3890   -1.5210 O.2     1  UNL1       -0.4540
     14  C          8.4440   -1.9060   -2.8390 C.3     1  UNL1        0.4680
@<TRIPOS>BOND
     1    14    12    1
     2    14    13    1
     3    12    10    1
     4    13    11    1
     5    10     8    1
     6    10    11    2
     7     8     6    2
     8    11     9    1
     9     1     5    1
    10     1     2    1
    11     6     5    1
    12     6     7    1
    13     3     2    1
    14     9     7    2
    15     2     4    2
