MODEL 1
REMARK VINA RESULT:      -7.9      0.000      0.000
REMARK SMILES CC(=O)CCc1ccc2c(c1)OCO2
REMARK SMILES IDX 4 1 2 2 1 3 3 4 5 5 6 6 7 7 11 8 8 9 10 10 9 11 12 12 14 13
REMARK SMILES IDX 13 14
REMARK H PARENT
REMARK Flexibility Score: inf
ROOT
ATOM      1  C   UNL     1       5.458   2.918   0.123  1.00  0.00     0.080 C 
ENDROOT
BRANCH   1   2
ATOM      2  C   UNL     1       6.285   3.837   0.954  1.00  0.00     0.130 C 
ATOM      3  C   UNL     1       7.265   4.774   0.341  1.00  0.00     0.087 C 
ATOM      4  O   UNL     1       6.181   3.848   2.169  1.00  0.00    -0.300 OA
ENDBRANCH   1   2
BRANCH   1   5
ATOM      5  C   UNL     1       5.182   1.617   0.851  1.00  0.00     0.043 C 
BRANCH   5   6
ATOM      6  C   UNL     1       6.009   0.514   0.330  1.00  0.00    -0.044 A 
ATOM      7  C   UNL     1       6.350  -0.586   1.125  1.00  0.00     0.008 A 
ATOM      8  C   UNL     1       6.459   0.554  -0.970  1.00  0.00     0.054 A 
ATOM      9  C   UNL     1       7.127  -1.593   0.582  1.00  0.00     0.051 A 
ATOM     10  C   UNL     1       7.245  -0.467  -1.515  1.00  0.00     0.166 A 
ATOM     11  C   UNL     1       7.581  -1.548  -0.732  1.00  0.00     0.165 A 
ATOM     12  O   UNL     1       7.808  -0.656  -2.759  1.00  0.00    -0.454 OA
ATOM     13  O   UNL     1       8.352  -2.389  -1.521  1.00  0.00    -0.454 OA
ATOM     14  C   UNL     1       8.444  -1.906  -2.839  1.00  0.00     0.468 C 
ENDBRANCH   5   6
ENDBRANCH   1   5
TORSDOF 3
ENDMDL
MODEL 2
REMARK VINA RESULT:      -7.6      1.890      2.632
REMARK SMILES CC(=O)CCc1ccc2c(c1)OCO2
REMARK SMILES IDX 4 1 2 2 1 3 3 4 5 5 6 6 7 7 11 8 8 9 10 10 9 11 12 12 14 13
REMARK SMILES IDX 13 14
REMARK H PARENT
REMARK Flexibility Score: inf
ROOT
ATOM      1  C   UNL     1       5.533   1.939   1.256  1.00  0.00     0.080 C 
ENDROOT
BRANCH   1   2
ATOM      2  C   UNL     1       5.115   0.720   2.002  1.00  0.00     0.130 C 
ATOM      3  C   UNL     1       6.034  -0.434   2.190  1.00  0.00     0.087 C 
ATOM      4  O   UNL     1       3.997   0.633   2.483  1.00  0.00    -0.300 OA
ENDBRANCH   1   2
BRANCH   1   5
ATOM      5  C   UNL     1       5.406   1.739  -0.241  1.00  0.00     0.043 C 
BRANCH   5   6
ATOM      6  C   UNL     1       6.571   1.030  -0.799  1.00  0.00    -0.044 A 
ATOM      7  C   UNL     1       7.880   1.452  -0.539  1.00  0.00     0.008 A 
ATOM      8  C   UNL     1       6.379  -0.077  -1.594  1.00  0.00     0.054 A 
ATOM      9  C   UNL     1       8.934   0.747  -1.090  1.00  0.00     0.051 A 
ATOM     10  C   UNL     1       7.449  -0.787  -2.148  1.00  0.00     0.166 A 
ATOM     11  C   UNL     1       8.737  -0.372  -1.894  1.00  0.00     0.165 A 
ATOM     12  O   UNL     1       7.518  -1.901  -2.958  1.00  0.00    -0.454 OA
ATOM     13  O   UNL     1       9.579  -1.248  -2.559  1.00  0.00    -0.454 OA
ATOM     14  C   UNL     1       8.852  -2.286  -3.172  1.00  0.00     0.468 C 
ENDBRANCH   5   6
ENDBRANCH   1   5
TORSDOF 3
ENDMDL
MODEL 3
REMARK VINA RESULT:      -7.4      1.947      3.021
REMARK SMILES CC(=O)CCc1ccc2c(c1)OCO2
REMARK SMILES IDX 4 1 2 2 1 3 3 4 5 5 6 6 7 7 11 8 8 9 10 10 9 11 12 12 14 13
REMARK SMILES IDX 13 14
REMARK H PARENT
REMARK Flexibility Score: inf
ROOT
ATOM      1  C   UNL     1       5.734   1.319  -0.335  1.00  0.00     0.080 C 
ENDROOT
BRANCH   1   2
ATOM      2  C   UNL     1       5.178   1.305   1.047  1.00  0.00     0.130 C 
ATOM      3  C   UNL     1       5.380   0.147   1.958  1.00  0.00     0.087 C 
ATOM      4  O   UNL     1       4.535   2.251   1.474  1.00  0.00    -0.300 OA
ENDBRANCH   1   2
BRANCH   1   5
ATOM      5  C   UNL     1       7.235   1.110  -0.326  1.00  0.00     0.043 C 
BRANCH   5   6
ATOM      6  C   UNL     1       7.609  -0.191  -0.909  1.00  0.00    -0.044 A 
ATOM      7  C   UNL     1       7.680  -0.381  -2.293  1.00  0.00     0.008 A 
ATOM      8  C   UNL     1       7.899  -1.252  -0.080  1.00  0.00     0.054 A 
ATOM      9  C   UNL     1       8.037  -1.624  -2.783  1.00  0.00     0.051 A 
ATOM     10  C   UNL     1       8.260  -2.507  -0.580  1.00  0.00     0.166 A 
ATOM     11  C   UNL     1       8.329  -2.694  -1.943  1.00  0.00     0.165 A 
ATOM     12  O   UNL     1       8.589  -3.700   0.026  1.00  0.00    -0.454 OA
ATOM     13  O   UNL     1       8.705  -4.013  -2.147  1.00  0.00    -0.454 OA
ATOM     14  C   UNL     1       8.968  -4.661  -0.926  1.00  0.00     0.468 C 
ENDBRANCH   5   6
ENDBRANCH   1   5
TORSDOF 3
ENDMDL
