@<TRIPOS>MOLECULE
/home/cewinharhar/GITHUB/reincatalyze/data/processed/docking_pred/2023-May-22-1531_sub9_nm5_bs15_s42_ex16_mel10_mts1000_k50_ec02_g099_lra9e-4_lrc1e-3/76d14433275938f70f74ce69856b36729c59e426_ligand_9.pdbqt
 14 15 0 0 0
SMALL
GASTEIGER

@<TRIPOS>ATOM
      1  C          5.5610    1.9030    1.2920 C.3     1  UNL1        0.0800
      2  C          5.1190    0.6840    2.0250 C.2     1  UNL1        0.1300
      3  C          6.0140   -0.4910    2.1980 C.3     1  UNL1        0.0870
      4  O          4.0000    0.6150    2.5090 O.2     1  UNL1       -0.3000
      5  C          5.4250    1.7230   -0.2070 C.3     1  UNL1        0.0430
      6  C          6.5870    1.0220   -0.7810 C.2     1  UNL1       -0.0440
      7  C          7.8960    1.4540   -0.5400 C.2     1  UNL1        0.0080
      8  C          6.3930   -0.0870   -1.5720 C.2     1  UNL1        0.0540
      9  C          8.9480    0.7560   -1.1040 C.2     1  UNL1        0.0510
     10  C          7.4590   -0.7890   -2.1400 C.2     1  UNL1        0.1660
     11  C          8.7480   -0.3640   -1.9050 C.2     1  UNL1        0.1650
     12  O          7.5260   -1.9030   -2.9510 O.2     1  UNL1       -0.4540
     13  O          9.5870   -1.2350   -2.5810 O.2     1  UNL1       -0.4540
     14  C          8.8590   -2.2790   -3.1830 C.3     1  UNL1        0.4680
@<TRIPOS>BOND
     1    14    12    1
     2    14    13    1
     3    12    10    1
     4    13    11    1
     5    10    11    2
     6    10     8    1
     7    11     9    1
     8     8     6    2
     9     9     7    2
    10     6     7    1
    11     6     5    1
    12     5     1    1
    13     1     2    1
    14     2     3    1
    15     2     4    2
