@<TRIPOS>MOLECULE
/home/cewinharhar/GITHUB/reincatalyze/data/processed/docking_pred/2023-May-22-1531_sub9_nm5_bs15_s42_ex16_mel10_mts1000_k50_ec02_g099_lra9e-4_lrc1e-3/76d14433275938f70f74ce69856b36729c59e426_ligand_9.pdbqt
 14 15 0 0 0
SMALL
GASTEIGER

@<TRIPOS>ATOM
      1  C          5.8040    1.3950   -0.3800 C.3     1  UNL1        0.0800
      2  C          5.1320    1.3370    0.9490 C.2     1  UNL1        0.1300
      3  C          5.3790    0.2210    1.9000 C.3     1  UNL1        0.0870
      4  O          4.3540    2.2110    1.2960 O.2     1  UNL1       -0.3000
      5  C          7.2880    1.1140   -0.2590 C.3     1  UNL1        0.0430
      6  C          7.6500   -0.1830   -0.8590 C.2     1  UNL1       -0.0440
      7  C          7.7270   -0.3520   -2.2470 C.2     1  UNL1        0.0080
      8  C          7.9230   -1.2590   -0.0460 C.2     1  UNL1        0.0540
      9  C          8.0720   -1.5910   -2.7530 C.2     1  UNL1        0.0510
     10  C          8.2720   -2.5100   -0.5630 C.2     1  UNL1        0.1660
     11  C          8.3470   -2.6780   -1.9280 C.2     1  UNL1        0.1650
     12  O          8.5830   -3.7170    0.0260 O.2     1  UNL1       -0.4540
     13  O          8.7080   -3.9970   -2.1510 O.2     1  UNL1       -0.4540
     14  C          8.9570   -4.6680   -0.9380 C.3     1  UNL1        0.4680
@<TRIPOS>BOND
     1     9     7    1
     2     9    11    2
     3     7     6    2
     4    13    11    1
     5    13    14    1
     6    11    10    1
     7    14    12    1
     8     6     5    1
     9     6     8    1
    10    10     8    2
    11    10    12    1
    12     1     5    1
    13     1     2    1
    14     2     4    2
    15     2     3    1
