@<TRIPOS>MOLECULE
/home/cewinharhar/GITHUB/reincatalyze/data/processed/docking_pred/2023-May-22-1531_sub9_nm5_bs15_s42_ex16_mel10_mts1000_k50_ec02_g099_lra9e-4_lrc1e-3/76d14433275938f70f74ce69856b36729c59e426_ligand_9.pdbqt
 14 15 0 0 0
SMALL
GASTEIGER

@<TRIPOS>ATOM
      1  C          5.4620    2.9040    0.3520 C.3     1  UNL1        0.0800
      2  C          6.2840    3.9130    1.0750 C.2     1  UNL1        0.1300
      3  C          7.2670    4.7750    0.3640 C.3     1  UNL1        0.0870
      4  O          6.1750    4.0630    2.2820 O.2     1  UNL1       -0.3000
      5  C          5.3410    1.6200    1.1480 C.3     1  UNL1        0.0430
      6  C          6.1100    0.5220    0.5350 C.2     1  UNL1       -0.0440
      7  C          6.5010   -0.6010    1.2730 C.2     1  UNL1        0.0080
      8  C          6.4550    0.5920   -0.7960 C.2     1  UNL1        0.0540
      9  C          7.2210   -1.6000    0.6430 C.2     1  UNL1        0.0510
     10  C          7.1820   -0.4220   -1.4280 C.2     1  UNL1        0.1660
     11  C          7.5690   -1.5260   -0.7020 C.2     1  UNL1        0.1650
     12  O          7.6420   -0.5840   -2.7180 O.2     1  UNL1       -0.4540
     13  O          8.2640   -2.3530   -1.5700 O.2     1  UNL1       -0.4540
     14  C          8.2550   -1.8370   -2.8800 C.3     1  UNL1        0.4680
@<TRIPOS>BOND
     1    14    12    1
     2    14    13    1
     3    12    10    1
     4    13    11    1
     5    10     8    1
     6    10    11    2
     7     8     6    2
     8    11     9    1
     9     1     2    1
    10     1     5    1
    11     3     2    1
    12     6     5    1
    13     6     7    1
    14     9     7    2
    15     2     4    2
