MODEL 1
REMARK VINA RESULT:      -7.7      0.000      0.000
REMARK SMILES CC(=O)CCc1ccc2c(c1)OCO2
REMARK SMILES IDX 4 1 2 2 1 3 3 4 5 5 6 6 7 7 11 8 8 9 10 10 9 11 12 12 14 13
REMARK SMILES IDX 13 14
REMARK H PARENT
REMARK Flexibility Score: inf
ROOT
ATOM      1  C   UNL     1       5.462   2.904   0.352  1.00  0.00     0.080 C 
ENDROOT
BRANCH   1   2
ATOM      2  C   UNL     1       6.284   3.913   1.075  1.00  0.00     0.130 C 
ATOM      3  C   UNL     1       7.267   4.775   0.364  1.00  0.00     0.087 C 
ATOM      4  O   UNL     1       6.175   4.063   2.282  1.00  0.00    -0.300 OA
ENDBRANCH   1   2
BRANCH   1   5
ATOM      5  C   UNL     1       5.341   1.620   1.148  1.00  0.00     0.043 C 
BRANCH   5   6
ATOM      6  C   UNL     1       6.110   0.522   0.535  1.00  0.00    -0.044 A 
ATOM      7  C   UNL     1       6.501  -0.601   1.273  1.00  0.00     0.008 A 
ATOM      8  C   UNL     1       6.455   0.592  -0.796  1.00  0.00     0.054 A 
ATOM      9  C   UNL     1       7.221  -1.600   0.643  1.00  0.00     0.051 A 
ATOM     10  C   UNL     1       7.182  -0.422  -1.428  1.00  0.00     0.166 A 
ATOM     11  C   UNL     1       7.569  -1.526  -0.702  1.00  0.00     0.165 A 
ATOM     12  O   UNL     1       7.642  -0.584  -2.718  1.00  0.00    -0.454 OA
ATOM     13  O   UNL     1       8.264  -2.353  -1.570  1.00  0.00    -0.454 OA
ATOM     14  C   UNL     1       8.255  -1.837  -2.880  1.00  0.00     0.468 C 
ENDBRANCH   5   6
ENDBRANCH   1   5
TORSDOF 3
ENDMDL
MODEL 2
REMARK VINA RESULT:      -7.7      1.931      2.692
REMARK SMILES CC(=O)CCc1ccc2c(c1)OCO2
REMARK SMILES IDX 4 1 2 2 1 3 3 4 5 5 6 6 7 7 11 8 8 9 10 10 9 11 12 12 14 13
REMARK SMILES IDX 13 14
REMARK H PARENT
REMARK Flexibility Score: inf
ROOT
ATOM      1  C   UNL     1       5.561   1.903   1.292  1.00  0.00     0.080 C 
ENDROOT
BRANCH   1   2
ATOM      2  C   UNL     1       5.119   0.684   2.025  1.00  0.00     0.130 C 
ATOM      3  C   UNL     1       6.014  -0.491   2.198  1.00  0.00     0.087 C 
ATOM      4  O   UNL     1       4.000   0.615   2.509  1.00  0.00    -0.300 OA
ENDBRANCH   1   2
BRANCH   1   5
ATOM      5  C   UNL     1       5.425   1.723  -0.207  1.00  0.00     0.043 C 
BRANCH   5   6
ATOM      6  C   UNL     1       6.587   1.022  -0.781  1.00  0.00    -0.044 A 
ATOM      7  C   UNL     1       7.896   1.454  -0.540  1.00  0.00     0.008 A 
ATOM      8  C   UNL     1       6.393  -0.087  -1.572  1.00  0.00     0.054 A 
ATOM      9  C   UNL     1       8.948   0.756  -1.104  1.00  0.00     0.051 A 
ATOM     10  C   UNL     1       7.459  -0.789  -2.140  1.00  0.00     0.166 A 
ATOM     11  C   UNL     1       8.748  -0.364  -1.905  1.00  0.00     0.165 A 
ATOM     12  O   UNL     1       7.526  -1.903  -2.951  1.00  0.00    -0.454 OA
ATOM     13  O   UNL     1       9.587  -1.235  -2.581  1.00  0.00    -0.454 OA
ATOM     14  C   UNL     1       8.859  -2.279  -3.183  1.00  0.00     0.468 C 
ENDBRANCH   5   6
ENDBRANCH   1   5
TORSDOF 3
ENDMDL
MODEL 3
REMARK VINA RESULT:      -7.5      2.011      3.070
REMARK SMILES CC(=O)CCc1ccc2c(c1)OCO2
REMARK SMILES IDX 4 1 2 2 1 3 3 4 5 5 6 6 7 7 11 8 8 9 10 10 9 11 12 12 14 13
REMARK SMILES IDX 13 14
REMARK H PARENT
REMARK Flexibility Score: inf
ROOT
ATOM      1  C   UNL     1       5.804   1.395  -0.380  1.00  0.00     0.080 C 
ENDROOT
BRANCH   1   2
ATOM      2  C   UNL     1       5.132   1.337   0.949  1.00  0.00     0.130 C 
ATOM      3  C   UNL     1       5.379   0.221   1.900  1.00  0.00     0.087 C 
ATOM      4  O   UNL     1       4.354   2.211   1.296  1.00  0.00    -0.300 OA
ENDBRANCH   1   2
BRANCH   1   5
ATOM      5  C   UNL     1       7.288   1.114  -0.259  1.00  0.00     0.043 C 
BRANCH   5   6
ATOM      6  C   UNL     1       7.650  -0.183  -0.859  1.00  0.00    -0.044 A 
ATOM      7  C   UNL     1       7.727  -0.352  -2.247  1.00  0.00     0.008 A 
ATOM      8  C   UNL     1       7.923  -1.259  -0.046  1.00  0.00     0.054 A 
ATOM      9  C   UNL     1       8.072  -1.591  -2.753  1.00  0.00     0.051 A 
ATOM     10  C   UNL     1       8.272  -2.510  -0.563  1.00  0.00     0.166 A 
ATOM     11  C   UNL     1       8.347  -2.678  -1.928  1.00  0.00     0.165 A 
ATOM     12  O   UNL     1       8.583  -3.717   0.026  1.00  0.00    -0.454 OA
ATOM     13  O   UNL     1       8.708  -3.997  -2.151  1.00  0.00    -0.454 OA
ATOM     14  C   UNL     1       8.957  -4.668  -0.938  1.00  0.00     0.468 C 
ENDBRANCH   5   6
ENDBRANCH   1   5
TORSDOF 3
ENDMDL
