MODEL 1
REMARK VINA RESULT:      -7.9      0.000      0.000
REMARK SMILES CC(=O)CCc1ccc2c(c1)OCO2
REMARK SMILES IDX 4 1 2 2 1 3 3 4 5 5 6 6 7 7 11 8 8 9 10 10 9 11 12 12 14 13
REMARK SMILES IDX 13 14
REMARK H PARENT
REMARK Flexibility Score: inf
ROOT
ATOM      1  C   UNL     1       5.505   2.871   0.114  1.00  0.00     0.080 C 
ENDROOT
BRANCH   1   2
ATOM      2  C   UNL     1       6.272   3.785   1.005  1.00  0.00     0.130 C 
ATOM      3  C   UNL     1       7.242   4.774   0.461  1.00  0.00     0.087 C 
ATOM      4  O   UNL     1       6.126   3.748   2.216  1.00  0.00    -0.300 OA
ENDBRANCH   1   2
BRANCH   1   5
ATOM      5  C   UNL     1       5.215   1.550   0.798  1.00  0.00     0.043 C 
BRANCH   5   6
ATOM      6  C   UNL     1       6.061   0.464   0.272  1.00  0.00    -0.044 A 
ATOM      7  C   UNL     1       6.454  -0.613   1.075  1.00  0.00     0.008 A 
ATOM      8  C   UNL     1       6.477   0.498  -1.039  1.00  0.00     0.054 A 
ATOM      9  C   UNL     1       7.248  -1.603   0.526  1.00  0.00     0.051 A 
ATOM     10  C   UNL     1       7.279  -0.506  -1.589  1.00  0.00     0.166 A 
ATOM     11  C   UNL     1       7.668  -1.565  -0.800  1.00  0.00     0.165 A 
ATOM     12  O   UNL     1       7.817  -0.697  -2.844  1.00  0.00    -0.454 OA
ATOM     13  O   UNL     1       8.444  -2.394  -1.595  1.00  0.00    -0.454 OA
ATOM     14  C   UNL     1       8.488  -1.928  -2.923  1.00  0.00     0.468 C 
ENDBRANCH   5   6
ENDBRANCH   1   5
TORSDOF 3
ENDMDL
MODEL 2
REMARK VINA RESULT:      -7.7      1.869      2.587
REMARK SMILES CC(=O)CCc1ccc2c(c1)OCO2
REMARK SMILES IDX 4 1 2 2 1 3 3 4 5 5 6 6 7 7 11 8 8 9 10 10 9 11 12 12 14 13
REMARK SMILES IDX 13 14
REMARK H PARENT
REMARK Flexibility Score: inf
ROOT
ATOM      1  C   UNL     1       5.533   1.916   1.266  1.00  0.00     0.080 C 
ENDROOT
BRANCH   1   2
ATOM      2  C   UNL     1       5.098   0.696   2.002  1.00  0.00     0.130 C 
ATOM      3  C   UNL     1       6.001  -0.473   2.177  1.00  0.00     0.087 C 
ATOM      4  O   UNL     1       3.980   0.621   2.486  1.00  0.00    -0.300 OA
ENDBRANCH   1   2
BRANCH   1   5
ATOM      5  C   UNL     1       5.408   1.729  -0.233  1.00  0.00     0.043 C 
BRANCH   5   6
ATOM      6  C   UNL     1       6.573   1.023  -0.795  1.00  0.00    -0.044 A 
ATOM      7  C   UNL     1       7.881   1.452  -0.543  1.00  0.00     0.008 A 
ATOM      8  C   UNL     1       6.382  -0.087  -1.585  1.00  0.00     0.054 A 
ATOM      9  C   UNL     1       8.936   0.749  -1.096  1.00  0.00     0.051 A 
ATOM     10  C   UNL     1       7.452  -0.795  -2.142  1.00  0.00     0.166 A 
ATOM     11  C   UNL     1       8.739  -0.373  -1.896  1.00  0.00     0.165 A 
ATOM     12  O   UNL     1       7.522  -1.910  -2.949  1.00  0.00    -0.454 OA
ATOM     13  O   UNL     1       9.582  -1.248  -2.563  1.00  0.00    -0.454 OA
ATOM     14  C   UNL     1       8.856  -2.290  -3.169  1.00  0.00     0.468 C 
ENDBRANCH   5   6
ENDBRANCH   1   5
TORSDOF 3
ENDMDL
MODEL 3
REMARK VINA RESULT:      -7.5      1.937      2.986
REMARK SMILES CC(=O)CCc1ccc2c(c1)OCO2
REMARK SMILES IDX 4 1 2 2 1 3 3 4 5 5 6 6 7 7 11 8 8 9 10 10 9 11 12 12 14 13
REMARK SMILES IDX 13 14
REMARK H PARENT
REMARK Flexibility Score: inf
ROOT
ATOM      1  C   UNL     1       5.705   1.288  -0.313  1.00  0.00     0.080 C 
ENDROOT
BRANCH   1   2
ATOM      2  C   UNL     1       5.161   1.279   1.073  1.00  0.00     0.130 C 
ATOM      3  C   UNL     1       5.310   0.097   1.963  1.00  0.00     0.087 C 
ATOM      4  O   UNL     1       4.572   2.250   1.521  1.00  0.00    -0.300 OA
ENDBRANCH   1   2
BRANCH   1   5
ATOM      5  C   UNL     1       7.209   1.100  -0.316  1.00  0.00     0.043 C 
BRANCH   5   6
ATOM      6  C   UNL     1       7.597  -0.195  -0.903  1.00  0.00    -0.044 A 
ATOM      7  C   UNL     1       7.696  -0.372  -2.288  1.00  0.00     0.008 A 
ATOM      8  C   UNL     1       7.875  -1.262  -0.079  1.00  0.00     0.054 A 
ATOM      9  C   UNL     1       8.066  -1.609  -2.781  1.00  0.00     0.051 A 
ATOM     10  C   UNL     1       8.249  -2.511  -0.583  1.00  0.00     0.166 A 
ATOM     11  C   UNL     1       8.344  -2.686  -1.945  1.00  0.00     0.165 A 
ATOM     12  O   UNL     1       8.570  -3.709   0.019  1.00  0.00    -0.454 OA
ATOM     13  O   UNL     1       8.728  -4.002  -2.154  1.00  0.00    -0.454 OA
ATOM     14  C   UNL     1       8.970  -4.660  -0.934  1.00  0.00     0.468 C 
ENDBRANCH   5   6
ENDBRANCH   1   5
TORSDOF 3
ENDMDL
