@<TRIPOS>MOLECULE
/home/cewinharhar/GITHUB/reincatalyze/data/processed/docking_pred/2023-May-22-1531_sub9_nm5_bs15_s42_ex16_mel10_mts1000_k50_ec02_g099_lra9e-4_lrc1e-3/777751631f294be45381376aa4be6161cfc72981_ligand_9.pdbqt
 14 15 0 0 0
SMALL
GASTEIGER

@<TRIPOS>ATOM
      1  C          5.5330    1.9160    1.2660 C.3     1  UNL1        0.0800
      2  C          5.0980    0.6960    2.0020 C.2     1  UNL1        0.1300
      3  C          6.0010   -0.4730    2.1770 C.3     1  UNL1        0.0870
      4  O          3.9800    0.6210    2.4860 O.2     1  UNL1       -0.3000
      5  C          5.4080    1.7290   -0.2330 C.3     1  UNL1        0.0430
      6  C          6.5730    1.0230   -0.7950 C.2     1  UNL1       -0.0440
      7  C          7.8810    1.4520   -0.5430 C.2     1  UNL1        0.0080
      8  C          6.3820   -0.0870   -1.5850 C.2     1  UNL1        0.0540
      9  C          8.9360    0.7490   -1.0960 C.2     1  UNL1        0.0510
     10  C          7.4520   -0.7950   -2.1420 C.2     1  UNL1        0.1660
     11  C          8.7390   -0.3730   -1.8960 C.2     1  UNL1        0.1650
     12  O          7.5220   -1.9100   -2.9490 O.2     1  UNL1       -0.4540
     13  O          9.5820   -1.2480   -2.5630 O.2     1  UNL1       -0.4540
     14  C          8.8560   -2.2900   -3.1690 C.3     1  UNL1        0.4680
@<TRIPOS>BOND
     1    14    12    1
     2    14    13    1
     3    12    10    1
     4    13    11    1
     5    10    11    2
     6    10     8    1
     7    11     9    1
     8     8     6    2
     9     9     7    2
    10     6     7    1
    11     6     5    1
    12     5     1    1
    13     1     2    1
    14     2     3    1
    15     2     4    2
