@<TRIPOS>MOLECULE
/home/cewinharhar/GITHUB/reincatalyze/data/processed/docking_pred/2023-May-22-1531_sub9_nm5_bs15_s42_ex16_mel10_mts1000_k50_ec02_g099_lra9e-4_lrc1e-3/777751631f294be45381376aa4be6161cfc72981_ligand_9.pdbqt
 14 15 0 0 0
SMALL
GASTEIGER

@<TRIPOS>ATOM
      1  C          5.7050    1.2880   -0.3130 C.3     1  UNL1        0.0800
      2  C          5.1610    1.2790    1.0730 C.2     1  UNL1        0.1300
      3  C          5.3100    0.0970    1.9630 C.3     1  UNL1        0.0870
      4  O          4.5720    2.2500    1.5210 O.2     1  UNL1       -0.3000
      5  C          7.2090    1.1000   -0.3160 C.3     1  UNL1        0.0430
      6  C          7.5970   -0.1950   -0.9030 C.2     1  UNL1       -0.0440
      7  C          7.6960   -0.3720   -2.2880 C.2     1  UNL1        0.0080
      8  C          7.8750   -1.2620   -0.0790 C.2     1  UNL1        0.0540
      9  C          8.0660   -1.6090   -2.7810 C.2     1  UNL1        0.0510
     10  C          8.2490   -2.5110   -0.5830 C.2     1  UNL1        0.1660
     11  C          8.3440   -2.6860   -1.9450 C.2     1  UNL1        0.1650
     12  O          8.5700   -3.7090    0.0190 O.2     1  UNL1       -0.4540
     13  O          8.7280   -4.0020   -2.1540 O.2     1  UNL1       -0.4540
     14  C          8.9700   -4.6600   -0.9340 C.3     1  UNL1        0.4680
@<TRIPOS>BOND
     1     9     7    1
     2     9    11    2
     3     7     6    2
     4    13    11    1
     5    13    14    1
     6    11    10    1
     7    14    12    1
     8     6     5    1
     9     6     8    1
    10    10     8    2
    11    10    12    1
    12     5     1    1
    13     1     2    1
    14     2     4    2
    15     2     3    1
