@<TRIPOS>MOLECULE
/home/cewinharhar/GITHUB/reincatalyze/data/processed/docking_pred/2023-May-22-1531_sub9_nm5_bs15_s42_ex16_mel10_mts1000_k50_ec02_g099_lra9e-4_lrc1e-3/777751631f294be45381376aa4be6161cfc72981_ligand_9.pdbqt
 14 15 0 0 0
SMALL
GASTEIGER

@<TRIPOS>ATOM
      1  C          5.5050    2.8710    0.1140 C.3     1  UNL1        0.0800
      2  C          6.2720    3.7850    1.0050 C.2     1  UNL1        0.1300
      3  C          7.2420    4.7740    0.4610 C.3     1  UNL1        0.0870
      4  O          6.1260    3.7480    2.2160 O.2     1  UNL1       -0.3000
      5  C          5.2150    1.5500    0.7980 C.3     1  UNL1        0.0430
      6  C          6.0610    0.4640    0.2720 C.2     1  UNL1       -0.0440
      7  C          6.4540   -0.6130    1.0750 C.2     1  UNL1        0.0080
      8  C          6.4770    0.4980   -1.0390 C.2     1  UNL1        0.0540
      9  C          7.2480   -1.6030    0.5260 C.2     1  UNL1        0.0510
     10  C          7.2790   -0.5060   -1.5890 C.2     1  UNL1        0.1660
     11  C          7.6680   -1.5650   -0.8000 C.2     1  UNL1        0.1650
     12  O          7.8170   -0.6970   -2.8440 O.2     1  UNL1       -0.4540
     13  O          8.4440   -2.3940   -1.5950 O.2     1  UNL1       -0.4540
     14  C          8.4880   -1.9280   -2.9230 C.3     1  UNL1        0.4680
@<TRIPOS>BOND
     1    14    12    1
     2    14    13    1
     3    12    10    1
     4    13    11    1
     5    10     8    1
     6    10    11    2
     7     8     6    2
     8    11     9    1
     9     1     5    1
    10     1     2    1
    11     6     5    1
    12     6     7    1
    13     3     2    1
    14     9     7    2
    15     2     4    2
