@<TRIPOS>MOLECULE
/home/cewinharhar/GITHUB/reincatalyze/data/processed/docking_pred/2023-May-22-1531_sub9_nm5_bs15_s42_ex16_mel10_mts1000_k50_ec02_g099_lra9e-4_lrc1e-3/7e2b2812a39c1bf8d23d6aab3a18bb39f1acac0e_ligand_9.pdbqt
 14 15 0 0 0
SMALL
GASTEIGER

@<TRIPOS>ATOM
      1  C          5.5040    1.9270    1.2670 C.3     1  UNL1        0.0800
      2  C          5.0550    0.7120    2.0020 C.2     1  UNL1        0.1300
      3  C          5.9320   -0.4800    2.1500 C.3     1  UNL1        0.0870
      4  O          3.9450    0.6590    2.5070 O.2     1  UNL1       -0.3000
      5  C          5.3830    1.7400   -0.2320 C.3     1  UNL1        0.0430
      6  C          6.5530    1.0410   -0.7920 C.2     1  UNL1       -0.0440
      7  C          7.8580    1.4790   -0.5390 C.2     1  UNL1        0.0080
      8  C          6.3710   -0.0710   -1.5820 C.2     1  UNL1        0.0540
      9  C          8.9180    0.7830   -1.0910 C.2     1  UNL1        0.0510
     10  C          7.4460   -0.7710   -2.1370 C.2     1  UNL1        0.1660
     11  C          8.7300   -0.3410   -1.8900 C.2     1  UNL1        0.1650
     12  O          7.5240   -1.8870   -2.9440 O.2     1  UNL1       -0.4540
     13  O          9.5800   -1.2100   -2.5550 O.2     1  UNL1       -0.4540
     14  C          8.8610   -2.2580   -3.1610 C.3     1  UNL1        0.4680
@<TRIPOS>BOND
     1    14    12    1
     2    14    13    1
     3    12    10    1
     4    13    11    1
     5    10    11    2
     6    10     8    1
     7    11     9    1
     8     8     6    2
     9     9     7    2
    10     6     7    1
    11     6     5    1
    12     5     1    1
    13     1     2    1
    14     2     3    1
    15     2     4    2
