MODEL 1
REMARK VINA RESULT:      -7.9      0.000      0.000
REMARK SMILES CC(=O)CCc1ccc2c(c1)OCO2
REMARK SMILES IDX 4 1 2 2 1 3 3 4 5 5 6 6 7 7 11 8 8 9 10 10 9 11 12 12 14 13
REMARK SMILES IDX 13 14
REMARK H PARENT
REMARK Flexibility Score: inf
ROOT
ATOM      1  C   UNL     1       5.400   2.902   0.144  1.00  0.00     0.080 C 
ENDROOT
BRANCH   1   2
ATOM      2  C   UNL     1       6.280   3.789   0.954  1.00  0.00     0.130 C 
ATOM      3  C   UNL     1       7.194   4.775   0.316  1.00  0.00     0.087 C 
ATOM      4  O   UNL     1       6.276   3.732   2.173  1.00  0.00    -0.300 OA
ENDBRANCH   1   2
BRANCH   1   5
ATOM      5  C   UNL     1       5.124   1.596   0.862  1.00  0.00     0.043 C 
BRANCH   5   6
ATOM      6  C   UNL     1       5.977   0.505   0.359  1.00  0.00    -0.044 A 
ATOM      7  C   UNL     1       6.370  -0.557   1.182  1.00  0.00     0.008 A 
ATOM      8  C   UNL     1       6.401   0.518  -0.950  1.00  0.00     0.054 A 
ATOM      9  C   UNL     1       7.171  -1.554   0.655  1.00  0.00     0.051 A 
ATOM     10  C   UNL     1       7.210  -0.492  -1.479  1.00  0.00     0.166 A 
ATOM     11  C   UNL     1       7.599  -1.536  -0.670  1.00  0.00     0.165 A 
ATOM     12  O   UNL     1       7.756  -0.702  -2.727  1.00  0.00    -0.454 OA
ATOM     13  O   UNL     1       8.382  -2.375  -1.446  1.00  0.00    -0.454 OA
ATOM     14  C   UNL     1       8.433  -1.932  -2.781  1.00  0.00     0.468 C 
ENDBRANCH   5   6
ENDBRANCH   1   5
TORSDOF 3
ENDMDL
MODEL 2
REMARK VINA RESULT:      -7.7      1.885      2.638
REMARK SMILES CC(=O)CCc1ccc2c(c1)OCO2
REMARK SMILES IDX 4 1 2 2 1 3 3 4 5 5 6 6 7 7 11 8 8 9 10 10 9 11 12 12 14 13
REMARK SMILES IDX 13 14
REMARK H PARENT
REMARK Flexibility Score: inf
ROOT
ATOM      1  C   UNL     1       5.504   1.927   1.267  1.00  0.00     0.080 C 
ENDROOT
BRANCH   1   2
ATOM      2  C   UNL     1       5.055   0.712   2.002  1.00  0.00     0.130 C 
ATOM      3  C   UNL     1       5.932  -0.480   2.150  1.00  0.00     0.087 C 
ATOM      4  O   UNL     1       3.945   0.659   2.507  1.00  0.00    -0.300 OA
ENDBRANCH   1   2
BRANCH   1   5
ATOM      5  C   UNL     1       5.383   1.740  -0.232  1.00  0.00     0.043 C 
BRANCH   5   6
ATOM      6  C   UNL     1       6.553   1.041  -0.792  1.00  0.00    -0.044 A 
ATOM      7  C   UNL     1       7.858   1.479  -0.539  1.00  0.00     0.008 A 
ATOM      8  C   UNL     1       6.371  -0.071  -1.582  1.00  0.00     0.054 A 
ATOM      9  C   UNL     1       8.918   0.783  -1.091  1.00  0.00     0.051 A 
ATOM     10  C   UNL     1       7.446  -0.771  -2.137  1.00  0.00     0.166 A 
ATOM     11  C   UNL     1       8.730  -0.341  -1.890  1.00  0.00     0.165 A 
ATOM     12  O   UNL     1       7.524  -1.887  -2.944  1.00  0.00    -0.454 OA
ATOM     13  O   UNL     1       9.580  -1.210  -2.555  1.00  0.00    -0.454 OA
ATOM     14  C   UNL     1       8.861  -2.258  -3.161  1.00  0.00     0.468 C 
ENDBRANCH   5   6
ENDBRANCH   1   5
TORSDOF 3
ENDMDL
MODEL 3
REMARK VINA RESULT:      -7.6      1.025      1.989
REMARK SMILES CC(=O)CCc1ccc2c(c1)OCO2
REMARK SMILES IDX 4 1 2 2 1 3 3 4 5 5 6 6 7 7 11 8 8 9 10 10 9 11 12 12 14 13
REMARK SMILES IDX 13 14
REMARK H PARENT
REMARK Flexibility Score: inf
ROOT
ATOM      1  C   UNL     1       5.641   2.784  -0.008  1.00  0.00     0.080 C 
ENDROOT
BRANCH   1   2
ATOM      2  C   UNL     1       6.450   3.609   0.931  1.00  0.00     0.130 C 
ATOM      3  C   UNL     1       7.245   4.775   0.460  1.00  0.00     0.087 C 
ATOM      4  O   UNL     1       6.485   3.350   2.123  1.00  0.00    -0.300 OA
ENDBRANCH   1   2
BRANCH   1   5
ATOM      5  C   UNL     1       5.276   1.448   0.608  1.00  0.00     0.043 C 
BRANCH   5   6
ATOM      6  C   UNL     1       6.119   0.357   0.087  1.00  0.00    -0.044 A 
ATOM      7  C   UNL     1       6.485   0.294  -1.263  1.00  0.00     0.008 A 
ATOM      8  C   UNL     1       6.565  -0.627   0.939  1.00  0.00     0.054 A 
ATOM      9  C   UNL     1       7.278  -0.753  -1.695  1.00  0.00     0.051 A 
ATOM     10  C   UNL     1       7.368  -1.683   0.498  1.00  0.00     0.166 A 
ATOM     11  C   UNL     1       7.727  -1.747  -0.830  1.00  0.00     0.165 A 
ATOM     12  O   UNL     1       7.930  -2.768   1.138  1.00  0.00    -0.454 OA
ATOM     13  O   UNL     1       8.511  -2.880  -0.979  1.00  0.00    -0.454 OA
ATOM     14  C   UNL     1       8.740  -3.507   0.260  1.00  0.00     0.468 C 
ENDBRANCH   5   6
ENDBRANCH   1   5
TORSDOF 3
ENDMDL
