@<TRIPOS>MOLECULE
/home/cewinharhar/GITHUB/reincatalyze/data/processed/docking_pred/2023-May-22-1531_sub9_nm5_bs15_s42_ex16_mel10_mts1000_k50_ec02_g099_lra9e-4_lrc1e-3/7e2b2812a39c1bf8d23d6aab3a18bb39f1acac0e_ligand_9.pdbqt
 14 15 0 0 0
SMALL
GASTEIGER

@<TRIPOS>ATOM
      1  C          5.6410    2.7840   -0.0080 C.3     1  UNL1        0.0800
      2  C          6.4500    3.6090    0.9310 C.2     1  UNL1        0.1300
      3  C          7.2450    4.7750    0.4600 C.3     1  UNL1        0.0870
      4  O          6.4850    3.3500    2.1230 O.2     1  UNL1       -0.3000
      5  C          5.2760    1.4480    0.6080 C.3     1  UNL1        0.0430
      6  C          6.1190    0.3570    0.0870 C.2     1  UNL1       -0.0440
      7  C          6.4850    0.2940   -1.2630 C.2     1  UNL1        0.0080
      8  C          6.5650   -0.6270    0.9390 C.2     1  UNL1        0.0540
      9  C          7.2780   -0.7530   -1.6950 C.2     1  UNL1        0.0510
     10  C          7.3680   -1.6830    0.4980 C.2     1  UNL1        0.1660
     11  C          7.7270   -1.7470   -0.8300 C.2     1  UNL1        0.1650
     12  O          7.9300   -2.7680    1.1380 O.2     1  UNL1       -0.4540
     13  O          8.5110   -2.8800   -0.9790 O.2     1  UNL1       -0.4540
     14  C          8.7400   -3.5070    0.2600 C.3     1  UNL1        0.4680
@<TRIPOS>BOND
     1     9     7    1
     2     9    11    2
     3     7     6    2
     4    13    11    1
     5    13    14    1
     6    11    10    1
     7     1     5    1
     8     1     2    1
     9     6     5    1
    10     6     8    1
    11    14    12    1
    12     3     2    1
    13    10     8    2
    14    10    12    1
    15     2     4    2
