@<TRIPOS>MOLECULE
/home/cewinharhar/GITHUB/reincatalyze/data/processed/docking_pred/2023-May-22-1531_sub9_nm5_bs15_s42_ex16_mel10_mts1000_k50_ec02_g099_lra9e-4_lrc1e-3/7e2b2812a39c1bf8d23d6aab3a18bb39f1acac0e_ligand_9.pdbqt
 14 15 0 0 0
SMALL
GASTEIGER

@<TRIPOS>ATOM
      1  C          5.4000    2.9020    0.1440 C.3     1  UNL1        0.0800
      2  C          6.2800    3.7890    0.9540 C.2     1  UNL1        0.1300
      3  C          7.1940    4.7750    0.3160 C.3     1  UNL1        0.0870
      4  O          6.2760    3.7320    2.1730 O.2     1  UNL1       -0.3000
      5  C          5.1240    1.5960    0.8620 C.3     1  UNL1        0.0430
      6  C          5.9770    0.5050    0.3590 C.2     1  UNL1       -0.0440
      7  C          6.3700   -0.5570    1.1820 C.2     1  UNL1        0.0080
      8  C          6.4010    0.5180   -0.9500 C.2     1  UNL1        0.0540
      9  C          7.1710   -1.5540    0.6550 C.2     1  UNL1        0.0510
     10  C          7.2100   -0.4920   -1.4790 C.2     1  UNL1        0.1660
     11  C          7.5990   -1.5360   -0.6700 C.2     1  UNL1        0.1650
     12  O          7.7560   -0.7020   -2.7270 O.2     1  UNL1       -0.4540
     13  O          8.3820   -2.3750   -1.4460 O.2     1  UNL1       -0.4540
     14  C          8.4330   -1.9320   -2.7810 C.3     1  UNL1        0.4680
@<TRIPOS>BOND
     1    14    12    1
     2    14    13    1
     3    12    10    1
     4    10     8    1
     5    10    11    2
     6    13    11    1
     7     8     6    2
     8    11     9    1
     9     1     5    1
    10     1     2    1
    11     3     2    1
    12     6     5    1
    13     6     7    1
    14     9     7    2
    15     2     4    2
