MODEL 1
REMARK VINA RESULT:      -7.9      0.000      0.000
REMARK SMILES CC(=O)CCc1ccc2c(c1)OCO2
REMARK SMILES IDX 4 1 2 2 1 3 3 4 5 5 6 6 7 7 11 8 8 9 10 10 9 11 12 12 14 13
REMARK SMILES IDX 13 14
REMARK H PARENT
REMARK Flexibility Score: inf
ROOT
ATOM      1  C   UNL     1       5.433   2.930   0.137  1.00  0.00     0.080 C 
ENDROOT
BRANCH   1   2
ATOM      2  C   UNL     1       6.381   3.686   1.002  1.00  0.00     0.130 C 
ATOM      3  C   UNL     1       7.238   4.773   0.457  1.00  0.00     0.087 C 
ATOM      4  O   UNL     1       6.482   3.433   2.192  1.00  0.00    -0.300 OA
ENDBRANCH   1   2
BRANCH   1   5
ATOM      5  C   UNL     1       5.062   1.598   0.760  1.00  0.00     0.043 C 
BRANCH   5   6
ATOM      6  C   UNL     1       5.923   0.507   0.270  1.00  0.00    -0.044 A 
ATOM      7  C   UNL     1       6.280  -0.570   1.090  1.00  0.00     0.008 A 
ATOM      8  C   UNL     1       6.392   0.536  -1.024  1.00  0.00     0.054 A 
ATOM      9  C   UNL     1       7.090  -1.565   0.575  1.00  0.00     0.051 A 
ATOM     10  C   UNL     1       7.210  -0.473  -1.540  1.00  0.00     0.166 A 
ATOM     11  C   UNL     1       7.562  -1.532  -0.733  1.00  0.00     0.165 A 
ATOM     12  O   UNL     1       7.796  -0.670  -2.772  1.00  0.00    -0.454 OA
ATOM     13  O   UNL     1       8.365  -2.367  -1.496  1.00  0.00    -0.454 OA
ATOM     14  C   UNL     1       8.465  -1.904  -2.821  1.00  0.00     0.468 C 
ENDBRANCH   5   6
ENDBRANCH   1   5
TORSDOF 3
ENDMDL
MODEL 2
REMARK VINA RESULT:      -7.6      1.862      2.606
REMARK SMILES CC(=O)CCc1ccc2c(c1)OCO2
REMARK SMILES IDX 4 1 2 2 1 3 3 4 5 5 6 6 7 7 11 8 8 9 10 10 9 11 12 12 14 13
REMARK SMILES IDX 13 14
REMARK H PARENT
REMARK Flexibility Score: inf
ROOT
ATOM      1  C   UNL     1       5.535   1.919   1.263  1.00  0.00     0.080 C 
ENDROOT
BRANCH   1   2
ATOM      2  C   UNL     1       5.103   0.700   2.002  1.00  0.00     0.130 C 
ATOM      3  C   UNL     1       6.007  -0.467   2.178  1.00  0.00     0.087 C 
ATOM      4  O   UNL     1       3.986   0.624   2.487  1.00  0.00    -0.300 OA
ENDBRANCH   1   2
BRANCH   1   5
ATOM      5  C   UNL     1       5.408   1.729  -0.235  1.00  0.00     0.043 C 
BRANCH   5   6
ATOM      6  C   UNL     1       6.574   1.023  -0.797  1.00  0.00    -0.044 A 
ATOM      7  C   UNL     1       7.882   1.451  -0.544  1.00  0.00     0.008 A 
ATOM      8  C   UNL     1       6.383  -0.087  -1.588  1.00  0.00     0.054 A 
ATOM      9  C   UNL     1       8.937   0.748  -1.097  1.00  0.00     0.051 A 
ATOM     10  C   UNL     1       7.453  -0.795  -2.144  1.00  0.00     0.166 A 
ATOM     11  C   UNL     1       8.741  -0.373  -1.897  1.00  0.00     0.165 A 
ATOM     12  O   UNL     1       7.524  -1.910  -2.952  1.00  0.00    -0.454 OA
ATOM     13  O   UNL     1       9.584  -1.248  -2.564  1.00  0.00    -0.454 OA
ATOM     14  C   UNL     1       8.858  -2.290  -3.171  1.00  0.00     0.468 C 
ENDBRANCH   5   6
ENDBRANCH   1   5
TORSDOF 3
ENDMDL
MODEL 3
REMARK VINA RESULT:      -7.4      1.947      3.016
REMARK SMILES CC(=O)CCc1ccc2c(c1)OCO2
REMARK SMILES IDX 4 1 2 2 1 3 3 4 5 5 6 6 7 7 11 8 8 9 10 10 9 11 12 12 14 13
REMARK SMILES IDX 13 14
REMARK H PARENT
REMARK Flexibility Score: inf
ROOT
ATOM      1  C   UNL     1       5.747   1.356  -0.290  1.00  0.00     0.080 C 
ENDROOT
BRANCH   1   2
ATOM      2  C   UNL     1       5.132   1.279   1.065  1.00  0.00     0.130 C 
ATOM      3  C   UNL     1       5.321   0.093   1.942  1.00  0.00     0.087 C 
ATOM      4  O   UNL     1       4.451   2.195   1.497  1.00  0.00    -0.300 OA
ENDBRANCH   1   2
BRANCH   1   5
ATOM      5  C   UNL     1       7.242   1.115  -0.230  1.00  0.00     0.043 C 
BRANCH   5   6
ATOM      6  C   UNL     1       7.613  -0.172  -0.845  1.00  0.00    -0.044 A 
ATOM      7  C   UNL     1       7.686  -0.327  -2.234  1.00  0.00     0.008 A 
ATOM      8  C   UNL     1       7.898  -1.254  -0.044  1.00  0.00     0.054 A 
ATOM      9  C   UNL     1       8.040  -1.558  -2.755  1.00  0.00     0.051 A 
ATOM     10  C   UNL     1       8.257  -2.497  -0.575  1.00  0.00     0.166 A 
ATOM     11  C   UNL     1       8.328  -2.650  -1.942  1.00  0.00     0.165 A 
ATOM     12  O   UNL     1       8.582  -3.706   0.001  1.00  0.00    -0.454 OA
ATOM     13  O   UNL     1       8.700  -3.964  -2.179  1.00  0.00    -0.454 OA
ATOM     14  C   UNL     1       8.960  -4.644  -0.974  1.00  0.00     0.468 C 
ENDBRANCH   5   6
ENDBRANCH   1   5
TORSDOF 3
ENDMDL
