@<TRIPOS>MOLECULE
/home/cewinharhar/GITHUB/reincatalyze/data/processed/docking_pred/2023-May-22-1531_sub9_nm5_bs15_s42_ex16_mel10_mts1000_k50_ec02_g099_lra9e-4_lrc1e-3/81487a167534eaf1a49a57d95a0bec7d9495d7bd_ligand_9.pdbqt
 14 15 0 0 0
SMALL
GASTEIGER

@<TRIPOS>ATOM
      1  C          5.4330    2.9300    0.1370 C.3     1  UNL1        0.0800
      2  C          6.3810    3.6860    1.0020 C.2     1  UNL1        0.1300
      3  C          7.2380    4.7730    0.4570 C.3     1  UNL1        0.0870
      4  O          6.4820    3.4330    2.1920 O.2     1  UNL1       -0.3000
      5  C          5.0620    1.5980    0.7600 C.3     1  UNL1        0.0430
      6  C          5.9230    0.5070    0.2700 C.2     1  UNL1       -0.0440
      7  C          6.2800   -0.5700    1.0900 C.2     1  UNL1        0.0080
      8  C          6.3920    0.5360   -1.0240 C.2     1  UNL1        0.0540
      9  C          7.0900   -1.5650    0.5750 C.2     1  UNL1        0.0510
     10  C          7.2100   -0.4730   -1.5400 C.2     1  UNL1        0.1660
     11  C          7.5620   -1.5320   -0.7330 C.2     1  UNL1        0.1650
     12  O          7.7960   -0.6700   -2.7720 O.2     1  UNL1       -0.4540
     13  O          8.3650   -2.3670   -1.4960 O.2     1  UNL1       -0.4540
     14  C          8.4650   -1.9040   -2.8210 C.3     1  UNL1        0.4680
@<TRIPOS>BOND
     1    14    12    1
     2    14    13    1
     3    12    10    1
     4    10     8    1
     5    10    11    2
     6    13    11    1
     7     8     6    2
     8    11     9    1
     9     1     5    1
    10     1     2    1
    11     6     5    1
    12     6     7    1
    13     3     2    1
    14     9     7    2
    15     2     4    2
