@<TRIPOS>MOLECULE
/home/cewinharhar/GITHUB/reincatalyze/data/processed/docking_pred/2023-May-22-1531_sub9_nm5_bs15_s42_ex16_mel10_mts1000_k50_ec02_g099_lra9e-4_lrc1e-3/81487a167534eaf1a49a57d95a0bec7d9495d7bd_ligand_9.pdbqt
 14 15 0 0 0
SMALL
GASTEIGER

@<TRIPOS>ATOM
      1  C          5.7470    1.3560   -0.2900 C.3     1  UNL1        0.0800
      2  C          5.1320    1.2790    1.0650 C.2     1  UNL1        0.1300
      3  C          5.3210    0.0930    1.9420 C.3     1  UNL1        0.0870
      4  O          4.4510    2.1950    1.4970 O.2     1  UNL1       -0.3000
      5  C          7.2420    1.1150   -0.2300 C.3     1  UNL1        0.0430
      6  C          7.6130   -0.1720   -0.8450 C.2     1  UNL1       -0.0440
      7  C          7.6860   -0.3270   -2.2340 C.2     1  UNL1        0.0080
      8  C          7.8980   -1.2540   -0.0440 C.2     1  UNL1        0.0540
      9  C          8.0400   -1.5580   -2.7550 C.2     1  UNL1        0.0510
     10  C          8.2570   -2.4970   -0.5750 C.2     1  UNL1        0.1660
     11  C          8.3280   -2.6500   -1.9420 C.2     1  UNL1        0.1650
     12  O          8.5820   -3.7060    0.0010 O.2     1  UNL1       -0.4540
     13  O          8.7000   -3.9640   -2.1790 O.2     1  UNL1       -0.4540
     14  C          8.9600   -4.6440   -0.9740 C.3     1  UNL1        0.4680
@<TRIPOS>BOND
     1     9     7    1
     2     9    11    2
     3     7     6    2
     4    13    11    1
     5    13    14    1
     6    11    10    1
     7    14    12    1
     8     6     5    1
     9     6     8    1
    10    10     8    2
    11    10    12    1
    12     1     5    1
    13     1     2    1
    14     2     4    2
    15     2     3    1
