@<TRIPOS>MOLECULE
/home/cewinharhar/GITHUB/reincatalyze/data/processed/docking_pred/2023-May-22-1531_sub9_nm5_bs15_s42_ex16_mel10_mts1000_k50_ec02_g099_lra9e-4_lrc1e-3/82066193004a6cdbe54a2a950d109d8cafa96b54_ligand_9.pdbqt
 14 15 0 0 0
SMALL
GASTEIGER

@<TRIPOS>ATOM
      1  C          5.7620    1.3360   -0.3100 C.3     1  UNL1        0.0800
      2  C          5.1580    1.2920    1.0500 C.2     1  UNL1        0.1300
      3  C          5.3260    0.1130    1.9420 C.3     1  UNL1        0.0870
      4  O          4.5020    2.2300    1.4750 O.2     1  UNL1       -0.3000
      5  C          7.2580    1.0950   -0.2570 C.3     1  UNL1        0.0430
      6  C          7.6250   -0.1980   -0.8620 C.2     1  UNL1       -0.0440
      7  C          7.6950   -0.3640   -2.2500 C.2     1  UNL1        0.0080
      8  C          7.9110   -1.2730   -0.0520 C.2     1  UNL1        0.0540
      9  C          8.0460   -1.6000   -2.7610 C.2     1  UNL1        0.0510
     10  C          8.2660   -2.5210   -0.5740 C.2     1  UNL1        0.1660
     11  C          8.3340   -2.6860   -1.9390 C.2     1  UNL1        0.1650
     12  O          8.5910   -3.7260    0.0120 O.2     1  UNL1       -0.4540
     13  O          8.7040   -4.0020   -2.1660 O.2     1  UNL1       -0.4540
     14  C          8.9650   -4.6730   -0.9570 C.3     1  UNL1        0.4680
@<TRIPOS>BOND
     1     9     7    1
     2     9    11    2
     3     7     6    2
     4    13    11    1
     5    13    14    1
     6    11    10    1
     7    14    12    1
     8     6     5    1
     9     6     8    1
    10    10     8    2
    11    10    12    1
    12     1     5    1
    13     1     2    1
    14     2     4    2
    15     2     3    1
