MODEL 1
REMARK VINA RESULT:      -7.7      0.000      0.000
REMARK SMILES CC(=O)CCc1ccc2c(c1)OCO2
REMARK SMILES IDX 4 1 2 2 1 3 3 4 5 5 6 6 7 7 11 8 8 9 10 10 9 11 12 12 14 13
REMARK SMILES IDX 13 14
REMARK H PARENT
REMARK Flexibility Score: inf
ROOT
ATOM      1  C   UNL     1       5.518   1.908   1.274  1.00  0.00     0.080 C 
ENDROOT
BRANCH   1   2
ATOM      2  C   UNL     1       5.070   0.691   2.007  1.00  0.00     0.130 C 
ATOM      3  C   UNL     1       5.947  -0.502   2.147  1.00  0.00     0.087 C 
ATOM      4  O   UNL     1       3.963   0.639   2.516  1.00  0.00    -0.300 OA
ENDBRANCH   1   2
BRANCH   1   5
ATOM      5  C   UNL     1       5.392   1.725  -0.226  1.00  0.00     0.043 C 
BRANCH   5   6
ATOM      6  C   UNL     1       6.560   1.026  -0.791  1.00  0.00    -0.044 A 
ATOM      7  C   UNL     1       7.866   1.467  -0.549  1.00  0.00     0.008 A 
ATOM      8  C   UNL     1       6.374  -0.089  -1.576  1.00  0.00     0.054 A 
ATOM      9  C   UNL     1       8.923   0.771  -1.105  1.00  0.00     0.051 A 
ATOM     10  C   UNL     1       7.446  -0.790  -2.136  1.00  0.00     0.166 A 
ATOM     11  C   UNL     1       8.732  -0.356  -1.898  1.00  0.00     0.165 A 
ATOM     12  O   UNL     1       7.522  -1.908  -2.938  1.00  0.00    -0.454 OA
ATOM     13  O   UNL     1       9.578  -1.227  -2.566  1.00  0.00    -0.454 OA
ATOM     14  C   UNL     1       8.858  -2.278  -3.164  1.00  0.00     0.468 C 
ENDBRANCH   5   6
ENDBRANCH   1   5
TORSDOF 3
ENDMDL
MODEL 2
REMARK VINA RESULT:      -7.5      1.932      2.405
REMARK SMILES CC(=O)CCc1ccc2c(c1)OCO2
REMARK SMILES IDX 4 1 2 2 1 3 3 4 5 5 6 6 7 7 11 8 8 9 10 10 9 11 12 12 14 13
REMARK SMILES IDX 13 14
REMARK H PARENT
REMARK Flexibility Score: inf
ROOT
ATOM      1  C   UNL     1       5.762   1.336  -0.310  1.00  0.00     0.080 C 
ENDROOT
BRANCH   1   2
ATOM      2  C   UNL     1       5.158   1.292   1.050  1.00  0.00     0.130 C 
ATOM      3  C   UNL     1       5.326   0.113   1.942  1.00  0.00     0.087 C 
ATOM      4  O   UNL     1       4.502   2.230   1.475  1.00  0.00    -0.300 OA
ENDBRANCH   1   2
BRANCH   1   5
ATOM      5  C   UNL     1       7.258   1.095  -0.257  1.00  0.00     0.043 C 
BRANCH   5   6
ATOM      6  C   UNL     1       7.625  -0.198  -0.862  1.00  0.00    -0.044 A 
ATOM      7  C   UNL     1       7.695  -0.364  -2.250  1.00  0.00     0.008 A 
ATOM      8  C   UNL     1       7.911  -1.273  -0.052  1.00  0.00     0.054 A 
ATOM      9  C   UNL     1       8.046  -1.600  -2.761  1.00  0.00     0.051 A 
ATOM     10  C   UNL     1       8.266  -2.521  -0.574  1.00  0.00     0.166 A 
ATOM     11  C   UNL     1       8.334  -2.686  -1.939  1.00  0.00     0.165 A 
ATOM     12  O   UNL     1       8.591  -3.726   0.012  1.00  0.00    -0.454 OA
ATOM     13  O   UNL     1       8.704  -4.002  -2.166  1.00  0.00    -0.454 OA
ATOM     14  C   UNL     1       8.965  -4.673  -0.957  1.00  0.00     0.468 C 
ENDBRANCH   5   6
ENDBRANCH   1   5
TORSDOF 3
ENDMDL
MODEL 3
REMARK VINA RESULT:      -7.3      2.206      2.731
REMARK SMILES CC(=O)CCc1ccc2c(c1)OCO2
REMARK SMILES IDX 4 1 2 2 1 3 3 4 5 5 6 6 7 7 11 8 8 9 10 10 9 11 12 12 14 13
REMARK SMILES IDX 13 14
REMARK H PARENT
REMARK Flexibility Score: inf
ROOT
ATOM      1  C   UNL     1       5.649   1.283  -0.517  1.00  0.00     0.080 C 
ENDROOT
BRANCH   1   2
ATOM      2  C   UNL     1       5.370   2.257   0.575  1.00  0.00     0.130 C 
ATOM      3  C   UNL     1       6.151   3.514   0.718  1.00  0.00     0.087 C 
ATOM      4  O   UNL     1       4.486   2.048   1.390  1.00  0.00    -0.300 OA
ENDBRANCH   1   2
BRANCH   1   5
ATOM      5  C   UNL     1       7.140   1.105  -0.728  1.00  0.00     0.043 C 
BRANCH   5   6
ATOM      6  C   UNL     1       7.575  -0.270  -0.426  1.00  0.00    -0.044 A 
ATOM      7  C   UNL     1       7.719  -0.720   0.892  1.00  0.00     0.008 A 
ATOM      8  C   UNL     1       7.846  -1.142  -1.455  1.00  0.00     0.054 A 
ATOM      9  C   UNL     1       8.130  -2.021   1.115  1.00  0.00     0.051 A 
ATOM     10  C   UNL     1       8.261  -2.457  -1.224  1.00  0.00     0.166 A 
ATOM     11  C   UNL     1       8.404  -2.900   0.072  1.00  0.00     0.165 A 
ATOM     12  O   UNL     1       8.587  -3.501  -2.064  1.00  0.00    -0.454 OA
ATOM     13  O   UNL     1       8.819  -4.221   0.000  1.00  0.00    -0.454 OA
ATOM     14  C   UNL     1       8.861  -4.669  -1.333  1.00  0.00     0.468 C 
ENDBRANCH   5   6
ENDBRANCH   1   5
TORSDOF 3
ENDMDL
