@<TRIPOS>MOLECULE
/home/cewinharhar/GITHUB/reincatalyze/data/processed/docking_pred/2023-May-22-1531_sub9_nm5_bs15_s42_ex16_mel10_mts1000_k50_ec02_g099_lra9e-4_lrc1e-3/82066193004a6cdbe54a2a950d109d8cafa96b54_ligand_9.pdbqt
 14 15 0 0 0
SMALL
GASTEIGER

@<TRIPOS>ATOM
      1  C          5.6490    1.2830   -0.5170 C.3     1  UNL1        0.0800
      2  C          5.3700    2.2570    0.5750 C.2     1  UNL1        0.1300
      3  C          6.1510    3.5140    0.7180 C.3     1  UNL1        0.0870
      4  O          4.4860    2.0480    1.3900 O.2     1  UNL1       -0.3000
      5  C          7.1400    1.1050   -0.7280 C.3     1  UNL1        0.0430
      6  C          7.5750   -0.2700   -0.4260 C.2     1  UNL1       -0.0440
      7  C          7.7190   -0.7200    0.8920 C.2     1  UNL1        0.0080
      8  C          7.8460   -1.1420   -1.4550 C.2     1  UNL1        0.0540
      9  C          8.1300   -2.0210    1.1150 C.2     1  UNL1        0.0510
     10  C          8.2610   -2.4570   -1.2240 C.2     1  UNL1        0.1660
     11  C          8.4040   -2.9000    0.0720 C.2     1  UNL1        0.1650
     12  O          8.5870   -3.5010   -2.0640 O.2     1  UNL1       -0.4540
     13  O          8.8190   -4.2210    0.0000 O.2     1  UNL1       -0.4540
     14  C          8.8610   -4.6690   -1.3330 C.3     1  UNL1        0.4680
@<TRIPOS>BOND
     1    12    14    1
     2    12    10    1
     3     8    10    1
     4     8     6    2
     5    14    13    1
     6    10    11    2
     7     5     1    1
     8     5     6    1
     9     1     2    1
    10     6     7    1
    11    13    11    1
    12    11     9    1
    13     2     3    1
    14     2     4    2
    15     7     9    2
