@<TRIPOS>MOLECULE
/home/cewinharhar/GITHUB/reincatalyze/data/processed/docking_pred/2023-May-22-1531_sub9_nm5_bs15_s42_ex16_mel10_mts1000_k50_ec02_g099_lra9e-4_lrc1e-3/82066193004a6cdbe54a2a950d109d8cafa96b54_ligand_9.pdbqt
 14 15 0 0 0
SMALL
GASTEIGER

@<TRIPOS>ATOM
      1  C          5.5180    1.9080    1.2740 C.3     1  UNL1        0.0800
      2  C          5.0700    0.6910    2.0070 C.2     1  UNL1        0.1300
      3  C          5.9470   -0.5020    2.1470 C.3     1  UNL1        0.0870
      4  O          3.9630    0.6390    2.5160 O.2     1  UNL1       -0.3000
      5  C          5.3920    1.7250   -0.2260 C.3     1  UNL1        0.0430
      6  C          6.5600    1.0260   -0.7910 C.2     1  UNL1       -0.0440
      7  C          7.8660    1.4670   -0.5490 C.2     1  UNL1        0.0080
      8  C          6.3740   -0.0890   -1.5760 C.2     1  UNL1        0.0540
      9  C          8.9230    0.7710   -1.1050 C.2     1  UNL1        0.0510
     10  C          7.4460   -0.7900   -2.1360 C.2     1  UNL1        0.1660
     11  C          8.7320   -0.3560   -1.8980 C.2     1  UNL1        0.1650
     12  O          7.5220   -1.9080   -2.9380 O.2     1  UNL1       -0.4540
     13  O          9.5780   -1.2270   -2.5660 O.2     1  UNL1       -0.4540
     14  C          8.8580   -2.2780   -3.1640 C.3     1  UNL1        0.4680
@<TRIPOS>BOND
     1    14    12    1
     2    14    13    1
     3    12    10    1
     4    13    11    1
     5    10    11    2
     6    10     8    1
     7    11     9    1
     8     8     6    2
     9     9     7    2
    10     6     7    1
    11     6     5    1
    12     5     1    1
    13     1     2    1
    14     2     3    1
    15     2     4    2
