MODEL 1
REMARK VINA RESULT:      -7.7      0.000      0.000
REMARK SMILES CC(=O)CCc1ccc2c(c1)OCO2
REMARK SMILES IDX 4 1 2 2 1 3 3 4 5 5 6 6 7 7 11 8 8 9 10 10 9 11 12 12 14 13
REMARK SMILES IDX 13 14
REMARK H PARENT
REMARK Flexibility Score: inf
ROOT
ATOM      1  C   UNL     1       5.401   2.948   0.289  1.00  0.00     0.080 C 
ENDROOT
BRANCH   1   2
ATOM      2  C   UNL     1       6.377   3.777   1.051  1.00  0.00     0.130 C 
ATOM      3  C   UNL     1       7.261   4.762   0.374  1.00  0.00     0.087 C 
ATOM      4  O   UNL     1       6.479   3.669   2.262  1.00  0.00    -0.300 OA
ENDBRANCH   1   2
BRANCH   1   5
ATOM      5  C   UNL     1       5.188   1.601   0.951  1.00  0.00     0.043 C 
BRANCH   5   6
ATOM      6  C   UNL     1       6.017   0.551   0.332  1.00  0.00    -0.044 A 
ATOM      7  C   UNL     1       6.385   0.608  -1.017  1.00  0.00     0.008 A 
ATOM      8  C   UNL     1       6.447  -0.513   1.091  1.00  0.00     0.054 A 
ATOM      9  C   UNL     1       7.166  -0.406  -1.542  1.00  0.00     0.051 A 
ATOM     10  C   UNL     1       7.237  -1.535   0.555  1.00  0.00     0.166 A 
ATOM     11  C   UNL     1       7.599  -1.481  -0.772  1.00  0.00     0.165 A 
ATOM     12  O   UNL     1       7.782  -2.682   1.093  1.00  0.00    -0.454 OA
ATOM     13  O   UNL     1       8.367  -2.606  -1.025  1.00  0.00    -0.454 OA
ATOM     14  C   UNL     1       8.584  -3.348   0.152  1.00  0.00     0.468 C 
ENDBRANCH   5   6
ENDBRANCH   1   5
TORSDOF 3
ENDMDL
MODEL 2
REMARK VINA RESULT:      -7.7      2.384      3.011
REMARK SMILES CC(=O)CCc1ccc2c(c1)OCO2
REMARK SMILES IDX 4 1 2 2 1 3 3 4 5 5 6 6 7 7 11 8 8 9 10 10 9 11 12 12 14 13
REMARK SMILES IDX 13 14
REMARK H PARENT
REMARK Flexibility Score: inf
ROOT
ATOM      1  C   UNL     1       5.547   1.922   1.268  1.00  0.00     0.080 C 
ENDROOT
BRANCH   1   2
ATOM      2  C   UNL     1       5.117   0.702   2.007  1.00  0.00     0.130 C 
ATOM      3  C   UNL     1       6.025  -0.463   2.187  1.00  0.00     0.087 C 
ATOM      4  O   UNL     1       3.999   0.623   2.488  1.00  0.00    -0.300 OA
ENDBRANCH   1   2
BRANCH   1   5
ATOM      5  C   UNL     1       5.418   1.732  -0.231  1.00  0.00     0.043 C 
BRANCH   5   6
ATOM      6  C   UNL     1       6.582   1.024  -0.794  1.00  0.00    -0.044 A 
ATOM      7  C   UNL     1       7.891   1.448  -0.540  1.00  0.00     0.008 A 
ATOM      8  C   UNL     1       6.389  -0.083  -1.589  1.00  0.00     0.054 A 
ATOM      9  C   UNL     1       8.945   0.745  -1.095  1.00  0.00     0.051 A 
ATOM     10  C   UNL     1       7.457  -0.791  -2.147  1.00  0.00     0.166 A 
ATOM     11  C   UNL     1       8.745  -0.374  -1.898  1.00  0.00     0.165 A 
ATOM     12  O   UNL     1       7.525  -1.904  -2.958  1.00  0.00    -0.454 OA
ATOM     13  O   UNL     1       9.586  -1.249  -2.568  1.00  0.00    -0.454 OA
ATOM     14  C   UNL     1       8.858  -2.287  -3.178  1.00  0.00     0.468 C 
ENDBRANCH   5   6
ENDBRANCH   1   5
TORSDOF 3
ENDMDL
MODEL 3
REMARK VINA RESULT:      -7.5      1.805      2.428
REMARK SMILES CC(=O)CCc1ccc2c(c1)OCO2
REMARK SMILES IDX 4 1 2 2 1 3 3 4 5 5 6 6 7 7 11 8 8 9 10 10 9 11 12 12 14 13
REMARK SMILES IDX 13 14
REMARK H PARENT
REMARK Flexibility Score: inf
ROOT
ATOM      1  C   UNL     1       5.751   1.375  -0.325  1.00  0.00     0.080 C 
ENDROOT
BRANCH   1   2
ATOM      2  C   UNL     1       5.126   1.301   1.025  1.00  0.00     0.130 C 
ATOM      3  C   UNL     1       5.406   0.173   1.953  1.00  0.00     0.087 C 
ATOM      4  O   UNL     1       4.361   2.170   1.410  1.00  0.00    -0.300 OA
ENDBRANCH   1   2
BRANCH   1   5
ATOM      5  C   UNL     1       7.244   1.125  -0.256  1.00  0.00     0.043 C 
BRANCH   5   6
ATOM      6  C   UNL     1       7.610  -0.170  -0.855  1.00  0.00    -0.044 A 
ATOM      7  C   UNL     1       7.667  -0.346  -2.243  1.00  0.00     0.008 A 
ATOM      8  C   UNL     1       7.908  -1.239  -0.041  1.00  0.00     0.054 A 
ATOM      9  C   UNL     1       8.017  -1.585  -2.748  1.00  0.00     0.051 A 
ATOM     10  C   UNL     1       8.263  -2.489  -0.557  1.00  0.00     0.166 A 
ATOM     11  C   UNL     1       8.317  -2.663  -1.922  1.00  0.00     0.165 A 
ATOM     12  O   UNL     1       8.597  -3.689   0.034  1.00  0.00    -0.454 OA
ATOM     13  O   UNL     1       8.690  -3.980  -2.143  1.00  0.00    -0.454 OA
ATOM     14  C   UNL     1       8.966  -4.641  -0.931  1.00  0.00     0.468 C 
ENDBRANCH   5   6
ENDBRANCH   1   5
TORSDOF 3
ENDMDL
