@<TRIPOS>MOLECULE
/home/cewinharhar/GITHUB/reincatalyze/data/processed/docking_pred/2023-May-22-1531_sub9_nm5_bs15_s42_ex16_mel10_mts1000_k50_ec02_g099_lra9e-4_lrc1e-3/8651a6b7cbc4b018fd9bb7015a505d05e6fdae34_ligand_9.pdbqt
 14 15 0 0 0
SMALL
GASTEIGER

@<TRIPOS>ATOM
      1  C          5.7510    1.3750   -0.3250 C.3     1  UNL1        0.0800
      2  C          5.1260    1.3010    1.0250 C.2     1  UNL1        0.1300
      3  C          5.4060    0.1730    1.9530 C.3     1  UNL1        0.0870
      4  O          4.3610    2.1700    1.4100 O.2     1  UNL1       -0.3000
      5  C          7.2440    1.1250   -0.2560 C.3     1  UNL1        0.0430
      6  C          7.6100   -0.1700   -0.8550 C.2     1  UNL1       -0.0440
      7  C          7.6670   -0.3460   -2.2430 C.2     1  UNL1        0.0080
      8  C          7.9080   -1.2390   -0.0410 C.2     1  UNL1        0.0540
      9  C          8.0170   -1.5850   -2.7480 C.2     1  UNL1        0.0510
     10  C          8.2630   -2.4890   -0.5570 C.2     1  UNL1        0.1660
     11  C          8.3170   -2.6630   -1.9220 C.2     1  UNL1        0.1650
     12  O          8.5970   -3.6890    0.0340 O.2     1  UNL1       -0.4540
     13  O          8.6900   -3.9800   -2.1430 O.2     1  UNL1       -0.4540
     14  C          8.9660   -4.6410   -0.9310 C.3     1  UNL1        0.4680
@<TRIPOS>BOND
     1     9     7    1
     2     9    11    2
     3     7     6    2
     4    13    11    1
     5    13    14    1
     6    11    10    1
     7    14    12    1
     8     6     5    1
     9     6     8    1
    10    10     8    2
    11    10    12    1
    12     1     5    1
    13     1     2    1
    14     2     4    2
    15     2     3    1
