@<TRIPOS>MOLECULE
/home/cewinharhar/GITHUB/reincatalyze/data/processed/docking_pred/2023-May-22-1531_sub9_nm5_bs15_s42_ex16_mel10_mts1000_k50_ec02_g099_lra9e-4_lrc1e-3/8651a6b7cbc4b018fd9bb7015a505d05e6fdae34_ligand_9.pdbqt
 14 15 0 0 0
SMALL
GASTEIGER

@<TRIPOS>ATOM
      1  C          5.4010    2.9480    0.2890 C.3     1  UNL1        0.0800
      2  C          6.3770    3.7770    1.0510 C.2     1  UNL1        0.1300
      3  C          7.2610    4.7620    0.3740 C.3     1  UNL1        0.0870
      4  O          6.4790    3.6690    2.2620 O.2     1  UNL1       -0.3000
      5  C          5.1880    1.6010    0.9510 C.3     1  UNL1        0.0430
      6  C          6.0170    0.5510    0.3320 C.2     1  UNL1       -0.0440
      7  C          6.3850    0.6080   -1.0170 C.2     1  UNL1        0.0080
      8  C          6.4470   -0.5130    1.0910 C.2     1  UNL1        0.0540
      9  C          7.1660   -0.4060   -1.5420 C.2     1  UNL1        0.0510
     10  C          7.2370   -1.5350    0.5550 C.2     1  UNL1        0.1660
     11  C          7.5990   -1.4810   -0.7720 C.2     1  UNL1        0.1650
     12  O          7.7820   -2.6820    1.0930 O.2     1  UNL1       -0.4540
     13  O          8.3670   -2.6060   -1.0250 O.2     1  UNL1       -0.4540
     14  C          8.5840   -3.3480    0.1520 C.3     1  UNL1        0.4680
@<TRIPOS>BOND
     1     9     7    1
     2     9    11    2
     3    13    11    1
     4    13    14    1
     5     7     6    2
     6    11    10    1
     7    14    12    1
     8     1     5    1
     9     1     2    1
    10     6     5    1
    11     6     8    1
    12     3     2    1
    13    10     8    2
    14    10    12    1
    15     2     4    2
