@<TRIPOS>MOLECULE
/home/cewinharhar/GITHUB/reincatalyze/data/processed/docking_pred/2023-May-22-1531_sub9_nm5_bs15_s42_ex16_mel10_mts1000_k50_ec02_g099_lra9e-4_lrc1e-3/8f3f3cc121b2e0b9b67c9595347d7d2b0dd21437_ligand_9.pdbqt
 14 15 0 0 0
SMALL
GASTEIGER

@<TRIPOS>ATOM
      1  C          5.7400    1.3160   -0.3180 C.3     1  UNL1        0.0800
      2  C          5.1580    1.2900    1.0530 C.2     1  UNL1        0.1300
      3  C          5.3310    0.1190    1.9530 C.3     1  UNL1        0.0870
      4  O          4.5170    2.2370    1.4800 O.2     1  UNL1       -0.3000
      5  C          7.2390    1.0950   -0.2840 C.3     1  UNL1        0.0430
      6  C          7.6130   -0.2010   -0.8780 C.2     1  UNL1       -0.0440
      7  C          7.6820   -0.3790   -2.2640 C.2     1  UNL1        0.0080
      8  C          7.9080   -1.2670   -0.0590 C.2     1  UNL1        0.0540
      9  C          8.0400   -1.6180   -2.7650 C.2     1  UNL1        0.0510
     10  C          8.2700   -2.5170   -0.5700 C.2     1  UNL1        0.1660
     11  C          8.3360   -2.6940   -1.9340 C.2     1  UNL1        0.1650
     12  O          8.6030   -3.7150    0.0260 O.2     1  UNL1       -0.4540
     13  O          8.7130   -4.0100   -2.1490 O.2     1  UNL1       -0.4540
     14  C          8.9810   -4.6680   -0.9340 C.3     1  UNL1        0.4680
@<TRIPOS>BOND
     1     9     7    1
     2     9    11    2
     3     7     6    2
     4    13    11    1
     5    13    14    1
     6    11    10    1
     7    14    12    1
     8     6     5    1
     9     6     8    1
    10    10     8    2
    11    10    12    1
    12     1     5    1
    13     1     2    1
    14     2     4    2
    15     2     3    1
