@<TRIPOS>MOLECULE
/home/cewinharhar/GITHUB/reincatalyze/data/processed/docking_pred/2023-May-22-1531_sub9_nm5_bs15_s42_ex16_mel10_mts1000_k50_ec02_g099_lra9e-4_lrc1e-3/8f3f3cc121b2e0b9b67c9595347d7d2b0dd21437_ligand_9.pdbqt
 14 15 0 0 0
SMALL
GASTEIGER

@<TRIPOS>ATOM
      1  C          7.1150    1.9780    0.1310 C.3     1  UNL1        0.0800
      2  C          5.9700    2.7600    0.6740 C.2     1  UNL1        0.1300
      3  C          4.6220    2.7100    0.0460 C.3     1  UNL1        0.0870
      4  O          6.1060    3.4710    1.6560 O.2     1  UNL1       -0.3000
      5  C          6.6430    0.9010   -0.8250 C.3     1  UNL1        0.0430
      6  C          7.2170   -0.4150   -0.4920 C.2     1  UNL1       -0.0440
      7  C          7.3880   -0.8260    0.8350 C.2     1  UNL1        0.0080
      8  C          7.5950   -1.2700   -1.5020 C.2     1  UNL1        0.0540
      9  C          7.9320   -2.0720    1.0870 C.2     1  UNL1        0.0510
     10  C          8.1440   -2.5290   -1.2420 C.2     1  UNL1        0.1660
     11  C          8.3140   -2.9340    0.0630 C.2     1  UNL1        0.1650
     12  O          8.5930   -3.5450   -2.0590 O.2     1  UNL1       -0.4540
     13  O          8.8680   -4.2030    0.0200 O.2     1  UNL1       -0.4540
     14  C          8.9770   -4.6660   -1.3050 C.3     1  UNL1        0.4680
@<TRIPOS>BOND
     1    12    14    1
     2    12    10    1
     3     8    10    1
     4     8     6    2
     5    14    13    1
     6    10    11    2
     7     5     6    1
     8     5     1    1
     9     6     7    1
    10    13    11    1
    11     3     2    1
    12    11     9    1
    13     1     2    1
    14     2     4    2
    15     7     9    2
