@<TRIPOS>MOLECULE
/home/cewinharhar/GITHUB/reincatalyze/data/processed/docking_pred/2023-May-22-1531_sub9_nm5_bs15_s42_ex16_mel10_mts1000_k50_ec02_g099_lra9e-4_lrc1e-3/8f3f3cc121b2e0b9b67c9595347d7d2b0dd21437_ligand_9.pdbqt
 14 15 0 0 0
SMALL
GASTEIGER

@<TRIPOS>ATOM
      1  C          5.5460    1.9200    1.2670 C.3     1  UNL1        0.0800
      2  C          5.1180    0.7000    2.0070 C.2     1  UNL1        0.1300
      3  C          6.0290   -0.4620    2.1900 C.3     1  UNL1        0.0870
      4  O          3.9990    0.6180    2.4880 O.2     1  UNL1       -0.3000
      5  C          5.4160    1.7290   -0.2310 C.3     1  UNL1        0.0430
      6  C          6.5800    1.0220   -0.7950 C.2     1  UNL1       -0.0440
      7  C          7.8890    1.4500   -0.5450 C.2     1  UNL1        0.0080
      8  C          6.3870   -0.0880   -1.5850 C.2     1  UNL1        0.0540
      9  C          8.9420    0.7460   -1.1010 C.2     1  UNL1        0.0510
     10  C          7.4550   -0.7960   -2.1440 C.2     1  UNL1        0.1660
     11  C          8.7430   -0.3750   -1.9000 C.2     1  UNL1        0.1650
     12  O          7.5230   -1.9120   -2.9510 O.2     1  UNL1       -0.4540
     13  O          9.5840   -1.2510   -2.5680 O.2     1  UNL1       -0.4540
     14  C          8.8570   -2.2930   -3.1730 C.3     1  UNL1        0.4680
@<TRIPOS>BOND
     1    14    12    1
     2    14    13    1
     3    12    10    1
     4    13    11    1
     5    10    11    2
     6    10     8    1
     7    11     9    1
     8     8     6    2
     9     9     7    2
    10     6     7    1
    11     6     5    1
    12     5     1    1
    13     1     2    1
    14     2     3    1
    15     2     4    2
