MODEL 1
REMARK VINA RESULT:      -7.6      0.000      0.000
REMARK SMILES CC(=O)CCc1ccc2c(c1)OCO2
REMARK SMILES IDX 4 1 2 2 1 3 3 4 5 5 6 6 7 7 11 8 8 9 10 10 9 11 12 12 14 13
REMARK SMILES IDX 13 14
REMARK H PARENT
REMARK Flexibility Score: inf
ROOT
ATOM      1  C   UNL     1       5.546   1.920   1.267  1.00  0.00     0.080 C 
ENDROOT
BRANCH   1   2
ATOM      2  C   UNL     1       5.118   0.700   2.007  1.00  0.00     0.130 C 
ATOM      3  C   UNL     1       6.029  -0.462   2.190  1.00  0.00     0.087 C 
ATOM      4  O   UNL     1       3.999   0.618   2.488  1.00  0.00    -0.300 OA
ENDBRANCH   1   2
BRANCH   1   5
ATOM      5  C   UNL     1       5.416   1.729  -0.231  1.00  0.00     0.043 C 
BRANCH   5   6
ATOM      6  C   UNL     1       6.580   1.022  -0.795  1.00  0.00    -0.044 A 
ATOM      7  C   UNL     1       7.889   1.450  -0.545  1.00  0.00     0.008 A 
ATOM      8  C   UNL     1       6.387  -0.088  -1.585  1.00  0.00     0.054 A 
ATOM      9  C   UNL     1       8.942   0.746  -1.101  1.00  0.00     0.051 A 
ATOM     10  C   UNL     1       7.455  -0.796  -2.144  1.00  0.00     0.166 A 
ATOM     11  C   UNL     1       8.743  -0.375  -1.900  1.00  0.00     0.165 A 
ATOM     12  O   UNL     1       7.523  -1.912  -2.951  1.00  0.00    -0.454 OA
ATOM     13  O   UNL     1       9.584  -1.251  -2.568  1.00  0.00    -0.454 OA
ATOM     14  C   UNL     1       8.857  -2.293  -3.173  1.00  0.00     0.468 C 
ENDBRANCH   5   6
ENDBRANCH   1   5
TORSDOF 3
ENDMDL
MODEL 2
REMARK VINA RESULT:      -7.4      1.938      2.405
REMARK SMILES CC(=O)CCc1ccc2c(c1)OCO2
REMARK SMILES IDX 4 1 2 2 1 3 3 4 5 5 6 6 7 7 11 8 8 9 10 10 9 11 12 12 14 13
REMARK SMILES IDX 13 14
REMARK H PARENT
REMARK Flexibility Score: inf
ROOT
ATOM      1  C   UNL     1       5.740   1.316  -0.318  1.00  0.00     0.080 C 
ENDROOT
BRANCH   1   2
ATOM      2  C   UNL     1       5.158   1.290   1.053  1.00  0.00     0.130 C 
ATOM      3  C   UNL     1       5.331   0.119   1.953  1.00  0.00     0.087 C 
ATOM      4  O   UNL     1       4.517   2.237   1.480  1.00  0.00    -0.300 OA
ENDBRANCH   1   2
BRANCH   1   5
ATOM      5  C   UNL     1       7.239   1.095  -0.284  1.00  0.00     0.043 C 
BRANCH   5   6
ATOM      6  C   UNL     1       7.613  -0.201  -0.878  1.00  0.00    -0.044 A 
ATOM      7  C   UNL     1       7.682  -0.379  -2.264  1.00  0.00     0.008 A 
ATOM      8  C   UNL     1       7.908  -1.267  -0.059  1.00  0.00     0.054 A 
ATOM      9  C   UNL     1       8.040  -1.618  -2.765  1.00  0.00     0.051 A 
ATOM     10  C   UNL     1       8.270  -2.517  -0.570  1.00  0.00     0.166 A 
ATOM     11  C   UNL     1       8.336  -2.694  -1.934  1.00  0.00     0.165 A 
ATOM     12  O   UNL     1       8.603  -3.715   0.026  1.00  0.00    -0.454 OA
ATOM     13  O   UNL     1       8.713  -4.010  -2.149  1.00  0.00    -0.454 OA
ATOM     14  C   UNL     1       8.981  -4.668  -0.934  1.00  0.00     0.468 C 
ENDBRANCH   5   6
ENDBRANCH   1   5
TORSDOF 3
ENDMDL
MODEL 3
REMARK VINA RESULT:      -7.0      2.323      2.854
REMARK SMILES CC(=O)CCc1ccc2c(c1)OCO2
REMARK SMILES IDX 4 1 2 2 1 3 3 4 5 5 6 6 7 7 11 8 8 9 10 10 9 11 12 12 14 13
REMARK SMILES IDX 13 14
REMARK H PARENT
REMARK Flexibility Score: inf
ROOT
ATOM      1  C   UNL     1       7.115   1.978   0.131  1.00  0.00     0.080 C 
ENDROOT
BRANCH   1   2
ATOM      2  C   UNL     1       5.970   2.760   0.674  1.00  0.00     0.130 C 
ATOM      3  C   UNL     1       4.622   2.710   0.046  1.00  0.00     0.087 C 
ATOM      4  O   UNL     1       6.106   3.471   1.656  1.00  0.00    -0.300 OA
ENDBRANCH   1   2
BRANCH   1   5
ATOM      5  C   UNL     1       6.643   0.901  -0.825  1.00  0.00     0.043 C 
BRANCH   5   6
ATOM      6  C   UNL     1       7.217  -0.415  -0.492  1.00  0.00    -0.044 A 
ATOM      7  C   UNL     1       7.388  -0.826   0.835  1.00  0.00     0.008 A 
ATOM      8  C   UNL     1       7.595  -1.270  -1.502  1.00  0.00     0.054 A 
ATOM      9  C   UNL     1       7.932  -2.072   1.087  1.00  0.00     0.051 A 
ATOM     10  C   UNL     1       8.144  -2.529  -1.242  1.00  0.00     0.166 A 
ATOM     11  C   UNL     1       8.314  -2.934   0.063  1.00  0.00     0.165 A 
ATOM     12  O   UNL     1       8.593  -3.545  -2.059  1.00  0.00    -0.454 OA
ATOM     13  O   UNL     1       8.868  -4.203   0.020  1.00  0.00    -0.454 OA
ATOM     14  C   UNL     1       8.977  -4.666  -1.305  1.00  0.00     0.468 C 
ENDBRANCH   5   6
ENDBRANCH   1   5
TORSDOF 3
ENDMDL
