@<TRIPOS>MOLECULE
/home/cewinharhar/GITHUB/reincatalyze/data/processed/docking_pred/2023-May-22-1531_sub9_nm5_bs15_s42_ex16_mel10_mts1000_k50_ec02_g099_lra9e-4_lrc1e-3/8f7c925e970cb887b69f6e81c5db99fda922d0ae_ligand_9.pdbqt
 14 15 0 0 0
SMALL
GASTEIGER

@<TRIPOS>ATOM
      1  C          5.5520    1.9260    1.2690 C.3     1  UNL1        0.0800
      2  C          5.1150    0.7160    2.0200 C.2     1  UNL1        0.1300
      3  C          6.0180   -0.4490    2.2170 C.3     1  UNL1        0.0870
      4  O          3.9950    0.6470    2.5000 O.2     1  UNL1       -0.3000
      5  C          5.4140    1.7230   -0.2270 C.3     1  UNL1        0.0430
      6  C          6.5810    1.0220   -0.7930 C.2     1  UNL1       -0.0440
      7  C          7.8870    1.4670   -0.5610 C.2     1  UNL1        0.0080
      8  C          6.3920   -0.1000   -1.5680 C.2     1  UNL1        0.0540
      9  C          8.9430    0.7680   -1.1170 C.2     1  UNL1        0.0510
     10  C          7.4630   -0.8030   -2.1280 C.2     1  UNL1        0.1660
     11  C          8.7490   -0.3650   -1.9010 C.2     1  UNL1        0.1650
     12  O          7.5360   -1.9280   -2.9220 O.2     1  UNL1       -0.4540
     13  O          9.5940   -1.2400   -2.5660 O.2     1  UNL1       -0.4540
     14  C          8.8720   -2.2970   -3.1510 C.3     1  UNL1        0.4680
@<TRIPOS>BOND
     1    14    12    1
     2    14    13    1
     3    12    10    1
     4    13    11    1
     5    10    11    2
     6    10     8    1
     7    11     9    1
     8     8     6    2
     9     9     7    2
    10     6     7    1
    11     6     5    1
    12     5     1    1
    13     1     2    1
    14     2     3    1
    15     2     4    2
