@<TRIPOS>MOLECULE
/home/cewinharhar/GITHUB/reincatalyze/data/processed/docking_pred/2023-May-22-1531_sub9_nm5_bs15_s42_ex16_mel10_mts1000_k50_ec02_g099_lra9e-4_lrc1e-3/8f7c925e970cb887b69f6e81c5db99fda922d0ae_ligand_9.pdbqt
 14 15 0 0 0
SMALL
GASTEIGER

@<TRIPOS>ATOM
      1  C          5.7950    1.4000   -0.3380 C.3     1  UNL1        0.0800
      2  C          5.1380    1.3280    0.9970 C.2     1  UNL1        0.1300
      3  C          5.4150    0.2140    1.9430 C.3     1  UNL1        0.0870
      4  O          4.3480    2.1860    1.3530 O.2     1  UNL1       -0.3000
      5  C          7.2820    1.1230   -0.2360 C.3     1  UNL1        0.0430
      6  C          7.6390   -0.1720   -0.8410 C.2     1  UNL1       -0.0440
      7  C          7.7010   -0.3400   -2.2300 C.2     1  UNL1        0.0080
      8  C          7.9230   -1.2490   -0.0320 C.2     1  UNL1        0.0540
      9  C          8.0430   -1.5780   -2.7410 C.2     1  UNL1        0.0510
     10  C          8.2690   -2.4990   -0.5540 C.2     1  UNL1        0.1660
     11  C          8.3290   -2.6650   -1.9200 C.2     1  UNL1        0.1650
     12  O          8.5900   -3.7050    0.0300 O.2     1  UNL1       -0.4540
     13  O          8.6910   -3.9830   -2.1480 O.2     1  UNL1       -0.4540
     14  C          8.9540   -4.6540   -0.9390 C.3     1  UNL1        0.4680
@<TRIPOS>BOND
     1     9     7    1
     2     9    11    2
     3     7     6    2
     4    13    11    1
     5    13    14    1
     6    11    10    1
     7    14    12    1
     8     6     5    1
     9     6     8    1
    10    10     8    2
    11    10    12    1
    12     1     5    1
    13     1     2    1
    14     2     4    2
    15     2     3    1
