@<TRIPOS>MOLECULE
/home/cewinharhar/GITHUB/reincatalyze/data/processed/docking_pred/2023-May-22-1531_sub9_nm5_bs15_s42_ex16_mel10_mts1000_k50_ec02_g099_lra9e-4_lrc1e-3/8f7c925e970cb887b69f6e81c5db99fda922d0ae_ligand_9.pdbqt
 14 15 0 0 0
SMALL
GASTEIGER

@<TRIPOS>ATOM
      1  C          5.4460    2.9180    0.2060 C.3     1  UNL1        0.0800
      2  C          6.2570    3.8460    1.0430 C.2     1  UNL1        0.1300
      3  C          7.2500    4.7750    0.4410 C.3     1  UNL1        0.0870
      4  O          6.1290    3.8690    2.2560 O.2     1  UNL1       -0.3000
      5  C          5.2110    1.5990    0.9150 C.3     1  UNL1        0.0430
      6  C          6.0340    0.5180    0.3450 C.2     1  UNL1       -0.0440
      7  C          6.3620   -0.6220    1.0870 C.2     1  UNL1        0.0080
      8  C          6.4940    0.6200   -0.9480 C.2     1  UNL1        0.0540
      9  C          7.1380   -1.6050    0.5000 C.2     1  UNL1        0.0510
     10  C          7.2770   -0.3770   -1.5380 C.2     1  UNL1        0.1660
     11  C          7.6020   -1.4990   -0.8080 C.2     1  UNL1        0.1650
     12  O          7.8480   -0.5080   -2.7860 O.2     1  UNL1       -0.4540
     13  O          8.3730   -2.3040   -1.6320 O.2     1  UNL1       -0.4540
     14  C          8.4780   -1.7560   -2.9240 C.3     1  UNL1        0.4680
@<TRIPOS>BOND
     1    14    12    1
     2    14    13    1
     3    12    10    1
     4    13    11    1
     5    10     8    1
     6    10    11    2
     7     8     6    2
     8    11     9    1
     9     1     5    1
    10     1     2    1
    11     6     5    1
    12     6     7    1
    13     3     2    1
    14     9     7    2
    15     2     4    2
