MODEL 1
REMARK VINA RESULT:      -7.8      0.000      0.000
REMARK SMILES CC(=O)CCc1ccc2c(c1)OCO2
REMARK SMILES IDX 4 1 2 2 1 3 3 4 5 5 6 6 7 7 11 8 8 9 10 10 9 11 12 12 14 13
REMARK SMILES IDX 13 14
REMARK H PARENT
REMARK Flexibility Score: inf
ROOT
ATOM      1  C   UNL     1       5.446   2.918   0.206  1.00  0.00     0.080 C 
ENDROOT
BRANCH   1   2
ATOM      2  C   UNL     1       6.257   3.846   1.043  1.00  0.00     0.130 C 
ATOM      3  C   UNL     1       7.250   4.775   0.441  1.00  0.00     0.087 C 
ATOM      4  O   UNL     1       6.129   3.869   2.256  1.00  0.00    -0.300 OA
ENDBRANCH   1   2
BRANCH   1   5
ATOM      5  C   UNL     1       5.211   1.599   0.915  1.00  0.00     0.043 C 
BRANCH   5   6
ATOM      6  C   UNL     1       6.034   0.518   0.345  1.00  0.00    -0.044 A 
ATOM      7  C   UNL     1       6.362  -0.622   1.087  1.00  0.00     0.008 A 
ATOM      8  C   UNL     1       6.494   0.620  -0.948  1.00  0.00     0.054 A 
ATOM      9  C   UNL     1       7.138  -1.605   0.500  1.00  0.00     0.051 A 
ATOM     10  C   UNL     1       7.277  -0.377  -1.538  1.00  0.00     0.166 A 
ATOM     11  C   UNL     1       7.602  -1.499  -0.808  1.00  0.00     0.165 A 
ATOM     12  O   UNL     1       7.848  -0.508  -2.786  1.00  0.00    -0.454 OA
ATOM     13  O   UNL     1       8.373  -2.304  -1.632  1.00  0.00    -0.454 OA
ATOM     14  C   UNL     1       8.478  -1.756  -2.924  1.00  0.00     0.468 C 
ENDBRANCH   5   6
ENDBRANCH   1   5
TORSDOF 3
ENDMDL
MODEL 2
REMARK VINA RESULT:      -7.6      1.887      2.628
REMARK SMILES CC(=O)CCc1ccc2c(c1)OCO2
REMARK SMILES IDX 4 1 2 2 1 3 3 4 5 5 6 6 7 7 11 8 8 9 10 10 9 11 12 12 14 13
REMARK SMILES IDX 13 14
REMARK H PARENT
REMARK Flexibility Score: inf
ROOT
ATOM      1  C   UNL     1       5.552   1.926   1.269  1.00  0.00     0.080 C 
ENDROOT
BRANCH   1   2
ATOM      2  C   UNL     1       5.115   0.716   2.020  1.00  0.00     0.130 C 
ATOM      3  C   UNL     1       6.018  -0.449   2.217  1.00  0.00     0.087 C 
ATOM      4  O   UNL     1       3.995   0.647   2.500  1.00  0.00    -0.300 OA
ENDBRANCH   1   2
BRANCH   1   5
ATOM      5  C   UNL     1       5.414   1.723  -0.227  1.00  0.00     0.043 C 
BRANCH   5   6
ATOM      6  C   UNL     1       6.581   1.022  -0.793  1.00  0.00    -0.044 A 
ATOM      7  C   UNL     1       7.887   1.467  -0.561  1.00  0.00     0.008 A 
ATOM      8  C   UNL     1       6.392  -0.100  -1.568  1.00  0.00     0.054 A 
ATOM      9  C   UNL     1       8.943   0.768  -1.117  1.00  0.00     0.051 A 
ATOM     10  C   UNL     1       7.463  -0.803  -2.128  1.00  0.00     0.166 A 
ATOM     11  C   UNL     1       8.749  -0.365  -1.901  1.00  0.00     0.165 A 
ATOM     12  O   UNL     1       7.536  -1.928  -2.922  1.00  0.00    -0.454 OA
ATOM     13  O   UNL     1       9.594  -1.240  -2.566  1.00  0.00    -0.454 OA
ATOM     14  C   UNL     1       8.872  -2.297  -3.151  1.00  0.00     0.468 C 
ENDBRANCH   5   6
ENDBRANCH   1   5
TORSDOF 3
ENDMDL
MODEL 3
REMARK VINA RESULT:      -7.5      1.984      3.029
REMARK SMILES CC(=O)CCc1ccc2c(c1)OCO2
REMARK SMILES IDX 4 1 2 2 1 3 3 4 5 5 6 6 7 7 11 8 8 9 10 10 9 11 12 12 14 13
REMARK SMILES IDX 13 14
REMARK H PARENT
REMARK Flexibility Score: inf
ROOT
ATOM      1  C   UNL     1       5.795   1.400  -0.338  1.00  0.00     0.080 C 
ENDROOT
BRANCH   1   2
ATOM      2  C   UNL     1       5.138   1.328   0.997  1.00  0.00     0.130 C 
ATOM      3  C   UNL     1       5.415   0.214   1.943  1.00  0.00     0.087 C 
ATOM      4  O   UNL     1       4.348   2.186   1.353  1.00  0.00    -0.300 OA
ENDBRANCH   1   2
BRANCH   1   5
ATOM      5  C   UNL     1       7.282   1.123  -0.236  1.00  0.00     0.043 C 
BRANCH   5   6
ATOM      6  C   UNL     1       7.639  -0.172  -0.841  1.00  0.00    -0.044 A 
ATOM      7  C   UNL     1       7.701  -0.340  -2.230  1.00  0.00     0.008 A 
ATOM      8  C   UNL     1       7.923  -1.249  -0.032  1.00  0.00     0.054 A 
ATOM      9  C   UNL     1       8.043  -1.578  -2.741  1.00  0.00     0.051 A 
ATOM     10  C   UNL     1       8.269  -2.499  -0.554  1.00  0.00     0.166 A 
ATOM     11  C   UNL     1       8.329  -2.665  -1.920  1.00  0.00     0.165 A 
ATOM     12  O   UNL     1       8.590  -3.705   0.030  1.00  0.00    -0.454 OA
ATOM     13  O   UNL     1       8.691  -3.983  -2.148  1.00  0.00    -0.454 OA
ATOM     14  C   UNL     1       8.954  -4.654  -0.939  1.00  0.00     0.468 C 
ENDBRANCH   5   6
ENDBRANCH   1   5
TORSDOF 3
ENDMDL
