MODEL 1
REMARK VINA RESULT:      -7.9      0.000      0.000
REMARK SMILES CC(=O)CCc1ccc2c(c1)OCO2
REMARK SMILES IDX 4 1 2 2 1 3 3 4 5 5 6 6 7 7 11 8 8 9 10 10 9 11 12 12 14 13
REMARK SMILES IDX 13 14
REMARK H PARENT
REMARK Flexibility Score: inf
ROOT
ATOM      1  C   UNL     1       5.501   2.868   0.152  1.00  0.00     0.080 C 
ENDROOT
BRANCH   1   2
ATOM      2  C   UNL     1       6.281   3.809   1.003  1.00  0.00     0.130 C 
ATOM      3  C   UNL     1       7.248   4.775   0.416  1.00  0.00     0.087 C 
ATOM      4  O   UNL     1       6.148   3.814   2.216  1.00  0.00    -0.300 OA
ENDBRANCH   1   2
BRANCH   1   5
ATOM      5  C   UNL     1       5.241   1.560   0.873  1.00  0.00     0.043 C 
BRANCH   5   6
ATOM      6  C   UNL     1       6.076   0.467   0.342  1.00  0.00    -0.044 A 
ATOM      7  C   UNL     1       6.476  -0.606   1.145  1.00  0.00     0.008 A 
ATOM      8  C   UNL     1       6.475   0.492  -0.975  1.00  0.00     0.054 A 
ATOM      9  C   UNL     1       7.259  -1.603   0.592  1.00  0.00     0.051 A 
ATOM     10  C   UNL     1       7.266  -0.519  -1.530  1.00  0.00     0.166 A 
ATOM     11  C   UNL     1       7.661  -1.575  -0.740  1.00  0.00     0.165 A 
ATOM     12  O   UNL     1       7.786  -0.719  -2.791  1.00  0.00    -0.454 OA
ATOM     13  O   UNL     1       8.423  -2.411  -1.540  1.00  0.00    -0.454 OA
ATOM     14  C   UNL     1       8.452  -1.953  -2.871  1.00  0.00     0.468 C 
ENDBRANCH   5   6
ENDBRANCH   1   5
TORSDOF 3
ENDMDL
MODEL 2
REMARK VINA RESULT:      -7.7      1.883      2.615
REMARK SMILES CC(=O)CCc1ccc2c(c1)OCO2
REMARK SMILES IDX 4 1 2 2 1 3 3 4 5 5 6 6 7 7 11 8 8 9 10 10 9 11 12 12 14 13
REMARK SMILES IDX 13 14
REMARK H PARENT
REMARK Flexibility Score: inf
ROOT
ATOM      1  C   UNL     1       5.525   1.924   1.275  1.00  0.00     0.080 C 
ENDROOT
BRANCH   1   2
ATOM      2  C   UNL     1       5.078   0.708   2.009  1.00  0.00     0.130 C 
ATOM      3  C   UNL     1       5.965  -0.475   2.173  1.00  0.00     0.087 C 
ATOM      4  O   UNL     1       3.962   0.647   2.499  1.00  0.00    -0.300 OA
ENDBRANCH   1   2
BRANCH   1   5
ATOM      5  C   UNL     1       5.398   1.741  -0.224  1.00  0.00     0.043 C 
BRANCH   5   6
ATOM      6  C   UNL     1       6.564   1.039  -0.789  1.00  0.00    -0.044 A 
ATOM      7  C   UNL     1       7.872   1.475  -0.545  1.00  0.00     0.008 A 
ATOM      8  C   UNL     1       6.375  -0.074  -1.576  1.00  0.00     0.054 A 
ATOM      9  C   UNL     1       8.927   0.776  -1.101  1.00  0.00     0.051 A 
ATOM     10  C   UNL     1       7.446  -0.778  -2.136  1.00  0.00     0.166 A 
ATOM     11  C   UNL     1       8.733  -0.349  -1.897  1.00  0.00     0.165 A 
ATOM     12  O   UNL     1       7.518  -1.895  -2.940  1.00  0.00    -0.454 OA
ATOM     13  O   UNL     1       9.577  -1.222  -2.565  1.00  0.00    -0.454 OA
ATOM     14  C   UNL     1       8.853  -2.270  -3.165  1.00  0.00     0.468 C 
ENDBRANCH   5   6
ENDBRANCH   1   5
TORSDOF 3
ENDMDL
MODEL 3
REMARK VINA RESULT:      -7.5      1.954      2.987
REMARK SMILES CC(=O)CCc1ccc2c(c1)OCO2
REMARK SMILES IDX 4 1 2 2 1 3 3 4 5 5 6 6 7 7 11 8 8 9 10 10 9 11 12 12 14 13
REMARK SMILES IDX 13 14
REMARK H PARENT
REMARK Flexibility Score: inf
ROOT
ATOM      1  C   UNL     1       5.765   1.361  -0.366  1.00  0.00     0.080 C 
ENDROOT
BRANCH   1   2
ATOM      2  C   UNL     1       5.135   1.322   0.983  1.00  0.00     0.130 C 
ATOM      3  C   UNL     1       5.402   0.214   1.938  1.00  0.00     0.087 C 
ATOM      4  O   UNL     1       4.374   2.206   1.345  1.00  0.00    -0.300 OA
ENDBRANCH   1   2
BRANCH   1   5
ATOM      5  C   UNL     1       7.258   1.109  -0.283  1.00  0.00     0.043 C 
BRANCH   5   6
ATOM      6  C   UNL     1       7.626  -0.187  -0.881  1.00  0.00    -0.044 A 
ATOM      7  C   UNL     1       7.701  -0.360  -2.268  1.00  0.00     0.008 A 
ATOM      8  C   UNL     1       7.908  -1.259  -0.065  1.00  0.00     0.054 A 
ATOM      9  C   UNL     1       8.053  -1.599  -2.771  1.00  0.00     0.051 A 
ATOM     10  C   UNL     1       8.264  -2.510  -0.578  1.00  0.00     0.166 A 
ATOM     11  C   UNL     1       8.337  -2.681  -1.943  1.00  0.00     0.165 A 
ATOM     12  O   UNL     1       8.585  -3.712   0.014  1.00  0.00    -0.454 OA
ATOM     13  O   UNL     1       8.707  -3.999  -2.162  1.00  0.00    -0.454 OA
ATOM     14  C   UNL     1       8.963  -4.664  -0.948  1.00  0.00     0.468 C 
ENDBRANCH   5   6
ENDBRANCH   1   5
TORSDOF 3
ENDMDL
