@<TRIPOS>MOLECULE
/home/cewinharhar/GITHUB/reincatalyze/data/processed/docking_pred/2023-May-22-1531_sub9_nm5_bs15_s42_ex16_mel10_mts1000_k50_ec02_g099_lra9e-4_lrc1e-3/8f7e92428ebbeefdf44ae8ea1c0956f20f305f25_ligand_9.pdbqt
 14 15 0 0 0
SMALL
GASTEIGER

@<TRIPOS>ATOM
      1  C          5.5250    1.9240    1.2750 C.3     1  UNL1        0.0800
      2  C          5.0780    0.7080    2.0090 C.2     1  UNL1        0.1300
      3  C          5.9650   -0.4750    2.1730 C.3     1  UNL1        0.0870
      4  O          3.9620    0.6470    2.4990 O.2     1  UNL1       -0.3000
      5  C          5.3980    1.7410   -0.2240 C.3     1  UNL1        0.0430
      6  C          6.5640    1.0390   -0.7890 C.2     1  UNL1       -0.0440
      7  C          7.8720    1.4750   -0.5450 C.2     1  UNL1        0.0080
      8  C          6.3750   -0.0740   -1.5760 C.2     1  UNL1        0.0540
      9  C          8.9270    0.7760   -1.1010 C.2     1  UNL1        0.0510
     10  C          7.4460   -0.7780   -2.1360 C.2     1  UNL1        0.1660
     11  C          8.7330   -0.3490   -1.8970 C.2     1  UNL1        0.1650
     12  O          7.5180   -1.8950   -2.9400 O.2     1  UNL1       -0.4540
     13  O          9.5770   -1.2220   -2.5650 O.2     1  UNL1       -0.4540
     14  C          8.8530   -2.2700   -3.1650 C.3     1  UNL1        0.4680
@<TRIPOS>BOND
     1    14    12    1
     2    14    13    1
     3    12    10    1
     4    13    11    1
     5    10    11    2
     6    10     8    1
     7    11     9    1
     8     8     6    2
     9     9     7    2
    10     6     7    1
    11     6     5    1
    12     5     1    1
    13     1     2    1
    14     2     3    1
    15     2     4    2
