@<TRIPOS>MOLECULE
/home/cewinharhar/GITHUB/reincatalyze/data/processed/docking_pred/2023-May-22-1531_sub9_nm5_bs15_s42_ex16_mel10_mts1000_k50_ec02_g099_lra9e-4_lrc1e-3/8f7e92428ebbeefdf44ae8ea1c0956f20f305f25_ligand_9.pdbqt
 14 15 0 0 0
SMALL
GASTEIGER

@<TRIPOS>ATOM
      1  C          5.5010    2.8680    0.1520 C.3     1  UNL1        0.0800
      2  C          6.2810    3.8090    1.0030 C.2     1  UNL1        0.1300
      3  C          7.2480    4.7750    0.4160 C.3     1  UNL1        0.0870
      4  O          6.1480    3.8140    2.2160 O.2     1  UNL1       -0.3000
      5  C          5.2410    1.5600    0.8730 C.3     1  UNL1        0.0430
      6  C          6.0760    0.4670    0.3420 C.2     1  UNL1       -0.0440
      7  C          6.4760   -0.6060    1.1450 C.2     1  UNL1        0.0080
      8  C          6.4750    0.4920   -0.9750 C.2     1  UNL1        0.0540
      9  C          7.2590   -1.6030    0.5920 C.2     1  UNL1        0.0510
     10  C          7.2660   -0.5190   -1.5300 C.2     1  UNL1        0.1660
     11  C          7.6610   -1.5750   -0.7400 C.2     1  UNL1        0.1650
     12  O          7.7860   -0.7190   -2.7910 O.2     1  UNL1       -0.4540
     13  O          8.4230   -2.4110   -1.5400 O.2     1  UNL1       -0.4540
     14  C          8.4520   -1.9530   -2.8710 C.3     1  UNL1        0.4680
@<TRIPOS>BOND
     1    14    12    1
     2    14    13    1
     3    12    10    1
     4    13    11    1
     5    10     8    1
     6    10    11    2
     7     8     6    2
     8    11     9    1
     9     1     5    1
    10     1     2    1
    11     6     5    1
    12     6     7    1
    13     3     2    1
    14     9     7    2
    15     2     4    2
