@<TRIPOS>MOLECULE
/home/cewinharhar/GITHUB/reincatalyze/data/processed/docking_pred/2023-May-22-1531_sub9_nm5_bs15_s42_ex16_mel10_mts1000_k50_ec02_g099_lra9e-4_lrc1e-3/91438d65c636cbfd2c8442c68b92b155f88758ee_ligand_9.pdbqt
 14 15 0 0 0
SMALL
GASTEIGER

@<TRIPOS>ATOM
      1  C          5.5290    2.8220    0.3240 C.3     1  UNL1        0.0800
      2  C          6.4220    3.7240    1.1030 C.2     1  UNL1        0.1300
      3  C          7.2400    4.7750    0.4400 C.3     1  UNL1        0.0870
      4  O          6.5100    3.6250    2.3160 O.2     1  UNL1       -0.3000
      5  C          5.3190    1.5020    1.0400 C.3     1  UNL1        0.0430
      6  C          6.1410    0.4270    0.4560 C.2     1  UNL1       -0.0440
      7  C          6.5760   -0.6610    1.2210 C.2     1  UNL1        0.0080
      8  C          6.4920    0.4830   -0.8730 C.2     1  UNL1        0.0540
      9  C          7.3440   -1.6410    0.6190 C.2     1  UNL1        0.0510
     10  C          7.2680   -0.5100   -1.4780 C.2     1  UNL1        0.1660
     11  C          7.6980   -1.5810   -0.7250 C.2     1  UNL1        0.1650
     12  O          7.7440   -0.6800   -2.7610 O.2     1  UNL1       -0.4540
     13  O          8.4350   -2.3950   -1.5710 O.2     1  UNL1       -0.4540
     14  C          8.4140   -1.9080   -2.8920 C.3     1  UNL1        0.4680
@<TRIPOS>BOND
     1    14    12    1
     2    14    13    1
     3    12    10    1
     4    13    11    1
     5    10     8    1
     6    10    11    2
     7     8     6    2
     8    11     9    1
     9     1     5    1
    10     1     2    1
    11     3     2    1
    12     6     5    1
    13     6     7    1
    14     9     7    2
    15     2     4    2
