@<TRIPOS>MOLECULE
/home/cewinharhar/GITHUB/reincatalyze/data/processed/docking_pred/2023-May-22-1531_sub9_nm5_bs15_s42_ex16_mel10_mts1000_k50_ec02_g099_lra9e-4_lrc1e-3/91438d65c636cbfd2c8442c68b92b155f88758ee_ligand_9.pdbqt
 14 15 0 0 0
SMALL
GASTEIGER

@<TRIPOS>ATOM
      1  C          5.5270    1.9200    1.2720 C.3     1  UNL1        0.0800
      2  C          5.0800    0.7040    2.0060 C.2     1  UNL1        0.1300
      3  C          5.9700   -0.4770    2.1750 C.3     1  UNL1        0.0870
      4  O          3.9630    0.6400    2.4930 O.2     1  UNL1       -0.3000
      5  C          5.3990    1.7360   -0.2280 C.3     1  UNL1        0.0430
      6  C          6.5650    1.0330   -0.7930 C.2     1  UNL1       -0.0440
      7  C          7.8730    1.4700   -0.5510 C.2     1  UNL1        0.0080
      8  C          6.3750   -0.0820   -1.5760 C.2     1  UNL1        0.0540
      9  C          8.9280    0.7700   -1.1070 C.2     1  UNL1        0.0510
     10  C          7.4450   -0.7870   -2.1360 C.2     1  UNL1        0.1660
     11  C          8.7320   -0.3570   -1.8990 C.2     1  UNL1        0.1650
     12  O          7.5170   -1.9060   -2.9380 O.2     1  UNL1       -0.4540
     13  O          9.5760   -1.2310   -2.5670 O.2     1  UNL1       -0.4540
     14  C          8.8510   -2.2810   -3.1630 C.3     1  UNL1        0.4680
@<TRIPOS>BOND
     1    14    12    1
     2    14    13    1
     3    12    10    1
     4    13    11    1
     5    10    11    2
     6    10     8    1
     7    11     9    1
     8     8     6    2
     9     9     7    2
    10     6     7    1
    11     6     5    1
    12     5     1    1
    13     1     2    1
    14     2     3    1
    15     2     4    2
