@<TRIPOS>MOLECULE
/home/cewinharhar/GITHUB/reincatalyze/data/processed/docking_pred/2023-May-22-1531_sub9_nm5_bs15_s42_ex16_mel10_mts1000_k50_ec02_g099_lra9e-4_lrc1e-3/91438d65c636cbfd2c8442c68b92b155f88758ee_ligand_9.pdbqt
 14 15 0 0 0
SMALL
GASTEIGER

@<TRIPOS>ATOM
      1  C          5.7750    1.4020   -0.3280 C.3     1  UNL1        0.0800
      2  C          5.1310    1.3170    1.0130 C.2     1  UNL1        0.1300
      3  C          5.4250    0.2010    1.9500 C.3     1  UNL1        0.0870
      4  O          4.3390    2.1680    1.3820 O.2     1  UNL1       -0.3000
      5  C          7.2640    1.1350   -0.2420 C.3     1  UNL1        0.0430
      6  C          7.6240   -0.1590   -0.8500 C.2     1  UNL1       -0.0440
      7  C          7.6760   -0.3270   -2.2380 C.2     1  UNL1        0.0080
      8  C          7.9190   -1.2330   -0.0420 C.2     1  UNL1        0.0540
      9  C          8.0210   -1.5640   -2.7520 C.2     1  UNL1        0.0510
     10  C          8.2670   -2.4820   -0.5660 C.2     1  UNL1        0.1660
     11  C          8.3180   -2.6490   -1.9320 C.2     1  UNL1        0.1650
     12  O          8.5980   -3.6860    0.0170 O.2     1  UNL1       -0.4540
     13  O          8.6840   -3.9660   -2.1620 O.2     1  UNL1       -0.4540
     14  C          8.9600   -4.6340   -0.9540 C.3     1  UNL1        0.4680
@<TRIPOS>BOND
     1     9     7    1
     2     9    11    2
     3     7     6    2
     4    13    11    1
     5    13    14    1
     6    11    10    1
     7    14    12    1
     8     6     5    1
     9     6     8    1
    10    10     8    2
    11    10    12    1
    12     1     5    1
    13     1     2    1
    14     2     4    2
    15     2     3    1
