@<TRIPOS>MOLECULE
/home/cewinharhar/GITHUB/reincatalyze/data/processed/docking_pred/2023-May-22-1531_sub9_nm5_bs15_s42_ex16_mel10_mts1000_k50_ec02_g099_lra9e-4_lrc1e-3/9282b18981f6708324b0af4486d36de930a99903_ligand_9.pdbqt
 14 15 0 0 0
SMALL
GASTEIGER

@<TRIPOS>ATOM
      1  C          9.6490   -6.9050   10.1090 C.3     1  UNL1        0.0800
      2  C          8.4010   -6.2980   10.6500 C.2     1  UNL1        0.1300
      3  C          7.6130   -6.9590   11.7250 C.3     1  UNL1        0.0870
      4  O          7.9870   -5.2320   10.2230 O.2     1  UNL1       -0.3000
      5  C         10.5540   -7.3900   11.2250 C.3     1  UNL1        0.0430
      6  C         10.9510   -8.7970   11.0340 C.2     1  UNL1       -0.0440
      7  C         10.1020   -9.8520   11.3850 C.2     1  UNL1        0.0080
      8  C         12.1830   -9.0900   10.4950 C.2     1  UNL1        0.0540
      9  C         10.5280  -11.1520   11.1820 C.2     1  UNL1        0.0510
     10  C         12.6090  -10.4060   10.2910 C.2     1  UNL1        0.1660
     11  C         11.7750  -11.4460   10.6380 C.2     1  UNL1        0.1650
     12  O         13.7690  -10.9500    9.7820 O.2     1  UNL1       -0.4540
     13  O         12.4460  -12.6180   10.3300 O.2     1  UNL1       -0.4540
     14  C         13.6770  -12.3490    9.7010 C.3     1  UNL1        0.4680
@<TRIPOS>BOND
     1    14    12    1
     2    14    13    1
     3    12    10    1
     4     1     2    1
     5     1     5    1
     6     4     2    2
     7    10     8    1
     8    10    11    2
     9    13    11    1
    10     8     6    2
    11    11     9    1
    12     2     3    1
    13     6     5    1
    14     6     7    1
    15     9     7    2
