@<TRIPOS>MOLECULE
/home/cewinharhar/GITHUB/reincatalyze/data/processed/docking_pred/2023-May-22-1531_sub9_nm5_bs15_s42_ex16_mel10_mts1000_k50_ec02_g099_lra9e-4_lrc1e-3/9282b18981f6708324b0af4486d36de930a99903_ligand_9.pdbqt
 14 15 0 0 0
SMALL
GASTEIGER

@<TRIPOS>ATOM
      1  C          8.1720   -6.3250   10.5410 C.3     1  UNL1        0.0800
      2  C          7.9780   -4.9300   11.0250 C.2     1  UNL1        0.1300
      3  C          8.1970   -4.5590   12.4490 C.3     1  UNL1        0.0870
      4  O          7.6300   -4.0440   10.2600 O.2     1  UNL1       -0.3000
      5  C          8.8570   -7.1800   11.5880 C.3     1  UNL1        0.0430
      6  C         10.1500   -7.7010   11.1080 C.2     1  UNL1       -0.0440
      7  C         11.1860   -6.8440   10.7190 C.2     1  UNL1        0.0080
      8  C         10.3540   -9.0600   11.0380 C.2     1  UNL1        0.0540
      9  C         12.3780   -7.3900   10.2780 C.2     1  UNL1        0.0510
     10  C         11.5610   -9.6070   10.5910 C.2     1  UNL1        0.1660
     11  C         12.5810   -8.7650   10.2080 C.2     1  UNL1        0.1650
     12  O         12.0030  -10.9030   10.4320 O.2     1  UNL1       -0.4540
     13  O         13.6400   -9.5700    9.8180 O.2     1  UNL1       -0.4540
     14  C         13.3490  -10.9310   10.0290 C.3     1  UNL1        0.4680
@<TRIPOS>BOND
     1    13    14    1
     2    13    11    1
     3    14    12    1
     4    11     9    2
     5    11    10    1
     6     4     2    2
     7     9     7    1
     8    12    10    1
     9     1     2    1
    10     1     5    1
    11    10     8    2
    12     7     6    2
    13     2     3    1
    14     8     6    1
    15     6     5    1
