MODEL 1
REMARK VINA RESULT:      -4.4      0.000      0.000
REMARK SMILES CC(=O)CCc1ccc2c(c1)OCO2
REMARK SMILES IDX 4 1 2 2 1 3 3 4 5 5 6 6 7 7 11 8 8 9 10 10 9 11 12 12 14 13
REMARK SMILES IDX 13 14
REMARK H PARENT
REMARK Flexibility Score: inf
ROOT
ATOM      1  C   UNL     1       8.178  -5.774  11.569  1.00  0.00     0.080 C 
ENDROOT
BRANCH   1   2
ATOM      2  C   UNL     1       7.689  -4.393  11.300  1.00  0.00     0.130 C 
ATOM      3  C   UNL     1       7.243  -3.496  12.399  1.00  0.00     0.087 C 
ATOM      4  O   UNL     1       7.639  -3.957  10.162  1.00  0.00    -0.300 OA
ENDBRANCH   1   2
BRANCH   1   5
ATOM      5  C   UNL     1       8.716  -6.422  10.309  1.00  0.00     0.043 C 
BRANCH   5   6
ATOM      6  C   UNL     1      10.041  -7.029  10.529  1.00  0.00    -0.044 A 
ATOM      7  C   UNL     1      10.239  -8.412  10.436  1.00  0.00     0.008 A 
ATOM      8  C   UNL     1      11.117  -6.227  10.832  1.00  0.00     0.054 A 
ATOM      9  C   UNL     1      11.505  -8.925  10.653  1.00  0.00     0.051 A 
ATOM     10  C   UNL     1      12.395  -6.750  11.050  1.00  0.00     0.166 A 
ATOM     11  C   UNL     1      12.591  -8.110  10.959  1.00  0.00     0.165 A 
ATOM     12  O   UNL     1      13.608  -6.171  11.360  1.00  0.00    -0.454 OA
ATOM     13  O   UNL     1      13.933  -8.340  11.218  1.00  0.00    -0.454 OA
ATOM     14  C   UNL     1      14.633  -7.131  11.388  1.00  0.00     0.468 C 
ENDBRANCH   5   6
ENDBRANCH   1   5
TORSDOF 3
ENDMDL
MODEL 2
REMARK VINA RESULT:      -4.1      1.518      2.385
REMARK SMILES CC(=O)CCc1ccc2c(c1)OCO2
REMARK SMILES IDX 4 1 2 2 1 3 3 4 5 5 6 6 7 7 11 8 8 9 10 10 9 11 12 12 14 13
REMARK SMILES IDX 13 14
REMARK H PARENT
REMARK Flexibility Score: inf
ROOT
ATOM      1  C   UNL     1       8.172  -6.325  10.541  1.00  0.00     0.080 C 
ENDROOT
BRANCH   1   2
ATOM      2  C   UNL     1       7.978  -4.930  11.025  1.00  0.00     0.130 C 
ATOM      3  C   UNL     1       8.197  -4.559  12.449  1.00  0.00     0.087 C 
ATOM      4  O   UNL     1       7.630  -4.044  10.260  1.00  0.00    -0.300 OA
ENDBRANCH   1   2
BRANCH   1   5
ATOM      5  C   UNL     1       8.857  -7.180  11.588  1.00  0.00     0.043 C 
BRANCH   5   6
ATOM      6  C   UNL     1      10.150  -7.701  11.108  1.00  0.00    -0.044 A 
ATOM      7  C   UNL     1      11.186  -6.844  10.719  1.00  0.00     0.008 A 
ATOM      8  C   UNL     1      10.354  -9.060  11.038  1.00  0.00     0.054 A 
ATOM      9  C   UNL     1      12.378  -7.390  10.278  1.00  0.00     0.051 A 
ATOM     10  C   UNL     1      11.561  -9.607  10.591  1.00  0.00     0.166 A 
ATOM     11  C   UNL     1      12.581  -8.765  10.208  1.00  0.00     0.165 A 
ATOM     12  O   UNL     1      12.003 -10.903  10.432  1.00  0.00    -0.454 OA
ATOM     13  O   UNL     1      13.640  -9.570   9.818  1.00  0.00    -0.454 OA
ATOM     14  C   UNL     1      13.349 -10.931  10.029  1.00  0.00     0.468 C 
ENDBRANCH   5   6
ENDBRANCH   1   5
TORSDOF 3
ENDMDL
MODEL 3
REMARK VINA RESULT:      -4.0      2.294      3.338
REMARK SMILES CC(=O)CCc1ccc2c(c1)OCO2
REMARK SMILES IDX 4 1 2 2 1 3 3 4 5 5 6 6 7 7 11 8 8 9 10 10 9 11 12 12 14 13
REMARK SMILES IDX 13 14
REMARK H PARENT
REMARK Flexibility Score: inf
ROOT
ATOM      1  C   UNL     1       9.649  -6.905  10.109  1.00  0.00     0.080 C 
ENDROOT
BRANCH   1   2
ATOM      2  C   UNL     1       8.401  -6.298  10.650  1.00  0.00     0.130 C 
ATOM      3  C   UNL     1       7.613  -6.959  11.725  1.00  0.00     0.087 C 
ATOM      4  O   UNL     1       7.987  -5.232  10.223  1.00  0.00    -0.300 OA
ENDBRANCH   1   2
BRANCH   1   5
ATOM      5  C   UNL     1      10.554  -7.390  11.225  1.00  0.00     0.043 C 
BRANCH   5   6
ATOM      6  C   UNL     1      10.951  -8.797  11.034  1.00  0.00    -0.044 A 
ATOM      7  C   UNL     1      10.102  -9.852  11.385  1.00  0.00     0.008 A 
ATOM      8  C   UNL     1      12.183  -9.090  10.495  1.00  0.00     0.054 A 
ATOM      9  C   UNL     1      10.528 -11.152  11.182  1.00  0.00     0.051 A 
ATOM     10  C   UNL     1      12.609 -10.406  10.291  1.00  0.00     0.166 A 
ATOM     11  C   UNL     1      11.775 -11.446  10.638  1.00  0.00     0.165 A 
ATOM     12  O   UNL     1      13.769 -10.950   9.782  1.00  0.00    -0.454 OA
ATOM     13  O   UNL     1      12.446 -12.618  10.330  1.00  0.00    -0.454 OA
ATOM     14  C   UNL     1      13.677 -12.349   9.701  1.00  0.00     0.468 C 
ENDBRANCH   5   6
ENDBRANCH   1   5
TORSDOF 3
ENDMDL
