@<TRIPOS>MOLECULE
/home/cewinharhar/GITHUB/reincatalyze/data/processed/docking_pred/2023-May-22-1531_sub9_nm5_bs15_s42_ex16_mel10_mts1000_k50_ec02_g099_lra9e-4_lrc1e-3/9282b18981f6708324b0af4486d36de930a99903_ligand_9.pdbqt
 14 15 0 0 0
SMALL
GASTEIGER

@<TRIPOS>ATOM
      1  C          8.1780   -5.7740   11.5690 C.3     1  UNL1        0.0800
      2  C          7.6890   -4.3930   11.3000 C.2     1  UNL1        0.1300
      3  C          7.2430   -3.4960   12.3990 C.3     1  UNL1        0.0870
      4  O          7.6390   -3.9570   10.1620 O.2     1  UNL1       -0.3000
      5  C          8.7160   -6.4220   10.3090 C.3     1  UNL1        0.0430
      6  C         10.0410   -7.0290   10.5290 C.2     1  UNL1       -0.0440
      7  C         10.2390   -8.4120   10.4360 C.2     1  UNL1        0.0080
      8  C         11.1170   -6.2270   10.8320 C.2     1  UNL1        0.0540
      9  C         11.5050   -8.9250   10.6530 C.2     1  UNL1        0.0510
     10  C         12.3950   -6.7500   11.0500 C.2     1  UNL1        0.1660
     11  C         12.5910   -8.1100   10.9590 C.2     1  UNL1        0.1650
     12  O         13.6080   -6.1710   11.3600 O.2     1  UNL1       -0.4540
     13  O         13.9330   -8.3400   11.2180 O.2     1  UNL1       -0.4540
     14  C         14.6330   -7.1310   11.3880 C.3     1  UNL1        0.4680
@<TRIPOS>BOND
     1     4     2    2
     2     5     6    1
     3     5     1    1
     4     7     6    2
     5     7     9    1
     6     6     8    1
     7     9    11    2
     8     8    10    2
     9    11    10    1
    10    11    13    1
    11    10    12    1
    12    13    14    1
    13     2     1    1
    14     2     3    1
    15    12    14    1
