@<TRIPOS>MOLECULE
/home/cewinharhar/GITHUB/reincatalyze/data/processed/docking_pred/2023-May-22-1531_sub9_nm5_bs15_s42_ex16_mel10_mts1000_k50_ec02_g099_lra9e-4_lrc1e-3/939bd1e5684a89eea32cbd4f4170b12915347732_ligand_9.pdbqt
 14 15 0 0 0
SMALL
GASTEIGER

@<TRIPOS>ATOM
      1  C          5.4990    2.8430    0.3180 C.3     1  UNL1        0.0800
      2  C          6.3970    3.7450    1.0930 C.2     1  UNL1        0.1300
      3  C          7.2430    4.7680    0.4230 C.3     1  UNL1        0.0870
      4  O          6.4640    3.6670    2.3090 O.2     1  UNL1       -0.3000
      5  C          5.2790    1.5300    1.0420 C.3     1  UNL1        0.0430
      6  C          6.1000    0.4470    0.4720 C.2     1  UNL1       -0.0440
      7  C          6.4780   -0.6650    1.2340 C.2     1  UNL1        0.0080
      8  C          6.5090    0.5200   -0.8400 C.2     1  UNL1        0.0540
      9  C          7.2490   -1.6500    0.6450 C.2     1  UNL1        0.0510
     10  C          7.2880   -0.4800   -1.4310 C.2     1  UNL1        0.1660
     11  C          7.6610   -1.5740   -0.6820 C.2     1  UNL1        0.1650
     12  O          7.8140   -0.6370   -2.6950 O.2     1  UNL1       -0.4540
     13  O          8.4160   -2.3890   -1.5110 O.2     1  UNL1       -0.4540
     14  C          8.4610   -1.8770   -2.8220 C.3     1  UNL1        0.4680
@<TRIPOS>BOND
     1    14    12    1
     2    14    13    1
     3    12    10    1
     4    13    11    1
     5    10     8    1
     6    10    11    2
     7     8     6    2
     8    11     9    1
     9     1     5    1
    10     1     2    1
    11     3     2    1
    12     6     5    1
    13     6     7    1
    14     9     7    2
    15     2     4    2
