MODEL 1
REMARK VINA RESULT:      -7.7      0.000      0.000
REMARK SMILES CC(=O)CCc1ccc2c(c1)OCO2
REMARK SMILES IDX 4 1 2 2 1 3 3 4 5 5 6 6 7 7 11 8 8 9 10 10 9 11 12 12 14 13
REMARK SMILES IDX 13 14
REMARK H PARENT
REMARK Flexibility Score: inf
ROOT
ATOM      1  C   UNL     1       5.499   2.843   0.318  1.00  0.00     0.080 C 
ENDROOT
BRANCH   1   2
ATOM      2  C   UNL     1       6.397   3.745   1.093  1.00  0.00     0.130 C 
ATOM      3  C   UNL     1       7.243   4.768   0.423  1.00  0.00     0.087 C 
ATOM      4  O   UNL     1       6.464   3.667   2.309  1.00  0.00    -0.300 OA
ENDBRANCH   1   2
BRANCH   1   5
ATOM      5  C   UNL     1       5.279   1.530   1.042  1.00  0.00     0.043 C 
BRANCH   5   6
ATOM      6  C   UNL     1       6.100   0.447   0.472  1.00  0.00    -0.044 A 
ATOM      7  C   UNL     1       6.478  -0.665   1.234  1.00  0.00     0.008 A 
ATOM      8  C   UNL     1       6.509   0.520  -0.840  1.00  0.00     0.054 A 
ATOM      9  C   UNL     1       7.249  -1.650   0.645  1.00  0.00     0.051 A 
ATOM     10  C   UNL     1       7.288  -0.480  -1.431  1.00  0.00     0.166 A 
ATOM     11  C   UNL     1       7.661  -1.574  -0.682  1.00  0.00     0.165 A 
ATOM     12  O   UNL     1       7.814  -0.637  -2.695  1.00  0.00    -0.454 OA
ATOM     13  O   UNL     1       8.416  -2.389  -1.511  1.00  0.00    -0.454 OA
ATOM     14  C   UNL     1       8.461  -1.877  -2.822  1.00  0.00     0.468 C 
ENDBRANCH   5   6
ENDBRANCH   1   5
TORSDOF 3
ENDMDL
MODEL 2
REMARK VINA RESULT:      -7.6      1.905      2.648
REMARK SMILES CC(=O)CCc1ccc2c(c1)OCO2
REMARK SMILES IDX 4 1 2 2 1 3 3 4 5 5 6 6 7 7 11 8 8 9 10 10 9 11 12 12 14 13
REMARK SMILES IDX 13 14
REMARK H PARENT
REMARK Flexibility Score: inf
ROOT
ATOM      1  C   UNL     1       5.543   1.906   1.277  1.00  0.00     0.080 C 
ENDROOT
BRANCH   1   2
ATOM      2  C   UNL     1       5.111   0.684   2.011  1.00  0.00     0.130 C 
ATOM      3  C   UNL     1       6.015  -0.485   2.181  1.00  0.00     0.087 C 
ATOM      4  O   UNL     1       3.994   0.606   2.497  1.00  0.00    -0.300 OA
ENDBRANCH   1   2
BRANCH   1   5
ATOM      5  C   UNL     1       5.413   1.722  -0.222  1.00  0.00     0.043 C 
BRANCH   5   6
ATOM      6  C   UNL     1       6.578   1.020  -0.790  1.00  0.00    -0.044 A 
ATOM      7  C   UNL     1       7.886   1.451  -0.543  1.00  0.00     0.008 A 
ATOM      8  C   UNL     1       6.386  -0.090  -1.582  1.00  0.00     0.054 A 
ATOM      9  C   UNL     1       8.940   0.752  -1.101  1.00  0.00     0.051 A 
ATOM     10  C   UNL     1       7.455  -0.794  -2.144  1.00  0.00     0.166 A 
ATOM     11  C   UNL     1       8.743  -0.369  -1.902  1.00  0.00     0.165 A 
ATOM     12  O   UNL     1       7.525  -1.908  -2.953  1.00  0.00    -0.454 OA
ATOM     13  O   UNL     1       9.585  -1.242  -2.573  1.00  0.00    -0.454 OA
ATOM     14  C   UNL     1       8.859  -2.285  -3.178  1.00  0.00     0.468 C 
ENDBRANCH   5   6
ENDBRANCH   1   5
TORSDOF 3
ENDMDL
MODEL 3
REMARK VINA RESULT:      -7.5      1.986      3.020
REMARK SMILES CC(=O)CCc1ccc2c(c1)OCO2
REMARK SMILES IDX 4 1 2 2 1 3 3 4 5 5 6 6 7 7 11 8 8 9 10 10 9 11 12 12 14 13
REMARK SMILES IDX 13 14
REMARK H PARENT
REMARK Flexibility Score: inf
ROOT
ATOM      1  C   UNL     1       5.783   1.365  -0.372  1.00  0.00     0.080 C 
ENDROOT
BRANCH   1   2
ATOM      2  C   UNL     1       5.146   1.329   0.974  1.00  0.00     0.130 C 
ATOM      3  C   UNL     1       5.412   0.225   1.935  1.00  0.00     0.087 C 
ATOM      4  O   UNL     1       4.381   2.211   1.329  1.00  0.00    -0.300 OA
ENDBRANCH   1   2
BRANCH   1   5
ATOM      5  C   UNL     1       7.269   1.078  -0.285  1.00  0.00     0.043 C 
BRANCH   5   6
ATOM      6  C   UNL     1       7.612  -0.222  -0.889  1.00  0.00    -0.044 A 
ATOM      7  C   UNL     1       7.621  -0.406  -2.277  1.00  0.00     0.008 A 
ATOM      8  C   UNL     1       7.933  -1.287  -0.079  1.00  0.00     0.054 A 
ATOM      9  C   UNL     1       7.951  -1.648  -2.787  1.00  0.00     0.051 A 
ATOM     10  C   UNL     1       8.267  -2.541  -0.600  1.00  0.00     0.166 A 
ATOM     11  C   UNL     1       8.275  -2.723  -1.965  1.00  0.00     0.165 A 
ATOM     12  O   UNL     1       8.618  -3.739  -0.014  1.00  0.00    -0.454 OA
ATOM     13  O   UNL     1       8.636  -4.042  -2.191  1.00  0.00    -0.454 OA
ATOM     14  C   UNL     1       8.951  -4.697  -0.985  1.00  0.00     0.468 C 
ENDBRANCH   5   6
ENDBRANCH   1   5
TORSDOF 3
ENDMDL
