@<TRIPOS>MOLECULE
/home/cewinharhar/GITHUB/reincatalyze/data/processed/docking_pred/2023-May-22-1531_sub9_nm5_bs15_s42_ex16_mel10_mts1000_k50_ec02_g099_lra9e-4_lrc1e-3/939bd1e5684a89eea32cbd4f4170b12915347732_ligand_9.pdbqt
 14 15 0 0 0
SMALL
GASTEIGER

@<TRIPOS>ATOM
      1  C          5.7830    1.3650   -0.3720 C.3     1  UNL1        0.0800
      2  C          5.1460    1.3290    0.9740 C.2     1  UNL1        0.1300
      3  C          5.4120    0.2250    1.9350 C.3     1  UNL1        0.0870
      4  O          4.3810    2.2110    1.3290 O.2     1  UNL1       -0.3000
      5  C          7.2690    1.0780   -0.2850 C.3     1  UNL1        0.0430
      6  C          7.6120   -0.2220   -0.8890 C.2     1  UNL1       -0.0440
      7  C          7.6210   -0.4060   -2.2770 C.2     1  UNL1        0.0080
      8  C          7.9330   -1.2870   -0.0790 C.2     1  UNL1        0.0540
      9  C          7.9510   -1.6480   -2.7870 C.2     1  UNL1        0.0510
     10  C          8.2670   -2.5410   -0.6000 C.2     1  UNL1        0.1660
     11  C          8.2750   -2.7230   -1.9650 C.2     1  UNL1        0.1650
     12  O          8.6180   -3.7390   -0.0140 O.2     1  UNL1       -0.4540
     13  O          8.6360   -4.0420   -2.1910 O.2     1  UNL1       -0.4540
     14  C          8.9510   -4.6970   -0.9850 C.3     1  UNL1        0.4680
@<TRIPOS>BOND
     1     9     7    1
     2     9    11    2
     3     7     6    2
     4    13    11    1
     5    13    14    1
     6    11    10    1
     7    14    12    1
     8     6     5    1
     9     6     8    1
    10    10     8    2
    11    10    12    1
    12     1     5    1
    13     1     2    1
    14     2     4    2
    15     2     3    1
