@<TRIPOS>MOLECULE
/home/cewinharhar/GITHUB/reincatalyze/data/processed/docking_pred/2023-May-22-1531_sub9_nm5_bs15_s42_ex16_mel10_mts1000_k50_ec02_g099_lra9e-4_lrc1e-3/93b19c8378935853b44d27bbf459025f9fc44a5e_ligand_9.pdbqt
 14 15 0 0 0
SMALL
GASTEIGER

@<TRIPOS>ATOM
      1  C          5.5080    1.9190    1.2600 C.3     1  UNL1        0.0800
      2  C          5.0640    0.7060    2.0010 C.2     1  UNL1        0.1300
      3  C          5.9480   -0.4800    2.1600 C.3     1  UNL1        0.0870
      4  O          3.9530    0.6500    2.5020 O.2     1  UNL1       -0.3000
      5  C          5.3850    1.7250   -0.2390 C.3     1  UNL1        0.0430
      6  C          6.5550    1.0230   -0.7970 C.2     1  UNL1       -0.0440
      7  C          7.8600    1.4580   -0.5430 C.2     1  UNL1        0.0080
      8  C          6.3700   -0.0900   -1.5860 C.2     1  UNL1        0.0540
      9  C          8.9200    0.7590   -1.0930 C.2     1  UNL1        0.0510
     10  C          7.4450   -0.7930   -2.1390 C.2     1  UNL1        0.1660
     11  C          8.7300   -0.3650   -1.8910 C.2     1  UNL1        0.1650
     12  O          7.5220   -1.9100   -2.9440 O.2     1  UNL1       -0.4540
     13  O          9.5780   -1.2370   -2.5540 O.2     1  UNL1       -0.4540
     14  C          8.8580   -2.2840   -3.1600 C.3     1  UNL1        0.4680
@<TRIPOS>BOND
     1    14    12    1
     2    14    13    1
     3    12    10    1
     4    13    11    1
     5    10    11    2
     6    10     8    1
     7    11     9    1
     8     8     6    2
     9     9     7    2
    10     6     7    1
    11     6     5    1
    12     5     1    1
    13     1     2    1
    14     2     3    1
    15     2     4    2
