@<TRIPOS>MOLECULE
/home/cewinharhar/GITHUB/reincatalyze/data/processed/docking_pred/2023-May-22-1531_sub9_nm5_bs15_s42_ex16_mel10_mts1000_k50_ec02_g099_lra9e-4_lrc1e-3/93b19c8378935853b44d27bbf459025f9fc44a5e_ligand_9.pdbqt
 14 15 0 0 0
SMALL
GASTEIGER

@<TRIPOS>ATOM
      1  C          5.4660    2.8700    0.0800 C.3     1  UNL1        0.0800
      2  C          6.1590    3.8830    0.9250 C.2     1  UNL1        0.1300
      3  C          7.2490    4.7370    0.3840 C.3     1  UNL1        0.0870
      4  O          5.8480    4.0410    2.0950 O.2     1  UNL1       -0.3000
      5  C          5.2900    1.5610    0.8230 C.3     1  UNL1        0.0430
      6  C          6.1540    0.5010    0.2750 C.2     1  UNL1       -0.0440
      7  C          6.5950   -0.5670    1.0650 C.2     1  UNL1        0.0080
      8  C          6.5420    0.5510   -1.0450 C.2     1  UNL1        0.0540
      9  C          7.4050   -1.5330    0.4960 C.2     1  UNL1        0.0510
     10  C          7.3600   -0.4290   -1.6150 C.2     1  UNL1        0.1660
     11  C          7.7950   -1.4800   -0.8380 C.2     1  UNL1        0.1650
     12  O          7.8760   -0.6010   -2.8820 O.2     1  UNL1       -0.4540
     13  O          8.5760   -2.2840   -1.6530 O.2     1  UNL1       -0.4540
     14  C          8.5800   -1.8130   -2.9800 C.3     1  UNL1        0.4680
@<TRIPOS>BOND
     1    14    12    1
     2    14    13    1
     3    12    10    1
     4    13    11    1
     5    10     8    1
     6    10    11    2
     7     8     6    2
     8    11     9    1
     9     1     5    1
    10     1     2    1
    11     6     5    1
    12     6     7    1
    13     3     2    1
    14     9     7    2
    15     2     4    2
