@<TRIPOS>MOLECULE
/home/cewinharhar/GITHUB/reincatalyze/data/processed/docking_pred/2023-May-22-1531_sub9_nm5_bs15_s42_ex16_mel10_mts1000_k50_ec02_g099_lra9e-4_lrc1e-3/93c3770ef064b633c902e85f3368d9330fbaaeb8_ligand_9.pdbqt
 14 15 0 0 0
SMALL
GASTEIGER

@<TRIPOS>ATOM
      1  C          5.4200    2.9660    0.0940 C.3     1  UNL1        0.0800
      2  C          6.2800    3.8360    0.9440 C.2     1  UNL1        0.1300
      3  C          7.2690    4.7750    0.3500 C.3     1  UNL1        0.0870
      4  O          6.1970    3.8020    2.1610 O.2     1  UNL1       -0.3000
      5  C          5.1210    1.6480    0.7810 C.3     1  UNL1        0.0430
      6  C          5.9660    0.5570    0.2630 C.2     1  UNL1       -0.0440
      7  C          6.3420   -0.5240    1.0680 C.2     1  UNL1        0.0080
      8  C          6.3990    0.5910   -1.0430 C.2     1  UNL1        0.0540
      9  C          7.1360   -1.5190    0.5260 C.2     1  UNL1        0.0510
     10  C          7.2000   -0.4180   -1.5860 C.2     1  UNL1        0.1660
     11  C          7.5720   -1.4810   -0.7940 C.2     1  UNL1        0.1650
     12  O          7.7520   -0.6100   -2.8350 O.2     1  UNL1       -0.4540
     13  O          8.3520   -2.3140   -1.5820 O.2     1  UNL1       -0.4540
     14  C          8.4160   -1.8450   -2.9080 C.3     1  UNL1        0.4680
@<TRIPOS>BOND
     1    14    12    1
     2    14    13    1
     3    12    10    1
     4    10     8    1
     5    10    11    2
     6    13    11    1
     7     8     6    2
     8    11     9    1
     9     1     5    1
    10     1     2    1
    11     6     5    1
    12     6     7    1
    13     3     2    1
    14     9     7    2
    15     2     4    2
