@<TRIPOS>MOLECULE
/home/cewinharhar/GITHUB/reincatalyze/data/processed/docking_pred/2023-May-22-1531_sub9_nm5_bs15_s42_ex16_mel10_mts1000_k50_ec02_g099_lra9e-4_lrc1e-3/93c3770ef064b633c902e85f3368d9330fbaaeb8_ligand_9.pdbqt
 14 15 0 0 0
SMALL
GASTEIGER

@<TRIPOS>ATOM
      1  C          5.7240    1.2790   -0.3190 C.3     1  UNL1        0.0800
      2  C          5.1870    1.2910    1.0700 C.2     1  UNL1        0.1300
      3  C          5.3340    0.1190    1.9740 C.3     1  UNL1        0.0870
      4  O          4.6060    2.2710    1.5090 O.2     1  UNL1       -0.3000
      5  C          7.2270    1.0880   -0.3260 C.3     1  UNL1        0.0430
      6  C          7.6100   -0.2070   -0.9170 C.2     1  UNL1       -0.0440
      7  C          7.7010   -0.3840   -2.3020 C.2     1  UNL1        0.0080
      8  C          7.8900   -1.2760   -0.0950 C.2     1  UNL1        0.0540
      9  C          8.0660   -1.6220   -2.7990 C.2     1  UNL1        0.0510
     10  C          8.2590   -2.5250   -0.6020 C.2     1  UNL1        0.1660
     11  C          8.3470   -2.7000   -1.9650 C.2     1  UNL1        0.1650
     12  O          8.5810   -3.7240   -0.0030 O.2     1  UNL1       -0.4540
     13  O          8.7270   -4.0160   -2.1770 O.2     1  UNL1       -0.4540
     14  C          8.9740   -4.6760   -0.9580 C.3     1  UNL1        0.4680
@<TRIPOS>BOND
     1     9     7    1
     2     9    11    2
     3     7     6    2
     4    13    11    1
     5    13    14    1
     6    11    10    1
     7    14    12    1
     8     6     5    1
     9     6     8    1
    10    10     8    2
    11    10    12    1
    12     5     1    1
    13     1     2    1
    14     2     4    2
    15     2     3    1
