MODEL 1
REMARK VINA RESULT:      -7.9      0.000      0.000
REMARK SMILES CC(=O)CCc1ccc2c(c1)OCO2
REMARK SMILES IDX 4 1 2 2 1 3 3 4 5 5 6 6 7 7 11 8 8 9 10 10 9 11 12 12 14 13
REMARK SMILES IDX 13 14
REMARK H PARENT
REMARK Flexibility Score: inf
ROOT
ATOM      1  C   UNL     1       5.420   2.966   0.094  1.00  0.00     0.080 C 
ENDROOT
BRANCH   1   2
ATOM      2  C   UNL     1       6.280   3.836   0.944  1.00  0.00     0.130 C 
ATOM      3  C   UNL     1       7.269   4.775   0.350  1.00  0.00     0.087 C 
ATOM      4  O   UNL     1       6.197   3.802   2.161  1.00  0.00    -0.300 OA
ENDBRANCH   1   2
BRANCH   1   5
ATOM      5  C   UNL     1       5.121   1.648   0.781  1.00  0.00     0.043 C 
BRANCH   5   6
ATOM      6  C   UNL     1       5.966   0.557   0.263  1.00  0.00    -0.044 A 
ATOM      7  C   UNL     1       6.342  -0.524   1.068  1.00  0.00     0.008 A 
ATOM      8  C   UNL     1       6.399   0.591  -1.043  1.00  0.00     0.054 A 
ATOM      9  C   UNL     1       7.136  -1.519   0.526  1.00  0.00     0.051 A 
ATOM     10  C   UNL     1       7.200  -0.418  -1.586  1.00  0.00     0.166 A 
ATOM     11  C   UNL     1       7.572  -1.481  -0.794  1.00  0.00     0.165 A 
ATOM     12  O   UNL     1       7.752  -0.610  -2.835  1.00  0.00    -0.454 OA
ATOM     13  O   UNL     1       8.352  -2.314  -1.582  1.00  0.00    -0.454 OA
ATOM     14  C   UNL     1       8.416  -1.845  -2.908  1.00  0.00     0.468 C 
ENDBRANCH   5   6
ENDBRANCH   1   5
TORSDOF 3
ENDMDL
MODEL 2
REMARK VINA RESULT:      -7.7      1.887      2.625
REMARK SMILES CC(=O)CCc1ccc2c(c1)OCO2
REMARK SMILES IDX 4 1 2 2 1 3 3 4 5 5 6 6 7 7 11 8 8 9 10 10 9 11 12 12 14 13
REMARK SMILES IDX 13 14
REMARK H PARENT
REMARK Flexibility Score: inf
ROOT
ATOM      1  C   UNL     1       5.513   1.915   1.262  1.00  0.00     0.080 C 
ENDROOT
BRANCH   1   2
ATOM      2  C   UNL     1       5.063   0.702   1.999  1.00  0.00     0.130 C 
ATOM      3  C   UNL     1       5.940  -0.489   2.153  1.00  0.00     0.087 C 
ATOM      4  O   UNL     1       3.951   0.650   2.501  1.00  0.00    -0.300 OA
ENDBRANCH   1   2
BRANCH   1   5
ATOM      5  C   UNL     1       5.389   1.726  -0.237  1.00  0.00     0.043 C 
BRANCH   5   6
ATOM      6  C   UNL     1       6.558   1.027  -0.799  1.00  0.00    -0.044 A 
ATOM      7  C   UNL     1       7.864   1.466  -0.552  1.00  0.00     0.008 A 
ATOM      8  C   UNL     1       6.374  -0.089  -1.584  1.00  0.00     0.054 A 
ATOM      9  C   UNL     1       8.922   0.769  -1.105  1.00  0.00     0.051 A 
ATOM     10  C   UNL     1       7.447  -0.790  -2.140  1.00  0.00     0.166 A 
ATOM     11  C   UNL     1       8.732  -0.358  -1.899  1.00  0.00     0.165 A 
ATOM     12  O   UNL     1       7.524  -1.909  -2.943  1.00  0.00    -0.454 OA
ATOM     13  O   UNL     1       9.580  -1.229  -2.564  1.00  0.00    -0.454 OA
ATOM     14  C   UNL     1       8.861  -2.280  -3.163  1.00  0.00     0.468 C 
ENDBRANCH   5   6
ENDBRANCH   1   5
TORSDOF 3
ENDMDL
MODEL 3
REMARK VINA RESULT:      -7.5      1.961      3.053
REMARK SMILES CC(=O)CCc1ccc2c(c1)OCO2
REMARK SMILES IDX 4 1 2 2 1 3 3 4 5 5 6 6 7 7 11 8 8 9 10 10 9 11 12 12 14 13
REMARK SMILES IDX 13 14
REMARK H PARENT
REMARK Flexibility Score: inf
ROOT
ATOM      1  C   UNL     1       5.724   1.279  -0.319  1.00  0.00     0.080 C 
ENDROOT
BRANCH   1   2
ATOM      2  C   UNL     1       5.187   1.291   1.070  1.00  0.00     0.130 C 
ATOM      3  C   UNL     1       5.334   0.119   1.974  1.00  0.00     0.087 C 
ATOM      4  O   UNL     1       4.606   2.271   1.509  1.00  0.00    -0.300 OA
ENDBRANCH   1   2
BRANCH   1   5
ATOM      5  C   UNL     1       7.227   1.088  -0.326  1.00  0.00     0.043 C 
BRANCH   5   6
ATOM      6  C   UNL     1       7.610  -0.207  -0.917  1.00  0.00    -0.044 A 
ATOM      7  C   UNL     1       7.701  -0.384  -2.302  1.00  0.00     0.008 A 
ATOM      8  C   UNL     1       7.890  -1.276  -0.095  1.00  0.00     0.054 A 
ATOM      9  C   UNL     1       8.066  -1.622  -2.799  1.00  0.00     0.051 A 
ATOM     10  C   UNL     1       8.259  -2.525  -0.602  1.00  0.00     0.166 A 
ATOM     11  C   UNL     1       8.347  -2.700  -1.965  1.00  0.00     0.165 A 
ATOM     12  O   UNL     1       8.581  -3.724  -0.003  1.00  0.00    -0.454 OA
ATOM     13  O   UNL     1       8.727  -4.016  -2.177  1.00  0.00    -0.454 OA
ATOM     14  C   UNL     1       8.974  -4.676  -0.958  1.00  0.00     0.468 C 
ENDBRANCH   5   6
ENDBRANCH   1   5
TORSDOF 3
ENDMDL
