@<TRIPOS>MOLECULE
/home/cewinharhar/GITHUB/reincatalyze/data/processed/docking_pred/2023-May-22-1531_sub9_nm5_bs15_s42_ex16_mel10_mts1000_k50_ec02_g099_lra9e-4_lrc1e-3/93f5b296c54773c487a3666b5d29638d3a74aef5_ligand_9.pdbqt
 14 15 0 0 0
SMALL
GASTEIGER

@<TRIPOS>ATOM
      1  C          5.5000    2.8790    0.2130 C.3     1  UNL1        0.0800
      2  C          6.3120    3.8500    1.0000 C.2     1  UNL1        0.1300
      3  C          7.2740    4.7750    0.3440 C.3     1  UNL1        0.0870
      4  O          6.2090    3.9140    2.2140 O.2     1  UNL1       -0.3000
      5  C          5.3440    1.5650    0.9530 C.3     1  UNL1        0.0430
      6  C          6.1190    0.4850    0.3170 C.2     1  UNL1       -0.0440
      7  C          6.3990    0.4930   -1.0540 C.2     1  UNL1        0.0080
      8  C          6.5860   -0.5600    1.0810 C.2     1  UNL1        0.0540
      9  C          7.1320   -0.5480   -1.5950 C.2     1  UNL1        0.0510
     10  C          7.3270   -1.6100    0.5300 C.2     1  UNL1        0.1660
     11  C          7.6020   -1.6030   -0.8200 C.2     1  UNL1        0.1650
     12  O          7.8930   -2.7450    1.0690 O.2     1  UNL1       -0.4540
     13  O          8.3400   -2.7470   -1.0840 O.2     1  UNL1       -0.4540
     14  C          8.6250   -3.4520    0.1000 C.3     1  UNL1        0.4680
@<TRIPOS>BOND
     1     9     7    1
     2     9    11    2
     3    13    11    1
     4    13    14    1
     5     7     6    2
     6    11    10    1
     7    14    12    1
     8     1     5    1
     9     1     2    1
    10     6     5    1
    11     6     8    1
    12     3     2    1
    13    10    12    1
    14    10     8    2
    15     2     4    2
