@<TRIPOS>MOLECULE
/home/cewinharhar/GITHUB/reincatalyze/data/processed/docking_pred/2023-May-22-1531_sub9_nm5_bs15_s42_ex16_mel10_mts1000_k50_ec02_g099_lra9e-4_lrc1e-3/93f5b296c54773c487a3666b5d29638d3a74aef5_ligand_9.pdbqt
 14 15 0 0 0
SMALL
GASTEIGER

@<TRIPOS>ATOM
      1  C          5.3970    2.9170    0.1180 C.3     1  UNL1        0.0800
      2  C          6.2800    3.7820    0.9490 C.2     1  UNL1        0.1300
      3  C          7.2040    4.7720    0.3360 C.3     1  UNL1        0.0870
      4  O          6.2690    3.7020    2.1670 O.2     1  UNL1       -0.3000
      5  C          5.1210    1.5930    0.8030 C.3     1  UNL1        0.0430
      6  C          5.9810    0.5170    0.2800 C.2     1  UNL1       -0.0440
      7  C          6.3610   -0.5700    1.0750 C.2     1  UNL1        0.0080
      8  C          6.4250    0.5710   -1.0220 C.2     1  UNL1        0.0540
      9  C          7.1690   -1.5510    0.5290 C.2     1  UNL1        0.0510
     10  C          7.2410   -0.4230   -1.5700 C.2     1  UNL1        0.1660
     11  C          7.6170   -1.4930   -0.7880 C.2     1  UNL1        0.1650
     12  O          7.8060   -0.5950   -2.8160 O.2     1  UNL1       -0.4540
     13  O          8.4110   -2.3080   -1.5780 O.2     1  UNL1       -0.4540
     14  C          8.4830   -1.8230   -2.8980 C.3     1  UNL1        0.4680
@<TRIPOS>BOND
     1    14    12    1
     2    14    13    1
     3    12    10    1
     4    13    11    1
     5    10     8    1
     6    10    11    2
     7     8     6    2
     8    11     9    1
     9     1     5    1
    10     1     2    1
    11     6     5    1
    12     6     7    1
    13     3     2    1
    14     9     7    2
    15     2     4    2
