MODEL 1
REMARK VINA RESULT:      -7.9      0.000      0.000
REMARK SMILES CC(=O)CCc1ccc2c(c1)OCO2
REMARK SMILES IDX 4 1 2 2 1 3 3 4 5 5 6 6 7 7 11 8 8 9 10 10 9 11 12 12 14 13
REMARK SMILES IDX 13 14
REMARK H PARENT
REMARK Flexibility Score: inf
ROOT
ATOM      1  C   UNL     1       5.397   2.917   0.118  1.00  0.00     0.080 C 
ENDROOT
BRANCH   1   2
ATOM      2  C   UNL     1       6.280   3.782   0.949  1.00  0.00     0.130 C 
ATOM      3  C   UNL     1       7.204   4.772   0.336  1.00  0.00     0.087 C 
ATOM      4  O   UNL     1       6.269   3.702   2.167  1.00  0.00    -0.300 OA
ENDBRANCH   1   2
BRANCH   1   5
ATOM      5  C   UNL     1       5.121   1.593   0.803  1.00  0.00     0.043 C 
BRANCH   5   6
ATOM      6  C   UNL     1       5.981   0.517   0.280  1.00  0.00    -0.044 A 
ATOM      7  C   UNL     1       6.361  -0.570   1.075  1.00  0.00     0.008 A 
ATOM      8  C   UNL     1       6.425   0.571  -1.022  1.00  0.00     0.054 A 
ATOM      9  C   UNL     1       7.169  -1.551   0.529  1.00  0.00     0.051 A 
ATOM     10  C   UNL     1       7.241  -0.423  -1.570  1.00  0.00     0.166 A 
ATOM     11  C   UNL     1       7.617  -1.493  -0.788  1.00  0.00     0.165 A 
ATOM     12  O   UNL     1       7.806  -0.595  -2.816  1.00  0.00    -0.454 OA
ATOM     13  O   UNL     1       8.411  -2.308  -1.578  1.00  0.00    -0.454 OA
ATOM     14  C   UNL     1       8.483  -1.823  -2.898  1.00  0.00     0.468 C 
ENDBRANCH   5   6
ENDBRANCH   1   5
TORSDOF 3
ENDMDL
MODEL 2
REMARK VINA RESULT:      -7.8      0.995      1.978
REMARK SMILES CC(=O)CCc1ccc2c(c1)OCO2
REMARK SMILES IDX 4 1 2 2 1 3 3 4 5 5 6 6 7 7 11 8 8 9 10 10 9 11 12 12 14 13
REMARK SMILES IDX 13 14
REMARK H PARENT
REMARK Flexibility Score: inf
ROOT
ATOM      1  C   UNL     1       5.500   2.879   0.213  1.00  0.00     0.080 C 
ENDROOT
BRANCH   1   2
ATOM      2  C   UNL     1       6.312   3.850   1.000  1.00  0.00     0.130 C 
ATOM      3  C   UNL     1       7.274   4.775   0.344  1.00  0.00     0.087 C 
ATOM      4  O   UNL     1       6.209   3.914   2.214  1.00  0.00    -0.300 OA
ENDBRANCH   1   2
BRANCH   1   5
ATOM      5  C   UNL     1       5.344   1.565   0.953  1.00  0.00     0.043 C 
BRANCH   5   6
ATOM      6  C   UNL     1       6.119   0.485   0.317  1.00  0.00    -0.044 A 
ATOM      7  C   UNL     1       6.399   0.493  -1.054  1.00  0.00     0.008 A 
ATOM      8  C   UNL     1       6.586  -0.560   1.081  1.00  0.00     0.054 A 
ATOM      9  C   UNL     1       7.132  -0.548  -1.595  1.00  0.00     0.051 A 
ATOM     10  C   UNL     1       7.327  -1.610   0.530  1.00  0.00     0.166 A 
ATOM     11  C   UNL     1       7.602  -1.603  -0.820  1.00  0.00     0.165 A 
ATOM     12  O   UNL     1       7.893  -2.745   1.069  1.00  0.00    -0.454 OA
ATOM     13  O   UNL     1       8.340  -2.747  -1.084  1.00  0.00    -0.454 OA
ATOM     14  C   UNL     1       8.625  -3.452   0.100  1.00  0.00     0.468 C 
ENDBRANCH   5   6
ENDBRANCH   1   5
TORSDOF 3
ENDMDL
MODEL 3
REMARK VINA RESULT:      -7.7      1.877      2.607
REMARK SMILES CC(=O)CCc1ccc2c(c1)OCO2
REMARK SMILES IDX 4 1 2 2 1 3 3 4 5 5 6 6 7 7 11 8 8 9 10 10 9 11 12 12 14 13
REMARK SMILES IDX 13 14
REMARK H PARENT
REMARK Flexibility Score: inf
ROOT
ATOM      1  C   UNL     1       5.501   1.928   1.255  1.00  0.00     0.080 C 
ENDROOT
BRANCH   1   2
ATOM      2  C   UNL     1       5.056   0.714   1.994  1.00  0.00     0.130 C 
ATOM      3  C   UNL     1       5.938  -0.474   2.146  1.00  0.00     0.087 C 
ATOM      4  O   UNL     1       3.946   0.659   2.499  1.00  0.00    -0.300 OA
ENDBRANCH   1   2
BRANCH   1   5
ATOM      5  C   UNL     1       5.381   1.735  -0.244  1.00  0.00     0.043 C 
BRANCH   5   6
ATOM      6  C   UNL     1       6.552   1.034  -0.800  1.00  0.00    -0.044 A 
ATOM      7  C   UNL     1       7.857   1.467  -0.541  1.00  0.00     0.008 A 
ATOM      8  C   UNL     1       6.369  -0.076  -1.593  1.00  0.00     0.054 A 
ATOM      9  C   UNL     1       8.918   0.769  -1.089  1.00  0.00     0.051 A 
ATOM     10  C   UNL     1       7.445  -0.779  -2.144  1.00  0.00     0.166 A 
ATOM     11  C   UNL     1       8.729  -0.353  -1.891  1.00  0.00     0.165 A 
ATOM     12  O   UNL     1       7.524  -1.894  -2.952  1.00  0.00    -0.454 OA
ATOM     13  O   UNL     1       9.579  -1.224  -2.554  1.00  0.00    -0.454 OA
ATOM     14  C   UNL     1       8.860  -2.269  -3.165  1.00  0.00     0.468 C 
ENDBRANCH   5   6
ENDBRANCH   1   5
TORSDOF 3
ENDMDL
