@<TRIPOS>MOLECULE
/home/cewinharhar/GITHUB/reincatalyze/data/processed/docking_pred/2023-May-22-1531_sub9_nm5_bs15_s42_ex16_mel10_mts1000_k50_ec02_g099_lra9e-4_lrc1e-3/93f5b296c54773c487a3666b5d29638d3a74aef5_ligand_9.pdbqt
 14 15 0 0 0
SMALL
GASTEIGER

@<TRIPOS>ATOM
      1  C          5.5010    1.9280    1.2550 C.3     1  UNL1        0.0800
      2  C          5.0560    0.7140    1.9940 C.2     1  UNL1        0.1300
      3  C          5.9380   -0.4740    2.1460 C.3     1  UNL1        0.0870
      4  O          3.9460    0.6590    2.4990 O.2     1  UNL1       -0.3000
      5  C          5.3810    1.7350   -0.2440 C.3     1  UNL1        0.0430
      6  C          6.5520    1.0340   -0.8000 C.2     1  UNL1       -0.0440
      7  C          7.8570    1.4670   -0.5410 C.2     1  UNL1        0.0080
      8  C          6.3690   -0.0760   -1.5930 C.2     1  UNL1        0.0540
      9  C          8.9180    0.7690   -1.0890 C.2     1  UNL1        0.0510
     10  C          7.4450   -0.7790   -2.1440 C.2     1  UNL1        0.1660
     11  C          8.7290   -0.3530   -1.8910 C.2     1  UNL1        0.1650
     12  O          7.5240   -1.8940   -2.9520 O.2     1  UNL1       -0.4540
     13  O          9.5790   -1.2240   -2.5540 O.2     1  UNL1       -0.4540
     14  C          8.8600   -2.2690   -3.1650 C.3     1  UNL1        0.4680
@<TRIPOS>BOND
     1    14    12    1
     2    14    13    1
     3    12    10    1
     4    13    11    1
     5    10    11    2
     6    10     8    1
     7    11     9    1
     8     8     6    2
     9     9     7    2
    10     6     7    1
    11     6     5    1
    12     5     1    1
    13     1     2    1
    14     2     3    1
    15     2     4    2
