MODEL 1
REMARK VINA RESULT:      -7.6      0.000      0.000
REMARK SMILES CC(=O)CCc1ccc2c(c1)OCO2
REMARK SMILES IDX 4 1 2 2 1 3 3 4 5 5 6 6 7 7 11 8 8 9 10 10 9 11 12 12 14 13
REMARK SMILES IDX 13 14
REMARK H PARENT
REMARK Flexibility Score: inf
ROOT
ATOM      1  C   UNL     1       5.504   1.926   1.258  1.00  0.00     0.080 C 
ENDROOT
BRANCH   1   2
ATOM      2  C   UNL     1       5.059   0.712   1.999  1.00  0.00     0.130 C 
ATOM      3  C   UNL     1       5.941  -0.475   2.153  1.00  0.00     0.087 C 
ATOM      4  O   UNL     1       3.949   0.658   2.503  1.00  0.00    -0.300 OA
ENDBRANCH   1   2
BRANCH   1   5
ATOM      5  C   UNL     1       5.382   1.732  -0.240  1.00  0.00     0.043 C 
BRANCH   5   6
ATOM      6  C   UNL     1       6.554   1.033  -0.798  1.00  0.00    -0.044 A 
ATOM      7  C   UNL     1       7.858   1.469  -0.541  1.00  0.00     0.008 A 
ATOM      8  C   UNL     1       6.372  -0.078  -1.589  1.00  0.00     0.054 A 
ATOM      9  C   UNL     1       8.919   0.773  -1.091  1.00  0.00     0.051 A 
ATOM     10  C   UNL     1       7.448  -0.779  -2.142  1.00  0.00     0.166 A 
ATOM     11  C   UNL     1       8.732  -0.350  -1.891  1.00  0.00     0.165 A 
ATOM     12  O   UNL     1       7.528  -1.894  -2.949  1.00  0.00    -0.454 OA
ATOM     13  O   UNL     1       9.582  -1.220  -2.555  1.00  0.00    -0.454 OA
ATOM     14  C   UNL     1       8.865  -2.267  -3.164  1.00  0.00     0.468 C 
ENDBRANCH   5   6
ENDBRANCH   1   5
TORSDOF 3
ENDMDL
MODEL 2
REMARK VINA RESULT:      -7.5      1.937      2.418
REMARK SMILES CC(=O)CCc1ccc2c(c1)OCO2
REMARK SMILES IDX 4 1 2 2 1 3 3 4 5 5 6 6 7 7 11 8 8 9 10 10 9 11 12 12 14 13
REMARK SMILES IDX 13 14
REMARK H PARENT
REMARK Flexibility Score: inf
ROOT
ATOM      1  C   UNL     1       5.763   1.344  -0.365  1.00  0.00     0.080 C 
ENDROOT
BRANCH   1   2
ATOM      2  C   UNL     1       5.124   1.315   0.980  1.00  0.00     0.130 C 
ATOM      3  C   UNL     1       5.374   0.205   1.939  1.00  0.00     0.087 C 
ATOM      4  O   UNL     1       4.372   2.208   1.337  1.00  0.00    -0.300 OA
ENDBRANCH   1   2
BRANCH   1   5
ATOM      5  C   UNL     1       7.254   1.091  -0.272  1.00  0.00     0.043 C 
BRANCH   5   6
ATOM      6  C   UNL     1       7.627  -0.202  -0.874  1.00  0.00    -0.044 A 
ATOM      7  C   UNL     1       7.713  -0.368  -2.261  1.00  0.00     0.008 A 
ATOM      8  C   UNL     1       7.903  -1.278  -0.061  1.00  0.00     0.054 A 
ATOM      9  C   UNL     1       8.068  -1.604  -2.769  1.00  0.00     0.051 A 
ATOM     10  C   UNL     1       8.263  -2.526  -0.579  1.00  0.00     0.166 A 
ATOM     11  C   UNL     1       8.346  -2.690  -1.944  1.00  0.00     0.165 A 
ATOM     12  O   UNL     1       8.579  -3.732   0.009  1.00  0.00    -0.454 OA
ATOM     13  O   UNL     1       8.717  -4.007  -2.168  1.00  0.00    -0.454 OA
ATOM     14  C   UNL     1       8.964  -4.678  -0.955  1.00  0.00     0.468 C 
ENDBRANCH   5   6
ENDBRANCH   1   5
TORSDOF 3
ENDMDL
MODEL 3
REMARK VINA RESULT:      -7.1      2.025      2.577
REMARK SMILES CC(=O)CCc1ccc2c(c1)OCO2
REMARK SMILES IDX 4 1 2 2 1 3 3 4 5 5 6 6 7 7 11 8 8 9 10 10 9 11 12 12 14 13
REMARK SMILES IDX 13 14
REMARK H PARENT
REMARK Flexibility Score: inf
ROOT
ATOM      1  C   UNL     1       5.734   2.512   1.246  1.00  0.00     0.080 C 
ENDROOT
BRANCH   1   2
ATOM      2  C   UNL     1       6.374   3.850   1.108  1.00  0.00     0.130 C 
ATOM      3  C   UNL     1       6.889   4.595   2.288  1.00  0.00     0.087 C 
ATOM      4  O   UNL     1       6.494   4.377   0.014  1.00  0.00    -0.300 OA
ENDBRANCH   1   2
BRANCH   1   5
ATOM      5  C   UNL     1       5.398   1.920  -0.108  1.00  0.00     0.043 C 
BRANCH   5   6
ATOM      6  C   UNL     1       6.170   0.693  -0.375  1.00  0.00    -0.044 A 
ATOM      7  C   UNL     1       6.342  -0.292   0.604  1.00  0.00     0.008 A 
ATOM      8  C   UNL     1       6.736   0.499  -1.614  1.00  0.00     0.054 A 
ATOM      9  C   UNL     1       7.076  -1.423   0.296  1.00  0.00     0.051 A 
ATOM     10  C   UNL     1       7.476  -0.646  -1.921  1.00  0.00     0.166 A 
ATOM     11  C   UNL     1       7.648  -1.615  -0.957  1.00  0.00     0.165 A 
ATOM     12  O   UNL     1       8.130  -1.066  -3.060  1.00  0.00    -0.454 OA
ATOM     13  O   UNL     1       8.410  -2.621  -1.531  1.00  0.00    -0.454 OA
ATOM     14  C   UNL     1       8.661  -2.355  -2.891  1.00  0.00     0.468 C 
ENDBRANCH   5   6
ENDBRANCH   1   5
TORSDOF 3
ENDMDL
