@<TRIPOS>MOLECULE
/home/cewinharhar/GITHUB/reincatalyze/data/processed/docking_pred/2023-May-22-1531_sub9_nm5_bs15_s42_ex16_mel10_mts1000_k50_ec02_g099_lra9e-4_lrc1e-3/955e59fc22a1e87e2ab10a68f3a5c98643a236a4_ligand_9.pdbqt
 14 15 0 0 0
SMALL
GASTEIGER

@<TRIPOS>ATOM
      1  C          5.7340    2.5120    1.2460 C.3     1  UNL1        0.0800
      2  C          6.3740    3.8500    1.1080 C.2     1  UNL1        0.1300
      3  C          6.8890    4.5950    2.2880 C.3     1  UNL1        0.0870
      4  O          6.4940    4.3770    0.0140 O.2     1  UNL1       -0.3000
      5  C          5.3980    1.9200   -0.1080 C.3     1  UNL1        0.0430
      6  C          6.1700    0.6930   -0.3750 C.2     1  UNL1       -0.0440
      7  C          6.3420   -0.2920    0.6040 C.2     1  UNL1        0.0080
      8  C          6.7360    0.4990   -1.6140 C.2     1  UNL1        0.0540
      9  C          7.0760   -1.4230    0.2960 C.2     1  UNL1        0.0510
     10  C          7.4760   -0.6460   -1.9210 C.2     1  UNL1        0.1660
     11  C          7.6480   -1.6150   -0.9570 C.2     1  UNL1        0.1650
     12  O          8.1300   -1.0660   -3.0600 O.2     1  UNL1       -0.4540
     13  O          8.4100   -2.6210   -1.5310 O.2     1  UNL1       -0.4540
     14  C          8.6610   -2.3550   -2.8910 C.3     1  UNL1        0.4680
@<TRIPOS>BOND
     1    12    14    1
     2    12    10    1
     3    14    13    1
     4    10     8    1
     5    10    11    2
     6     8     6    2
     7    13    11    1
     8    11     9    1
     9     6     5    1
    10     6     7    1
    11     5     1    1
    12     4     2    2
    13     9     7    2
    14     2     1    1
    15     2     3    1
