@<TRIPOS>MOLECULE
/home/cewinharhar/GITHUB/reincatalyze/data/processed/docking_pred/2023-May-22-1531_sub9_nm5_bs15_s42_ex16_mel10_mts1000_k50_ec02_g099_lra9e-4_lrc1e-3/955e59fc22a1e87e2ab10a68f3a5c98643a236a4_ligand_9.pdbqt
 14 15 0 0 0
SMALL
GASTEIGER

@<TRIPOS>ATOM
      1  C          5.7630    1.3440   -0.3650 C.3     1  UNL1        0.0800
      2  C          5.1240    1.3150    0.9800 C.2     1  UNL1        0.1300
      3  C          5.3740    0.2050    1.9390 C.3     1  UNL1        0.0870
      4  O          4.3720    2.2080    1.3370 O.2     1  UNL1       -0.3000
      5  C          7.2540    1.0910   -0.2720 C.3     1  UNL1        0.0430
      6  C          7.6270   -0.2020   -0.8740 C.2     1  UNL1       -0.0440
      7  C          7.7130   -0.3680   -2.2610 C.2     1  UNL1        0.0080
      8  C          7.9030   -1.2780   -0.0610 C.2     1  UNL1        0.0540
      9  C          8.0680   -1.6040   -2.7690 C.2     1  UNL1        0.0510
     10  C          8.2630   -2.5260   -0.5790 C.2     1  UNL1        0.1660
     11  C          8.3460   -2.6900   -1.9440 C.2     1  UNL1        0.1650
     12  O          8.5790   -3.7320    0.0090 O.2     1  UNL1       -0.4540
     13  O          8.7170   -4.0070   -2.1680 O.2     1  UNL1       -0.4540
     14  C          8.9640   -4.6780   -0.9550 C.3     1  UNL1        0.4680
@<TRIPOS>BOND
     1     9     7    1
     2     9    11    2
     3     7     6    2
     4    13    11    1
     5    13    14    1
     6    11    10    1
     7    14    12    1
     8     6     5    1
     9     6     8    1
    10    10     8    2
    11    10    12    1
    12     1     5    1
    13     1     2    1
    14     2     4    2
    15     2     3    1
