@<TRIPOS>MOLECULE
/home/cewinharhar/GITHUB/reincatalyze/data/processed/docking_pred/2023-May-22-1531_sub9_nm5_bs15_s42_ex16_mel10_mts1000_k50_ec02_g099_lra9e-4_lrc1e-3/9a7d3f5f853688f06c0e35b58fb12e655ab1ce10_ligand_9.pdbqt
 14 15 0 0 0
SMALL
GASTEIGER

@<TRIPOS>ATOM
      1  C          5.3510    3.0180    0.1940 C.3     1  UNL1        0.0800
      2  C          6.2270    3.8720    1.0440 C.2     1  UNL1        0.1300
      3  C          7.2490    4.7750    0.4510 C.3     1  UNL1        0.0870
      4  O          6.1300    3.8530    2.2600 O.2     1  UNL1       -0.3000
      5  C          5.0850    1.6770    0.8500 C.3     1  UNL1        0.0430
      6  C          5.9510    0.6190    0.2990 C.2     1  UNL1       -0.0440
      7  C          6.4210    0.6670   -1.0180 C.2     1  UNL1        0.0080
      8  C          6.3130   -0.4460    1.0920 C.2     1  UNL1        0.0540
      9  C          7.2310   -0.3550   -1.4790 C.2     1  UNL1        0.0510
     10  C          7.1330   -1.4760    0.6210 C.2     1  UNL1        0.1660
     11  C          7.5950   -1.4300   -0.6750 C.2     1  UNL1        0.1650
     12  O          7.6270   -2.6250    1.2030 O.2     1  UNL1       -0.4540
     13  O          8.3720   -2.5620   -0.8640 O.2     1  UNL1       -0.4540
     14  C          8.4930   -3.3010    0.3280 C.3     1  UNL1        0.4680
@<TRIPOS>BOND
     1     9     7    1
     2     9    11    2
     3     7     6    2
     4    13    11    1
     5    13    14    1
     6    11    10    1
     7     1     5    1
     8     1     2    1
     9     6     5    1
    10     6     8    1
    11    14    12    1
    12     3     2    1
    13    10     8    2
    14    10    12    1
    15     2     4    2
