@<TRIPOS>MOLECULE
/home/cewinharhar/GITHUB/reincatalyze/data/processed/docking_pred/2023-May-22-1531_sub9_nm5_bs15_s42_ex16_mel10_mts1000_k50_ec02_g099_lra9e-4_lrc1e-3/9a7d3f5f853688f06c0e35b58fb12e655ab1ce10_ligand_9.pdbqt
 14 15 0 0 0
SMALL
GASTEIGER

@<TRIPOS>ATOM
      1  C          5.4630    2.8870    0.2920 C.3     1  UNL1        0.0800
      2  C          6.3790    3.7640    1.0740 C.2     1  UNL1        0.1300
      3  C          7.2470    4.7740    0.4120 C.3     1  UNL1        0.0870
      4  O          6.4430    3.6780    2.2900 O.2     1  UNL1       -0.3000
      5  C          5.2250    1.5690    1.0020 C.3     1  UNL1        0.0430
      6  C          6.0600    0.4900    0.4450 C.2     1  UNL1       -0.0440
      7  C          6.4480   -0.6100    1.2190 C.2     1  UNL1        0.0080
      8  C          6.4730    0.5540   -0.8660 C.2     1  UNL1        0.0540
      9  C          7.2320   -1.5930    0.6430 C.2     1  UNL1        0.0510
     10  C          7.2650   -0.4430   -1.4440 C.2     1  UNL1        0.1660
     11  C          7.6480   -1.5250   -0.6830 C.2     1  UNL1        0.1650
     12  O          7.7970   -0.6060   -2.7060 O.2     1  UNL1       -0.4540
     13  O          8.4140   -2.3390   -1.5020 O.2     1  UNL1       -0.4540
     14  C          8.4590   -1.8400   -2.8180 C.3     1  UNL1        0.4680
@<TRIPOS>BOND
     1    14    12    1
     2    14    13    1
     3    12    10    1
     4    13    11    1
     5    10     8    1
     6    10    11    2
     7     8     6    2
     8    11     9    1
     9     1     5    1
    10     1     2    1
    11     3     2    1
    12     6     5    1
    13     6     7    1
    14     9     7    2
    15     2     4    2
