MODEL 1
REMARK VINA RESULT:      -7.8      0.000      0.000
REMARK SMILES CC(=O)CCc1ccc2c(c1)OCO2
REMARK SMILES IDX 4 1 2 2 1 3 3 4 5 5 6 6 7 7 11 8 8 9 10 10 9 11 12 12 14 13
REMARK SMILES IDX 13 14
REMARK H PARENT
REMARK Flexibility Score: inf
ROOT
ATOM      1  C   UNL     1       5.463   2.887   0.292  1.00  0.00     0.080 C 
ENDROOT
BRANCH   1   2
ATOM      2  C   UNL     1       6.379   3.764   1.074  1.00  0.00     0.130 C 
ATOM      3  C   UNL     1       7.247   4.774   0.412  1.00  0.00     0.087 C 
ATOM      4  O   UNL     1       6.443   3.678   2.290  1.00  0.00    -0.300 OA
ENDBRANCH   1   2
BRANCH   1   5
ATOM      5  C   UNL     1       5.225   1.569   1.002  1.00  0.00     0.043 C 
BRANCH   5   6
ATOM      6  C   UNL     1       6.060   0.490   0.445  1.00  0.00    -0.044 A 
ATOM      7  C   UNL     1       6.448  -0.610   1.219  1.00  0.00     0.008 A 
ATOM      8  C   UNL     1       6.473   0.554  -0.866  1.00  0.00     0.054 A 
ATOM      9  C   UNL     1       7.232  -1.593   0.643  1.00  0.00     0.051 A 
ATOM     10  C   UNL     1       7.265  -0.443  -1.444  1.00  0.00     0.166 A 
ATOM     11  C   UNL     1       7.648  -1.525  -0.683  1.00  0.00     0.165 A 
ATOM     12  O   UNL     1       7.797  -0.606  -2.706  1.00  0.00    -0.454 OA
ATOM     13  O   UNL     1       8.414  -2.339  -1.502  1.00  0.00    -0.454 OA
ATOM     14  C   UNL     1       8.459  -1.840  -2.818  1.00  0.00     0.468 C 
ENDBRANCH   5   6
ENDBRANCH   1   5
TORSDOF 3
ENDMDL
MODEL 2
REMARK VINA RESULT:      -7.7      0.999      1.983
REMARK SMILES CC(=O)CCc1ccc2c(c1)OCO2
REMARK SMILES IDX 4 1 2 2 1 3 3 4 5 5 6 6 7 7 11 8 8 9 10 10 9 11 12 12 14 13
REMARK SMILES IDX 13 14
REMARK H PARENT
REMARK Flexibility Score: inf
ROOT
ATOM      1  C   UNL     1       5.351   3.018   0.194  1.00  0.00     0.080 C 
ENDROOT
BRANCH   1   2
ATOM      2  C   UNL     1       6.227   3.872   1.044  1.00  0.00     0.130 C 
ATOM      3  C   UNL     1       7.249   4.775   0.451  1.00  0.00     0.087 C 
ATOM      4  O   UNL     1       6.130   3.853   2.260  1.00  0.00    -0.300 OA
ENDBRANCH   1   2
BRANCH   1   5
ATOM      5  C   UNL     1       5.085   1.677   0.850  1.00  0.00     0.043 C 
BRANCH   5   6
ATOM      6  C   UNL     1       5.951   0.619   0.299  1.00  0.00    -0.044 A 
ATOM      7  C   UNL     1       6.421   0.667  -1.018  1.00  0.00     0.008 A 
ATOM      8  C   UNL     1       6.313  -0.446   1.092  1.00  0.00     0.054 A 
ATOM      9  C   UNL     1       7.231  -0.355  -1.479  1.00  0.00     0.051 A 
ATOM     10  C   UNL     1       7.133  -1.476   0.621  1.00  0.00     0.166 A 
ATOM     11  C   UNL     1       7.595  -1.430  -0.675  1.00  0.00     0.165 A 
ATOM     12  O   UNL     1       7.627  -2.625   1.203  1.00  0.00    -0.454 OA
ATOM     13  O   UNL     1       8.372  -2.562  -0.864  1.00  0.00    -0.454 OA
ATOM     14  C   UNL     1       8.493  -3.301   0.328  1.00  0.00     0.468 C 
ENDBRANCH   5   6
ENDBRANCH   1   5
TORSDOF 3
ENDMDL
MODEL 3
REMARK VINA RESULT:      -7.6      1.903      2.641
REMARK SMILES CC(=O)CCc1ccc2c(c1)OCO2
REMARK SMILES IDX 4 1 2 2 1 3 3 4 5 5 6 6 7 7 11 8 8 9 10 10 9 11 12 12 14 13
REMARK SMILES IDX 13 14
REMARK H PARENT
REMARK Flexibility Score: inf
ROOT
ATOM      1  C   UNL     1       5.507   1.924   1.262  1.00  0.00     0.080 C 
ENDROOT
BRANCH   1   2
ATOM      2  C   UNL     1       5.060   0.709   1.999  1.00  0.00     0.130 C 
ATOM      3  C   UNL     1       5.941  -0.479   2.155  1.00  0.00     0.087 C 
ATOM      4  O   UNL     1       3.948   0.654   2.500  1.00  0.00    -0.300 OA
ENDBRANCH   1   2
BRANCH   1   5
ATOM      5  C   UNL     1       5.385   1.733  -0.237  1.00  0.00     0.043 C 
BRANCH   5   6
ATOM      6  C   UNL     1       6.555   1.032  -0.796  1.00  0.00    -0.044 A 
ATOM      7  C   UNL     1       7.861   1.468  -0.543  1.00  0.00     0.008 A 
ATOM      8  C   UNL     1       6.370  -0.080  -1.586  1.00  0.00     0.054 A 
ATOM      9  C   UNL     1       8.920   0.769  -1.094  1.00  0.00     0.051 A 
ATOM     10  C   UNL     1       7.444  -0.782  -2.140  1.00  0.00     0.166 A 
ATOM     11  C   UNL     1       8.730  -0.354  -1.892  1.00  0.00     0.165 A 
ATOM     12  O   UNL     1       7.522  -1.898  -2.946  1.00  0.00    -0.454 OA
ATOM     13  O   UNL     1       9.578  -1.226  -2.557  1.00  0.00    -0.454 OA
ATOM     14  C   UNL     1       8.858  -2.273  -3.163  1.00  0.00     0.468 C 
ENDBRANCH   5   6
ENDBRANCH   1   5
TORSDOF 3
ENDMDL
