@<TRIPOS>MOLECULE
/home/cewinharhar/GITHUB/reincatalyze/data/processed/docking_pred/2023-May-22-1531_sub9_nm5_bs15_s42_ex16_mel10_mts1000_k50_ec02_g099_lra9e-4_lrc1e-3/9c92d7019ca479aa147a964f0da84773825070a7_ligand_9.pdbqt
 14 15 0 0 0
SMALL
GASTEIGER

@<TRIPOS>ATOM
      1  C          5.4670    2.8990    0.2680 C.3     1  UNL1        0.0800
      2  C          6.2870    3.8730    1.0410 C.2     1  UNL1        0.1300
      3  C          7.2630    4.7750    0.3740 C.3     1  UNL1        0.0870
      4  O          6.1800    3.9580    2.2540 O.2     1  UNL1       -0.3000
      5  C          5.2830    1.6040    1.0340 C.3     1  UNL1        0.0430
      6  C          6.0760    0.5070    0.4510 C.2     1  UNL1       -0.0440
      7  C          6.4660   -0.6010    1.2130 C.2     1  UNL1        0.0080
      8  C          6.4470    0.5610   -0.8730 C.2     1  UNL1        0.0540
      9  C          7.2100   -1.6000    0.6130 C.2     1  UNL1        0.0510
     10  C          7.1980   -0.4520   -1.4760 C.2     1  UNL1        0.1660
     11  C          7.5830   -1.5410   -0.7260 C.2     1  UNL1        0.1650
     12  O          7.6840   -0.6280   -2.7540 O.2     1  UNL1       -0.4540
     13  O          8.3050   -2.3720   -1.5690 O.2     1  UNL1       -0.4540
     14  C          8.3160   -1.8750   -2.8860 C.3     1  UNL1        0.4680
@<TRIPOS>BOND
     1    14    12    1
     2    14    13    1
     3    12    10    1
     4    13    11    1
     5    10     8    1
     6    10    11    2
     7     8     6    2
     8    11     9    1
     9     1     5    1
    10     1     2    1
    11     3     2    1
    12     6     5    1
    13     6     7    1
    14     9     7    2
    15     2     4    2
