MODEL 1
REMARK VINA RESULT:      -7.8      0.000      0.000
REMARK SMILES CC(=O)CCc1ccc2c(c1)OCO2
REMARK SMILES IDX 4 1 2 2 1 3 3 4 5 5 6 6 7 7 11 8 8 9 10 10 9 11 12 12 14 13
REMARK SMILES IDX 13 14
REMARK H PARENT
REMARK Flexibility Score: inf
ROOT
ATOM      1  C   UNL     1       5.467   2.899   0.268  1.00  0.00     0.080 C 
ENDROOT
BRANCH   1   2
ATOM      2  C   UNL     1       6.287   3.873   1.041  1.00  0.00     0.130 C 
ATOM      3  C   UNL     1       7.263   4.775   0.374  1.00  0.00     0.087 C 
ATOM      4  O   UNL     1       6.180   3.958   2.254  1.00  0.00    -0.300 OA
ENDBRANCH   1   2
BRANCH   1   5
ATOM      5  C   UNL     1       5.283   1.604   1.034  1.00  0.00     0.043 C 
BRANCH   5   6
ATOM      6  C   UNL     1       6.076   0.507   0.451  1.00  0.00    -0.044 A 
ATOM      7  C   UNL     1       6.466  -0.601   1.213  1.00  0.00     0.008 A 
ATOM      8  C   UNL     1       6.447   0.561  -0.873  1.00  0.00     0.054 A 
ATOM      9  C   UNL     1       7.210  -1.600   0.613  1.00  0.00     0.051 A 
ATOM     10  C   UNL     1       7.198  -0.452  -1.476  1.00  0.00     0.166 A 
ATOM     11  C   UNL     1       7.583  -1.541  -0.726  1.00  0.00     0.165 A 
ATOM     12  O   UNL     1       7.684  -0.628  -2.754  1.00  0.00    -0.454 OA
ATOM     13  O   UNL     1       8.305  -2.372  -1.569  1.00  0.00    -0.454 OA
ATOM     14  C   UNL     1       8.316  -1.875  -2.886  1.00  0.00     0.468 C 
ENDBRANCH   5   6
ENDBRANCH   1   5
TORSDOF 3
ENDMDL
MODEL 2
REMARK VINA RESULT:      -7.6      1.909      2.657
REMARK SMILES CC(=O)CCc1ccc2c(c1)OCO2
REMARK SMILES IDX 4 1 2 2 1 3 3 4 5 5 6 6 7 7 11 8 8 9 10 10 9 11 12 12 14 13
REMARK SMILES IDX 13 14
REMARK H PARENT
REMARK Flexibility Score: inf
ROOT
ATOM      1  C   UNL     1       5.537   1.921   1.264  1.00  0.00     0.080 C 
ENDROOT
BRANCH   1   2
ATOM      2  C   UNL     1       5.105   0.702   2.002  1.00  0.00     0.130 C 
ATOM      3  C   UNL     1       6.011  -0.464   2.183  1.00  0.00     0.087 C 
ATOM      4  O   UNL     1       3.986   0.624   2.483  1.00  0.00    -0.300 OA
ENDBRANCH   1   2
BRANCH   1   5
ATOM      5  C   UNL     1       5.410   1.731  -0.235  1.00  0.00     0.043 C 
BRANCH   5   6
ATOM      6  C   UNL     1       6.575   1.025  -0.796  1.00  0.00    -0.044 A 
ATOM      7  C   UNL     1       7.884   1.453  -0.545  1.00  0.00     0.008 A 
ATOM      8  C   UNL     1       6.384  -0.086  -1.587  1.00  0.00     0.054 A 
ATOM      9  C   UNL     1       8.938   0.750  -1.098  1.00  0.00     0.051 A 
ATOM     10  C   UNL     1       7.454  -0.794  -2.143  1.00  0.00     0.166 A 
ATOM     11  C   UNL     1       8.741  -0.372  -1.897  1.00  0.00     0.165 A 
ATOM     12  O   UNL     1       7.524  -1.910  -2.950  1.00  0.00    -0.454 OA
ATOM     13  O   UNL     1       9.584  -1.247  -2.564  1.00  0.00    -0.454 OA
ATOM     14  C   UNL     1       8.858  -2.290  -3.169  1.00  0.00     0.468 C 
ENDBRANCH   5   6
ENDBRANCH   1   5
TORSDOF 3
ENDMDL
MODEL 3
REMARK VINA RESULT:      -7.5      1.984      3.039
REMARK SMILES CC(=O)CCc1ccc2c(c1)OCO2
REMARK SMILES IDX 4 1 2 2 1 3 3 4 5 5 6 6 7 7 11 8 8 9 10 10 9 11 12 12 14 13
REMARK SMILES IDX 13 14
REMARK H PARENT
REMARK Flexibility Score: inf
ROOT
ATOM      1  C   UNL     1       5.746   1.362  -0.330  1.00  0.00     0.080 C 
ENDROOT
BRANCH   1   2
ATOM      2  C   UNL     1       5.132   1.297   1.026  1.00  0.00     0.130 C 
ATOM      3  C   UNL     1       5.392   0.158   1.947  1.00  0.00     0.087 C 
ATOM      4  O   UNL     1       4.391   2.183   1.421  1.00  0.00    -0.300 OA
ENDBRANCH   1   2
BRANCH   1   5
ATOM      5  C   UNL     1       7.238   1.099  -0.271  1.00  0.00     0.043 C 
BRANCH   5   6
ATOM      6  C   UNL     1       7.589  -0.195  -0.881  1.00  0.00    -0.044 A 
ATOM      7  C   UNL     1       7.610  -0.370  -2.270  1.00  0.00     0.008 A 
ATOM      8  C   UNL     1       7.908  -1.265  -0.076  1.00  0.00     0.054 A 
ATOM      9  C   UNL     1       7.948  -1.608  -2.786  1.00  0.00     0.051 A 
ATOM     10  C   UNL     1       8.249  -2.514  -0.602  1.00  0.00     0.166 A 
ATOM     11  C   UNL     1       8.269  -2.687  -1.968  1.00  0.00     0.165 A 
ATOM     12  O   UNL     1       8.599  -3.715  -0.022  1.00  0.00    -0.454 OA
ATOM     13  O   UNL     1       8.636  -4.003  -2.201  1.00  0.00    -0.454 OA
ATOM     14  C   UNL     1       8.943  -4.666  -0.997  1.00  0.00     0.468 C 
ENDBRANCH   5   6
ENDBRANCH   1   5
TORSDOF 3
ENDMDL
