@<TRIPOS>MOLECULE
/home/cewinharhar/GITHUB/reincatalyze/data/processed/docking_pred/2023-May-22-1531_sub9_nm5_bs15_s42_ex16_mel10_mts1000_k50_ec02_g099_lra9e-4_lrc1e-3/9c92d7019ca479aa147a964f0da84773825070a7_ligand_9.pdbqt
 14 15 0 0 0
SMALL
GASTEIGER

@<TRIPOS>ATOM
      1  C          5.7460    1.3620   -0.3300 C.3     1  UNL1        0.0800
      2  C          5.1320    1.2970    1.0260 C.2     1  UNL1        0.1300
      3  C          5.3920    0.1580    1.9470 C.3     1  UNL1        0.0870
      4  O          4.3910    2.1830    1.4210 O.2     1  UNL1       -0.3000
      5  C          7.2380    1.0990   -0.2710 C.3     1  UNL1        0.0430
      6  C          7.5890   -0.1950   -0.8810 C.2     1  UNL1       -0.0440
      7  C          7.6100   -0.3700   -2.2700 C.2     1  UNL1        0.0080
      8  C          7.9080   -1.2650   -0.0760 C.2     1  UNL1        0.0540
      9  C          7.9480   -1.6080   -2.7860 C.2     1  UNL1        0.0510
     10  C          8.2490   -2.5140   -0.6020 C.2     1  UNL1        0.1660
     11  C          8.2690   -2.6870   -1.9680 C.2     1  UNL1        0.1650
     12  O          8.5990   -3.7150   -0.0220 O.2     1  UNL1       -0.4540
     13  O          8.6360   -4.0030   -2.2010 O.2     1  UNL1       -0.4540
     14  C          8.9430   -4.6660   -0.9970 C.3     1  UNL1        0.4680
@<TRIPOS>BOND
     1     9     7    1
     2     9    11    2
     3     7     6    2
     4    13    11    1
     5    13    14    1
     6    11    10    1
     7    14    12    1
     8     6     5    1
     9     6     8    1
    10    10     8    2
    11    10    12    1
    12     1     5    1
    13     1     2    1
    14     2     4    2
    15     2     3    1
