MODEL 1
REMARK VINA RESULT:      -7.6      0.000      0.000
REMARK SMILES CC(=O)CCc1ccc2c(c1)OCO2
REMARK SMILES IDX 4 1 2 2 1 3 3 4 5 5 6 6 7 7 11 8 8 9 10 10 9 11 12 12 14 13
REMARK SMILES IDX 13 14
REMARK H PARENT
REMARK Flexibility Score: inf
ROOT
ATOM      1  C   UNL     1       5.529   1.915   1.267  1.00  0.00     0.080 C 
ENDROOT
BRANCH   1   2
ATOM      2  C   UNL     1       5.098   0.695   2.005  1.00  0.00     0.130 C 
ATOM      3  C   UNL     1       6.002  -0.474   2.177  1.00  0.00     0.087 C 
ATOM      4  O   UNL     1       3.982   0.619   2.493  1.00  0.00    -0.300 OA
ENDBRANCH   1   2
BRANCH   1   5
ATOM      5  C   UNL     1       5.402   1.725  -0.232  1.00  0.00     0.043 C 
BRANCH   5   6
ATOM      6  C   UNL     1       6.568   1.022  -0.795  1.00  0.00    -0.044 A 
ATOM      7  C   UNL     1       7.876   1.455  -0.547  1.00  0.00     0.008 A 
ATOM      8  C   UNL     1       6.378  -0.090  -1.583  1.00  0.00     0.054 A 
ATOM      9  C   UNL     1       8.931   0.754  -1.101  1.00  0.00     0.051 A 
ATOM     10  C   UNL     1       7.449  -0.796  -2.141  1.00  0.00     0.166 A 
ATOM     11  C   UNL     1       8.736  -0.370  -1.898  1.00  0.00     0.165 A 
ATOM     12  O   UNL     1       7.521  -1.913  -2.946  1.00  0.00    -0.454 OA
ATOM     13  O   UNL     1       9.580  -1.243  -2.566  1.00  0.00    -0.454 OA
ATOM     14  C   UNL     1       8.856  -2.289  -3.168  1.00  0.00     0.468 C 
ENDBRANCH   5   6
ENDBRANCH   1   5
TORSDOF 3
ENDMDL
MODEL 2
REMARK VINA RESULT:      -7.5      1.919      2.383
REMARK SMILES CC(=O)CCc1ccc2c(c1)OCO2
REMARK SMILES IDX 4 1 2 2 1 3 3 4 5 5 6 6 7 7 11 8 8 9 10 10 9 11 12 12 14 13
REMARK SMILES IDX 13 14
REMARK H PARENT
REMARK Flexibility Score: inf
ROOT
ATOM      1  C   UNL     1       5.738   1.334  -0.325  1.00  0.00     0.080 C 
ENDROOT
BRANCH   1   2
ATOM      2  C   UNL     1       5.135   1.291   1.037  1.00  0.00     0.130 C 
ATOM      3  C   UNL     1       5.344   0.134   1.947  1.00  0.00     0.087 C 
ATOM      4  O   UNL     1       4.447   2.212   1.446  1.00  0.00    -0.300 OA
ENDBRANCH   1   2
BRANCH   1   5
ATOM      5  C   UNL     1       7.235   1.107  -0.271  1.00  0.00     0.043 C 
BRANCH   5   6
ATOM      6  C   UNL     1       7.614  -0.183  -0.877  1.00  0.00    -0.044 A 
ATOM      7  C   UNL     1       7.710  -0.341  -2.264  1.00  0.00     0.008 A 
ATOM      8  C   UNL     1       7.885  -1.263  -0.068  1.00  0.00     0.054 A 
ATOM      9  C   UNL     1       8.070  -1.574  -2.776  1.00  0.00     0.051 A 
ATOM     10  C   UNL     1       8.250  -2.507  -0.590  1.00  0.00     0.166 A 
ATOM     11  C   UNL     1       8.343  -2.664  -1.955  1.00  0.00     0.165 A 
ATOM     12  O   UNL     1       8.564  -3.716  -0.005  1.00  0.00    -0.454 OA
ATOM     13  O   UNL     1       8.717  -3.980  -2.183  1.00  0.00    -0.454 OA
ATOM     14  C   UNL     1       8.956  -4.657  -0.972  1.00  0.00     0.468 C 
ENDBRANCH   5   6
ENDBRANCH   1   5
TORSDOF 3
ENDMDL
MODEL 3
REMARK VINA RESULT:      -7.2      2.164      2.776
REMARK SMILES CC(=O)CCc1ccc2c(c1)OCO2
REMARK SMILES IDX 4 1 2 2 1 3 3 4 5 5 6 6 7 7 11 8 8 9 10 10 9 11 12 12 14 13
REMARK SMILES IDX 13 14
REMARK H PARENT
REMARK Flexibility Score: inf
ROOT
ATOM      1  C   UNL     1       6.876   2.144  -0.161  1.00  0.00     0.080 C 
ENDROOT
BRANCH   1   2
ATOM      2  C   UNL     1       6.078   2.936   0.816  1.00  0.00     0.130 C 
ATOM      3  C   UNL     1       6.545   4.256   1.318  1.00  0.00     0.087 C 
ATOM      4  O   UNL     1       5.010   2.520   1.237  1.00  0.00    -0.300 OA
ENDBRANCH   1   2
BRANCH   1   5
ATOM      5  C   UNL     1       6.094   0.949  -0.670  1.00  0.00     0.043 C 
BRANCH   5   6
ATOM      6  C   UNL     1       6.781  -0.320  -0.373  1.00  0.00    -0.044 A 
ATOM      7  C   UNL     1       6.958  -0.769   0.941  1.00  0.00     0.008 A 
ATOM      8  C   UNL     1       7.263  -1.093  -1.405  1.00  0.00     0.054 A 
ATOM      9  C   UNL     1       7.611  -1.968   1.159  1.00  0.00     0.051 A 
ATOM     10  C   UNL     1       7.921  -2.306  -1.180  1.00  0.00     0.166 A 
ATOM     11  C   UNL     1       8.097  -2.747   0.113  1.00  0.00     0.165 A 
ATOM     12  O   UNL     1       8.484  -3.240  -2.023  1.00  0.00    -0.454 OA
ATOM     13  O   UNL     1       8.769  -3.956   0.035  1.00  0.00    -0.454 OA
ATOM     14  C   UNL     1       8.954  -4.351  -1.303  1.00  0.00     0.468 C 
ENDBRANCH   5   6
ENDBRANCH   1   5
TORSDOF 3
ENDMDL
