@<TRIPOS>MOLECULE
/home/cewinharhar/GITHUB/reincatalyze/data/processed/docking_pred/2023-May-22-1531_sub9_nm5_bs15_s42_ex16_mel10_mts1000_k50_ec02_g099_lra9e-4_lrc1e-3/9cf679a9c5542d052f5b9fd38195e755841f8057_ligand_9.pdbqt
 14 15 0 0 0
SMALL
GASTEIGER

@<TRIPOS>ATOM
      1  C          5.5290    1.9150    1.2670 C.3     1  UNL1        0.0800
      2  C          5.0980    0.6950    2.0050 C.2     1  UNL1        0.1300
      3  C          6.0020   -0.4740    2.1770 C.3     1  UNL1        0.0870
      4  O          3.9820    0.6190    2.4930 O.2     1  UNL1       -0.3000
      5  C          5.4020    1.7250   -0.2320 C.3     1  UNL1        0.0430
      6  C          6.5680    1.0220   -0.7950 C.2     1  UNL1       -0.0440
      7  C          7.8760    1.4550   -0.5470 C.2     1  UNL1        0.0080
      8  C          6.3780   -0.0900   -1.5830 C.2     1  UNL1        0.0540
      9  C          8.9310    0.7540   -1.1010 C.2     1  UNL1        0.0510
     10  C          7.4490   -0.7960   -2.1410 C.2     1  UNL1        0.1660
     11  C          8.7360   -0.3700   -1.8980 C.2     1  UNL1        0.1650
     12  O          7.5210   -1.9130   -2.9460 O.2     1  UNL1       -0.4540
     13  O          9.5800   -1.2430   -2.5660 O.2     1  UNL1       -0.4540
     14  C          8.8560   -2.2890   -3.1680 C.3     1  UNL1        0.4680
@<TRIPOS>BOND
     1    14    12    1
     2    14    13    1
     3    12    10    1
     4    13    11    1
     5    10    11    2
     6    10     8    1
     7    11     9    1
     8     8     6    2
     9     9     7    2
    10     6     7    1
    11     6     5    1
    12     5     1    1
    13     1     2    1
    14     2     3    1
    15     2     4    2
