@<TRIPOS>MOLECULE
/home/cewinharhar/GITHUB/reincatalyze/data/processed/docking_pred/2023-May-22-1531_sub9_nm5_bs15_s42_ex16_mel10_mts1000_k50_ec02_g099_lra9e-4_lrc1e-3/9cf679a9c5542d052f5b9fd38195e755841f8057_ligand_9.pdbqt
 14 15 0 0 0
SMALL
GASTEIGER

@<TRIPOS>ATOM
      1  C          6.8760    2.1440   -0.1610 C.3     1  UNL1        0.0800
      2  C          6.0780    2.9360    0.8160 C.2     1  UNL1        0.1300
      3  C          6.5450    4.2560    1.3180 C.3     1  UNL1        0.0870
      4  O          5.0100    2.5200    1.2370 O.2     1  UNL1       -0.3000
      5  C          6.0940    0.9490   -0.6700 C.3     1  UNL1        0.0430
      6  C          6.7810   -0.3200   -0.3730 C.2     1  UNL1       -0.0440
      7  C          6.9580   -0.7690    0.9410 C.2     1  UNL1        0.0080
      8  C          7.2630   -1.0930   -1.4050 C.2     1  UNL1        0.0540
      9  C          7.6110   -1.9680    1.1590 C.2     1  UNL1        0.0510
     10  C          7.9210   -2.3060   -1.1800 C.2     1  UNL1        0.1660
     11  C          8.0970   -2.7470    0.1130 C.2     1  UNL1        0.1650
     12  O          8.4840   -3.2400   -2.0230 O.2     1  UNL1       -0.4540
     13  O          8.7690   -3.9560    0.0350 O.2     1  UNL1       -0.4540
     14  C          8.9540   -4.3510   -1.3030 C.3     1  UNL1        0.4680
@<TRIPOS>BOND
     1    12    14    1
     2    12    10    1
     3     8    10    1
     4     8     6    2
     5    14    13    1
     6    10    11    2
     7     5     6    1
     8     5     1    1
     9     6     7    1
    10     1     2    1
    11    13    11    1
    12    11     9    1
    13     2     4    2
    14     2     3    1
    15     7     9    2
