@<TRIPOS>MOLECULE
/home/cewinharhar/GITHUB/reincatalyze/data/processed/docking_pred/2023-May-22-1531_sub9_nm5_bs15_s42_ex16_mel10_mts1000_k50_ec02_g099_lra9e-4_lrc1e-3/9cf679a9c5542d052f5b9fd38195e755841f8057_ligand_9.pdbqt
 14 15 0 0 0
SMALL
GASTEIGER

@<TRIPOS>ATOM
      1  C          5.7380    1.3340   -0.3250 C.3     1  UNL1        0.0800
      2  C          5.1350    1.2910    1.0370 C.2     1  UNL1        0.1300
      3  C          5.3440    0.1340    1.9470 C.3     1  UNL1        0.0870
      4  O          4.4470    2.2120    1.4460 O.2     1  UNL1       -0.3000
      5  C          7.2350    1.1070   -0.2710 C.3     1  UNL1        0.0430
      6  C          7.6140   -0.1830   -0.8770 C.2     1  UNL1       -0.0440
      7  C          7.7100   -0.3410   -2.2640 C.2     1  UNL1        0.0080
      8  C          7.8850   -1.2630   -0.0680 C.2     1  UNL1        0.0540
      9  C          8.0700   -1.5740   -2.7760 C.2     1  UNL1        0.0510
     10  C          8.2500   -2.5070   -0.5900 C.2     1  UNL1        0.1660
     11  C          8.3430   -2.6640   -1.9550 C.2     1  UNL1        0.1650
     12  O          8.5640   -3.7160   -0.0050 O.2     1  UNL1       -0.4540
     13  O          8.7170   -3.9800   -2.1830 O.2     1  UNL1       -0.4540
     14  C          8.9560   -4.6570   -0.9720 C.3     1  UNL1        0.4680
@<TRIPOS>BOND
     1     9     7    1
     2     9    11    2
     3     7     6    2
     4    13    11    1
     5    13    14    1
     6    11    10    1
     7    14    12    1
     8     6     5    1
     9     6     8    1
    10    10     8    2
    11    10    12    1
    12     1     5    1
    13     1     2    1
    14     2     4    2
    15     2     3    1
