@<TRIPOS>MOLECULE
/home/cewinharhar/GITHUB/reincatalyze/data/processed/docking_pred/2023-May-22-1531_sub9_nm5_bs15_s42_ex16_mel10_mts1000_k50_ec02_g099_lra9e-4_lrc1e-3/9e6208548f5309b91e7f4e881f40d3475c8e3dc2_ligand_9.pdbqt
 14 15 0 0 0
SMALL
GASTEIGER

@<TRIPOS>ATOM
      1  C          5.5020    2.9010    0.0860 C.3     1  UNL1        0.0800
      2  C          6.2030    3.8820    0.9610 C.2     1  UNL1        0.1300
      3  C          7.2710    4.7740    0.4340 C.3     1  UNL1        0.0870
      4  O          5.9210    3.9810    2.1440 O.2     1  UNL1       -0.3000
      5  C          5.2220    1.6070    0.8250 C.3     1  UNL1        0.0430
      6  C          6.0610    0.5020    0.3280 C.2     1  UNL1       -0.0440
      7  C          6.4550   -0.5510    1.1620 C.2     1  UNL1        0.0080
      8  C          6.4720    0.4940   -0.9850 C.2     1  UNL1        0.0540
      9  C          7.2430   -1.5610    0.6410 C.2     1  UNL1        0.0510
     10  C          7.2680   -0.5300   -1.5080 C.2     1  UNL1        0.1660
     11  C          7.6560   -1.5660   -0.6880 C.2     1  UNL1        0.1650
     12  O          7.7990   -0.7620   -2.7590 O.2     1  UNL1       -0.4540
     13  O          8.4250   -2.4220   -1.4600 O.2     1  UNL1       -0.4540
     14  C          8.4650   -1.9980   -2.8020 C.3     1  UNL1        0.4680
@<TRIPOS>BOND
     1    14    12    1
     2    14    13    1
     3    12    10    1
     4    10     8    1
     5    10    11    2
     6    13    11    1
     7     8     6    2
     8    11     9    1
     9     1     5    1
    10     1     2    1
    11     6     5    1
    12     6     7    1
    13     3     2    1
    14     9     7    2
    15     2     4    2
