MODEL 1
REMARK VINA RESULT:      -7.9      0.000      0.000
REMARK SMILES CC(=O)CCc1ccc2c(c1)OCO2
REMARK SMILES IDX 4 1 2 2 1 3 3 4 5 5 6 6 7 7 11 8 8 9 10 10 9 11 12 12 14 13
REMARK SMILES IDX 13 14
REMARK H PARENT
REMARK Flexibility Score: inf
ROOT
ATOM      1  C   UNL     1       5.502   2.901   0.086  1.00  0.00     0.080 C 
ENDROOT
BRANCH   1   2
ATOM      2  C   UNL     1       6.203   3.882   0.961  1.00  0.00     0.130 C 
ATOM      3  C   UNL     1       7.271   4.774   0.434  1.00  0.00     0.087 C 
ATOM      4  O   UNL     1       5.921   3.981   2.144  1.00  0.00    -0.300 OA
ENDBRANCH   1   2
BRANCH   1   5
ATOM      5  C   UNL     1       5.222   1.607   0.825  1.00  0.00     0.043 C 
BRANCH   5   6
ATOM      6  C   UNL     1       6.061   0.502   0.328  1.00  0.00    -0.044 A 
ATOM      7  C   UNL     1       6.455  -0.551   1.162  1.00  0.00     0.008 A 
ATOM      8  C   UNL     1       6.472   0.494  -0.985  1.00  0.00     0.054 A 
ATOM      9  C   UNL     1       7.243  -1.561   0.641  1.00  0.00     0.051 A 
ATOM     10  C   UNL     1       7.268  -0.530  -1.508  1.00  0.00     0.166 A 
ATOM     11  C   UNL     1       7.656  -1.566  -0.688  1.00  0.00     0.165 A 
ATOM     12  O   UNL     1       7.799  -0.762  -2.759  1.00  0.00    -0.454 OA
ATOM     13  O   UNL     1       8.425  -2.422  -1.460  1.00  0.00    -0.454 OA
ATOM     14  C   UNL     1       8.465  -1.998  -2.802  1.00  0.00     0.468 C 
ENDBRANCH   5   6
ENDBRANCH   1   5
TORSDOF 3
ENDMDL
MODEL 2
REMARK VINA RESULT:      -7.7      1.896      2.630
REMARK SMILES CC(=O)CCc1ccc2c(c1)OCO2
REMARK SMILES IDX 4 1 2 2 1 3 3 4 5 5 6 6 7 7 11 8 8 9 10 10 9 11 12 12 14 13
REMARK SMILES IDX 13 14
REMARK H PARENT
REMARK Flexibility Score: inf
ROOT
ATOM      1  C   UNL     1       5.534   1.901   1.278  1.00  0.00     0.080 C 
ENDROOT
BRANCH   1   2
ATOM      2  C   UNL     1       5.098   0.679   2.011  1.00  0.00     0.130 C 
ATOM      3  C   UNL     1       5.997  -0.494   2.176  1.00  0.00     0.087 C 
ATOM      4  O   UNL     1       3.982   0.606   2.499  1.00  0.00    -0.300 OA
ENDBRANCH   1   2
BRANCH   1   5
ATOM      5  C   UNL     1       5.405   1.719  -0.221  1.00  0.00     0.043 C 
BRANCH   5   6
ATOM      6  C   UNL     1       6.570   1.017  -0.788  1.00  0.00    -0.044 A 
ATOM      7  C   UNL     1       7.878   1.451  -0.545  1.00  0.00     0.008 A 
ATOM      8  C   UNL     1       6.379  -0.096  -1.576  1.00  0.00     0.054 A 
ATOM      9  C   UNL     1       8.933   0.752  -1.103  1.00  0.00     0.051 A 
ATOM     10  C   UNL     1       7.449  -0.800  -2.138  1.00  0.00     0.166 A 
ATOM     11  C   UNL     1       8.736  -0.372  -1.900  1.00  0.00     0.165 A 
ATOM     12  O   UNL     1       7.519  -1.917  -2.943  1.00  0.00    -0.454 OA
ATOM     13  O   UNL     1       9.579  -1.245  -2.570  1.00  0.00    -0.454 OA
ATOM     14  C   UNL     1       8.853  -2.292  -3.170  1.00  0.00     0.468 C 
ENDBRANCH   5   6
ENDBRANCH   1   5
TORSDOF 3
ENDMDL
MODEL 3
REMARK VINA RESULT:      -7.5      1.933      2.995
REMARK SMILES CC(=O)CCc1ccc2c(c1)OCO2
REMARK SMILES IDX 4 1 2 2 1 3 3 4 5 5 6 6 7 7 11 8 8 9 10 10 9 11 12 12 14 13
REMARK SMILES IDX 13 14
REMARK H PARENT
REMARK Flexibility Score: inf
ROOT
ATOM      1  C   UNL     1       5.728   1.288  -0.336  1.00  0.00     0.080 C 
ENDROOT
BRANCH   1   2
ATOM      2  C   UNL     1       5.183   1.303   1.050  1.00  0.00     0.130 C 
ATOM      3  C   UNL     1       5.347   0.142   1.965  1.00  0.00     0.087 C 
ATOM      4  O   UNL     1       4.581   2.275   1.477  1.00  0.00    -0.300 OA
ENDBRANCH   1   2
BRANCH   1   5
ATOM      5  C   UNL     1       7.230   1.088  -0.335  1.00  0.00     0.043 C 
BRANCH   5   6
ATOM      6  C   UNL     1       7.609  -0.212  -0.918  1.00  0.00    -0.044 A 
ATOM      7  C   UNL     1       7.687  -0.399  -2.303  1.00  0.00     0.008 A 
ATOM      8  C   UNL     1       7.896  -1.273  -0.090  1.00  0.00     0.054 A 
ATOM      9  C   UNL     1       8.049  -1.641  -2.792  1.00  0.00     0.051 A 
ATOM     10  C   UNL     1       8.262  -2.526  -0.589  1.00  0.00     0.166 A 
ATOM     11  C   UNL     1       8.338  -2.712  -1.952  1.00  0.00     0.165 A 
ATOM     12  O   UNL     1       8.591  -3.720   0.017  1.00  0.00    -0.454 OA
ATOM     13  O   UNL     1       8.717  -4.030  -2.156  1.00  0.00    -0.454 OA
ATOM     14  C   UNL     1       8.976  -4.679  -0.934  1.00  0.00     0.468 C 
ENDBRANCH   5   6
ENDBRANCH   1   5
TORSDOF 3
ENDMDL
