@<TRIPOS>MOLECULE
/home/cewinharhar/GITHUB/reincatalyze/data/processed/docking_pred/2023-May-22-1531_sub9_nm5_bs15_s42_ex16_mel10_mts1000_k50_ec02_g099_lra9e-4_lrc1e-3/9e6208548f5309b91e7f4e881f40d3475c8e3dc2_ligand_9.pdbqt
 14 15 0 0 0
SMALL
GASTEIGER

@<TRIPOS>ATOM
      1  C          5.5340    1.9010    1.2780 C.3     1  UNL1        0.0800
      2  C          5.0980    0.6790    2.0110 C.2     1  UNL1        0.1300
      3  C          5.9970   -0.4940    2.1760 C.3     1  UNL1        0.0870
      4  O          3.9820    0.6060    2.4990 O.2     1  UNL1       -0.3000
      5  C          5.4050    1.7190   -0.2210 C.3     1  UNL1        0.0430
      6  C          6.5700    1.0170   -0.7880 C.2     1  UNL1       -0.0440
      7  C          7.8780    1.4510   -0.5450 C.2     1  UNL1        0.0080
      8  C          6.3790   -0.0960   -1.5760 C.2     1  UNL1        0.0540
      9  C          8.9330    0.7520   -1.1030 C.2     1  UNL1        0.0510
     10  C          7.4490   -0.8000   -2.1380 C.2     1  UNL1        0.1660
     11  C          8.7360   -0.3720   -1.9000 C.2     1  UNL1        0.1650
     12  O          7.5190   -1.9170   -2.9430 O.2     1  UNL1       -0.4540
     13  O          9.5790   -1.2450   -2.5700 O.2     1  UNL1       -0.4540
     14  C          8.8530   -2.2920   -3.1700 C.3     1  UNL1        0.4680
@<TRIPOS>BOND
     1    14    12    1
     2    14    13    1
     3    12    10    1
     4    13    11    1
     5    10    11    2
     6    10     8    1
     7    11     9    1
     8     8     6    2
     9     9     7    2
    10     6     7    1
    11     6     5    1
    12     5     1    1
    13     1     2    1
    14     2     3    1
    15     2     4    2
