@<TRIPOS>MOLECULE
/home/cewinharhar/GITHUB/reincatalyze/data/processed/docking_pred/2023-May-22-1531_sub9_nm5_bs15_s42_ex16_mel10_mts1000_k50_ec02_g099_lra9e-4_lrc1e-3/9fad910e57fbde25b93c61ef9d3287f531a6e420_ligand_9.pdbqt
 14 15 0 0 0
SMALL
GASTEIGER

@<TRIPOS>ATOM
      1  C          5.6700    1.3010   -0.5370 C.3     1  UNL1        0.0800
      2  C          5.3750    2.3290    0.4990 C.2     1  UNL1        0.1300
      3  C          6.1170    3.6170    0.5540 C.3     1  UNL1        0.0870
      4  O          4.5100    2.1420    1.3400 O.2     1  UNL1       -0.3000
      5  C          7.1630    1.1210   -0.7250 C.3     1  UNL1        0.0430
      6  C          7.5910   -0.2560   -0.4210 C.2     1  UNL1       -0.0440
      7  C          7.7370   -0.7040    0.8970 C.2     1  UNL1        0.0080
      8  C          7.8530   -1.1320   -1.4490 C.2     1  UNL1        0.0540
      9  C          8.1410   -2.0070    1.1220 C.2     1  UNL1        0.0510
     10  C          8.2600   -2.4490   -1.2160 C.2     1  UNL1        0.1660
     11  C          8.4050   -2.8900    0.0800 C.2     1  UNL1        0.1650
     12  O          8.5770   -3.4970   -2.0550 O.2     1  UNL1       -0.4540
     13  O          8.8120   -4.2130    0.0100 O.2     1  UNL1       -0.4540
     14  C          8.8460   -4.6650   -1.3230 C.3     1  UNL1        0.4680
@<TRIPOS>BOND
     1    12    14    1
     2    12    10    1
     3     8    10    1
     4     8     6    2
     5    14    13    1
     6    10    11    2
     7     5     1    1
     8     5     6    1
     9     1     2    1
    10     6     7    1
    11    13    11    1
    12    11     9    1
    13     2     3    1
    14     2     4    2
    15     7     9    2
