MODEL 1
REMARK VINA RESULT:      -7.6      0.000      0.000
REMARK SMILES CC(=O)CCc1ccc2c(c1)OCO2
REMARK SMILES IDX 4 1 2 2 1 3 3 4 5 5 6 6 7 7 11 8 8 9 10 10 9 11 12 12 14 13
REMARK SMILES IDX 13 14
REMARK H PARENT
REMARK Flexibility Score: inf
ROOT
ATOM      1  C   UNL     1       5.546   1.914   1.275  1.00  0.00     0.080 C 
ENDROOT
BRANCH   1   2
ATOM      2  C   UNL     1       5.117   0.693   2.013  1.00  0.00     0.130 C 
ATOM      3  C   UNL     1       6.025  -0.471   2.191  1.00  0.00     0.087 C 
ATOM      4  O   UNL     1       3.999   0.614   2.496  1.00  0.00    -0.300 OA
ENDBRANCH   1   2
BRANCH   1   5
ATOM      5  C   UNL     1       5.415   1.725  -0.224  1.00  0.00     0.043 C 
BRANCH   5   6
ATOM      6  C   UNL     1       6.580   1.022  -0.790  1.00  0.00    -0.044 A 
ATOM      7  C   UNL     1       7.888   1.450  -0.538  1.00  0.00     0.008 A 
ATOM      8  C   UNL     1       6.388  -0.086  -1.584  1.00  0.00     0.054 A 
ATOM      9  C   UNL     1       8.943   0.749  -1.096  1.00  0.00     0.051 A 
ATOM     10  C   UNL     1       7.457  -0.791  -2.145  1.00  0.00     0.166 A 
ATOM     11  C   UNL     1       8.745  -0.369  -1.899  1.00  0.00     0.165 A 
ATOM     12  O   UNL     1       7.527  -1.903  -2.957  1.00  0.00    -0.454 OA
ATOM     13  O   UNL     1       9.587  -1.242  -2.571  1.00  0.00    -0.454 OA
ATOM     14  C   UNL     1       8.861  -2.282  -3.179  1.00  0.00     0.468 C 
ENDBRANCH   5   6
ENDBRANCH   1   5
TORSDOF 3
ENDMDL
MODEL 2
REMARK VINA RESULT:      -7.5      1.925      2.404
REMARK SMILES CC(=O)CCc1ccc2c(c1)OCO2
REMARK SMILES IDX 4 1 2 2 1 3 3 4 5 5 6 6 7 7 11 8 8 9 10 10 9 11 12 12 14 13
REMARK SMILES IDX 13 14
REMARK H PARENT
REMARK Flexibility Score: inf
ROOT
ATOM      1  C   UNL     1       5.740   1.314  -0.362  1.00  0.00     0.080 C 
ENDROOT
BRANCH   1   2
ATOM      2  C   UNL     1       5.151   1.303   1.006  1.00  0.00     0.130 C 
ATOM      3  C   UNL     1       5.383   0.175   1.947  1.00  0.00     0.087 C 
ATOM      4  O   UNL     1       4.455   2.227   1.396  1.00  0.00    -0.300 OA
ENDBRANCH   1   2
BRANCH   1   5
ATOM      5  C   UNL     1       7.240   1.095  -0.317  1.00  0.00     0.043 C 
BRANCH   5   6
ATOM      6  C   UNL     1       7.621  -0.198  -0.912  1.00  0.00    -0.044 A 
ATOM      7  C   UNL     1       7.714  -0.368  -2.298  1.00  0.00     0.008 A 
ATOM      8  C   UNL     1       7.899  -1.270  -0.094  1.00  0.00     0.054 A 
ATOM      9  C   UNL     1       8.078  -1.605  -2.799  1.00  0.00     0.051 A 
ATOM     10  C   UNL     1       8.267  -2.518  -0.606  1.00  0.00     0.166 A 
ATOM     11  C   UNL     1       8.356  -2.686  -1.970  1.00  0.00     0.165 A 
ATOM     12  O   UNL     1       8.587  -3.720  -0.011  1.00  0.00    -0.454 OA
ATOM     13  O   UNL     1       8.735  -4.002  -2.187  1.00  0.00    -0.454 OA
ATOM     14  C   UNL     1       8.980  -4.668  -0.970  1.00  0.00     0.468 C 
ENDBRANCH   5   6
ENDBRANCH   1   5
TORSDOF 3
ENDMDL
MODEL 3
REMARK VINA RESULT:      -7.2      2.224      2.751
REMARK SMILES CC(=O)CCc1ccc2c(c1)OCO2
REMARK SMILES IDX 4 1 2 2 1 3 3 4 5 5 6 6 7 7 11 8 8 9 10 10 9 11 12 12 14 13
REMARK SMILES IDX 13 14
REMARK H PARENT
REMARK Flexibility Score: inf
ROOT
ATOM      1  C   UNL     1       5.670   1.301  -0.537  1.00  0.00     0.080 C 
ENDROOT
BRANCH   1   2
ATOM      2  C   UNL     1       5.375   2.329   0.499  1.00  0.00     0.130 C 
ATOM      3  C   UNL     1       6.117   3.617   0.554  1.00  0.00     0.087 C 
ATOM      4  O   UNL     1       4.510   2.142   1.340  1.00  0.00    -0.300 OA
ENDBRANCH   1   2
BRANCH   1   5
ATOM      5  C   UNL     1       7.163   1.121  -0.725  1.00  0.00     0.043 C 
BRANCH   5   6
ATOM      6  C   UNL     1       7.591  -0.256  -0.421  1.00  0.00    -0.044 A 
ATOM      7  C   UNL     1       7.737  -0.704   0.897  1.00  0.00     0.008 A 
ATOM      8  C   UNL     1       7.853  -1.132  -1.449  1.00  0.00     0.054 A 
ATOM      9  C   UNL     1       8.141  -2.007   1.122  1.00  0.00     0.051 A 
ATOM     10  C   UNL     1       8.260  -2.449  -1.216  1.00  0.00     0.166 A 
ATOM     11  C   UNL     1       8.405  -2.890   0.080  1.00  0.00     0.165 A 
ATOM     12  O   UNL     1       8.577  -3.497  -2.055  1.00  0.00    -0.454 OA
ATOM     13  O   UNL     1       8.812  -4.213   0.010  1.00  0.00    -0.454 OA
ATOM     14  C   UNL     1       8.846  -4.665  -1.323  1.00  0.00     0.468 C 
ENDBRANCH   5   6
ENDBRANCH   1   5
TORSDOF 3
ENDMDL
