@<TRIPOS>MOLECULE
/home/cewinharhar/GITHUB/reincatalyze/data/processed/docking_pred/2023-May-22-1531_sub9_nm5_bs15_s42_ex16_mel10_mts1000_k50_ec02_g099_lra9e-4_lrc1e-3/a1c3c4a97d6bd518e48ffa0772dda1f342f6565e_ligand_9.pdbqt
 14 15 0 0 0
SMALL
GASTEIGER

@<TRIPOS>ATOM
      1  C          5.5080    1.9240    1.2600 C.3     1  UNL1        0.0800
      2  C          5.0630    0.7100    2.0000 C.2     1  UNL1        0.1300
      3  C          5.9470   -0.4760    2.1580 C.3     1  UNL1        0.0870
      4  O          3.9520    0.6540    2.5010 O.2     1  UNL1       -0.3000
      5  C          5.3850    1.7310   -0.2380 C.3     1  UNL1        0.0430
      6  C          6.5550    1.0300   -0.7970 C.2     1  UNL1       -0.0440
      7  C          7.8610    1.4670   -0.5450 C.2     1  UNL1        0.0080
      8  C          6.3720   -0.0830   -1.5850 C.2     1  UNL1        0.0540
      9  C          8.9200    0.7690   -1.0950 C.2     1  UNL1        0.0510
     10  C          7.4460   -0.7860   -2.1390 C.2     1  UNL1        0.1660
     11  C          8.7310   -0.3560   -1.8920 C.2     1  UNL1        0.1650
     12  O          7.5240   -1.9030   -2.9430 O.2     1  UNL1       -0.4540
     13  O          9.5800   -1.2280   -2.5560 O.2     1  UNL1       -0.4540
     14  C          8.8600   -2.2760   -3.1600 C.3     1  UNL1        0.4680
@<TRIPOS>BOND
     1    14    12    1
     2    14    13    1
     3    12    10    1
     4    13    11    1
     5    10    11    2
     6    10     8    1
     7    11     9    1
     8     8     6    2
     9     9     7    2
    10     6     7    1
    11     6     5    1
    12     5     1    1
    13     1     2    1
    14     2     3    1
    15     2     4    2
