@<TRIPOS>MOLECULE
/home/cewinharhar/GITHUB/reincatalyze/data/processed/docking_pred/2023-May-22-1531_sub9_nm5_bs15_s42_ex16_mel10_mts1000_k50_ec02_g099_lra9e-4_lrc1e-3/a1c3c4a97d6bd518e48ffa0772dda1f342f6565e_ligand_9.pdbqt
 14 15 0 0 0
SMALL
GASTEIGER

@<TRIPOS>ATOM
      1  C          5.7940    1.3700   -0.3960 C.3     1  UNL1        0.0800
      2  C          5.1430    1.3500    0.9440 C.2     1  UNL1        0.1300
      3  C          5.3950    0.2550    1.9180 C.3     1  UNL1        0.0870
      4  O          4.3790    2.2400    1.2830 O.2     1  UNL1       -0.3000
      5  C          7.2760    1.0700   -0.2930 C.3     1  UNL1        0.0430
      6  C          7.6130   -0.2320   -0.8960 C.2     1  UNL1       -0.0440
      7  C          7.6140   -0.4190   -2.2830 C.2     1  UNL1        0.0080
      8  C          7.9390   -1.2960   -0.0860 C.2     1  UNL1        0.0540
      9  C          7.9390   -1.6630   -2.7920 C.2     1  UNL1        0.0510
     10  C          8.2690   -2.5510   -0.6060 C.2     1  UNL1        0.1660
     11  C          8.2680   -2.7360   -1.9700 C.2     1  UNL1        0.1650
     12  O          8.6230   -3.7480   -0.0190 O.2     1  UNL1       -0.4540
     13  O          8.6270   -4.0560   -2.1960 O.2     1  UNL1       -0.4540
     14  C          8.9480   -4.7080   -0.9910 C.3     1  UNL1        0.4680
@<TRIPOS>BOND
     1     9     7    1
     2     9    11    2
     3     7     6    2
     4    13    11    1
     5    13    14    1
     6    11    10    1
     7    14    12    1
     8     6     5    1
     9     6     8    1
    10    10     8    2
    11    10    12    1
    12     1     5    1
    13     1     2    1
    14     2     4    2
    15     2     3    1
