@<TRIPOS>MOLECULE
/home/cewinharhar/GITHUB/reincatalyze/data/processed/docking_pred/2023-May-22-1531_sub9_nm5_bs15_s42_ex16_mel10_mts1000_k50_ec02_g099_lra9e-4_lrc1e-3/a1c3c4a97d6bd518e48ffa0772dda1f342f6565e_ligand_9.pdbqt
 14 15 0 0 0
SMALL
GASTEIGER

@<TRIPOS>ATOM
      1  C          5.4490    2.9180    0.2890 C.3     1  UNL1        0.0800
      2  C          6.2760    3.8960    1.0480 C.2     1  UNL1        0.1300
      3  C          7.2660    4.7740    0.3690 C.3     1  UNL1        0.0870
      4  O          6.1650    4.0060    2.2580 O.2     1  UNL1       -0.3000
      5  C          5.2790    1.6240    1.0610 C.3     1  UNL1        0.0430
      6  C          6.0970    0.5380    0.4940 C.2     1  UNL1       -0.0440
      7  C          6.4960   -0.5590    1.2670 C.2     1  UNL1        0.0080
      8  C          6.4820    0.5910   -0.8260 C.2     1  UNL1        0.0540
      9  C          7.2630   -1.5490    0.6800 C.2     1  UNL1        0.0510
     10  C          7.2570   -0.4130   -1.4140 C.2     1  UNL1        0.1660
     11  C          7.6510   -1.4920   -0.6550 C.2     1  UNL1        0.1650
     12  O          7.7620   -0.5870   -2.6850 O.2     1  UNL1       -0.4540
     13  O          8.3960   -2.3150   -1.4840 O.2     1  UNL1       -0.4540
     14  C          8.4150   -1.8250   -2.8030 C.3     1  UNL1        0.4680
@<TRIPOS>BOND
     1    14    12    1
     2    14    13    1
     3    12    10    1
     4    13    11    1
     5    10     8    1
     6    10    11    2
     7     8     6    2
     8    11     9    1
     9     1     2    1
    10     1     5    1
    11     3     2    1
    12     6     5    1
    13     6     7    1
    14     9     7    2
    15     2     4    2
