MODEL 1
REMARK VINA RESULT:      -7.8      0.000      0.000
REMARK SMILES CC(=O)CCc1ccc2c(c1)OCO2
REMARK SMILES IDX 4 1 2 2 1 3 3 4 5 5 6 6 7 7 11 8 8 9 10 10 9 11 12 12 14 13
REMARK SMILES IDX 13 14
REMARK H PARENT
REMARK Flexibility Score: inf
ROOT
ATOM      1  C   UNL     1       5.449   2.918   0.289  1.00  0.00     0.080 C 
ENDROOT
BRANCH   1   2
ATOM      2  C   UNL     1       6.276   3.896   1.048  1.00  0.00     0.130 C 
ATOM      3  C   UNL     1       7.266   4.774   0.369  1.00  0.00     0.087 C 
ATOM      4  O   UNL     1       6.165   4.006   2.258  1.00  0.00    -0.300 OA
ENDBRANCH   1   2
BRANCH   1   5
ATOM      5  C   UNL     1       5.279   1.624   1.061  1.00  0.00     0.043 C 
BRANCH   5   6
ATOM      6  C   UNL     1       6.097   0.538   0.494  1.00  0.00    -0.044 A 
ATOM      7  C   UNL     1       6.496  -0.559   1.267  1.00  0.00     0.008 A 
ATOM      8  C   UNL     1       6.482   0.591  -0.826  1.00  0.00     0.054 A 
ATOM      9  C   UNL     1       7.263  -1.549   0.680  1.00  0.00     0.051 A 
ATOM     10  C   UNL     1       7.257  -0.413  -1.414  1.00  0.00     0.166 A 
ATOM     11  C   UNL     1       7.651  -1.492  -0.655  1.00  0.00     0.165 A 
ATOM     12  O   UNL     1       7.762  -0.587  -2.685  1.00  0.00    -0.454 OA
ATOM     13  O   UNL     1       8.396  -2.315  -1.484  1.00  0.00    -0.454 OA
ATOM     14  C   UNL     1       8.415  -1.825  -2.803  1.00  0.00     0.468 C 
ENDBRANCH   5   6
ENDBRANCH   1   5
TORSDOF 3
ENDMDL
MODEL 2
REMARK VINA RESULT:      -7.7      1.927      2.664
REMARK SMILES CC(=O)CCc1ccc2c(c1)OCO2
REMARK SMILES IDX 4 1 2 2 1 3 3 4 5 5 6 6 7 7 11 8 8 9 10 10 9 11 12 12 14 13
REMARK SMILES IDX 13 14
REMARK H PARENT
REMARK Flexibility Score: inf
ROOT
ATOM      1  C   UNL     1       5.508   1.924   1.260  1.00  0.00     0.080 C 
ENDROOT
BRANCH   1   2
ATOM      2  C   UNL     1       5.063   0.710   2.000  1.00  0.00     0.130 C 
ATOM      3  C   UNL     1       5.947  -0.476   2.158  1.00  0.00     0.087 C 
ATOM      4  O   UNL     1       3.952   0.654   2.501  1.00  0.00    -0.300 OA
ENDBRANCH   1   2
BRANCH   1   5
ATOM      5  C   UNL     1       5.385   1.731  -0.238  1.00  0.00     0.043 C 
BRANCH   5   6
ATOM      6  C   UNL     1       6.555   1.030  -0.797  1.00  0.00    -0.044 A 
ATOM      7  C   UNL     1       7.861   1.467  -0.545  1.00  0.00     0.008 A 
ATOM      8  C   UNL     1       6.372  -0.083  -1.585  1.00  0.00     0.054 A 
ATOM      9  C   UNL     1       8.920   0.769  -1.095  1.00  0.00     0.051 A 
ATOM     10  C   UNL     1       7.446  -0.786  -2.139  1.00  0.00     0.166 A 
ATOM     11  C   UNL     1       8.731  -0.356  -1.892  1.00  0.00     0.165 A 
ATOM     12  O   UNL     1       7.524  -1.903  -2.943  1.00  0.00    -0.454 OA
ATOM     13  O   UNL     1       9.580  -1.228  -2.556  1.00  0.00    -0.454 OA
ATOM     14  C   UNL     1       8.860  -2.276  -3.160  1.00  0.00     0.468 C 
ENDBRANCH   5   6
ENDBRANCH   1   5
TORSDOF 3
ENDMDL
MODEL 3
REMARK VINA RESULT:      -7.5      2.003      3.061
REMARK SMILES CC(=O)CCc1ccc2c(c1)OCO2
REMARK SMILES IDX 4 1 2 2 1 3 3 4 5 5 6 6 7 7 11 8 8 9 10 10 9 11 12 12 14 13
REMARK SMILES IDX 13 14
REMARK H PARENT
REMARK Flexibility Score: inf
ROOT
ATOM      1  C   UNL     1       5.794   1.370  -0.396  1.00  0.00     0.080 C 
ENDROOT
BRANCH   1   2
ATOM      2  C   UNL     1       5.143   1.350   0.944  1.00  0.00     0.130 C 
ATOM      3  C   UNL     1       5.395   0.255   1.918  1.00  0.00     0.087 C 
ATOM      4  O   UNL     1       4.379   2.240   1.283  1.00  0.00    -0.300 OA
ENDBRANCH   1   2
BRANCH   1   5
ATOM      5  C   UNL     1       7.276   1.070  -0.293  1.00  0.00     0.043 C 
BRANCH   5   6
ATOM      6  C   UNL     1       7.613  -0.232  -0.896  1.00  0.00    -0.044 A 
ATOM      7  C   UNL     1       7.614  -0.419  -2.283  1.00  0.00     0.008 A 
ATOM      8  C   UNL     1       7.939  -1.296  -0.086  1.00  0.00     0.054 A 
ATOM      9  C   UNL     1       7.939  -1.663  -2.792  1.00  0.00     0.051 A 
ATOM     10  C   UNL     1       8.269  -2.551  -0.606  1.00  0.00     0.166 A 
ATOM     11  C   UNL     1       8.268  -2.736  -1.970  1.00  0.00     0.165 A 
ATOM     12  O   UNL     1       8.623  -3.748  -0.019  1.00  0.00    -0.454 OA
ATOM     13  O   UNL     1       8.627  -4.056  -2.196  1.00  0.00    -0.454 OA
ATOM     14  C   UNL     1       8.948  -4.708  -0.991  1.00  0.00     0.468 C 
ENDBRANCH   5   6
ENDBRANCH   1   5
TORSDOF 3
ENDMDL
