@<TRIPOS>MOLECULE
/home/cewinharhar/GITHUB/reincatalyze/data/processed/docking_pred/2023-May-22-1531_sub9_nm5_bs15_s42_ex16_mel10_mts1000_k50_ec02_g099_lra9e-4_lrc1e-3/a450f47ca4f24610d4ad642e19216dd37a68a7e2_ligand_9.pdbqt
 14 15 0 0 0
SMALL
GASTEIGER

@<TRIPOS>ATOM
      1  C          5.7440    1.3020   -0.3920 C.3     1  UNL1        0.0800
      2  C          5.1440    1.3180    0.9710 C.2     1  UNL1        0.1300
      3  C          5.3280    0.1860    1.9190 C.3     1  UNL1        0.0870
      4  O          4.4790    2.2680    1.3520 O.2     1  UNL1       -0.3000
      5  C          7.2400    1.0660   -0.3330 C.3     1  UNL1        0.0430
      6  C          7.6120   -0.2350   -0.9170 C.2     1  UNL1       -0.0440
      7  C          7.6700   -0.4260   -2.3020 C.2     1  UNL1        0.0080
      8  C          7.9150   -1.2930   -0.0900 C.2     1  UNL1        0.0540
      9  C          8.0260   -1.6690   -2.7930 C.2     1  UNL1        0.0510
     10  C          8.2750   -2.5470   -0.5920 C.2     1  UNL1        0.1660
     11  C          8.3310   -2.7370   -1.9550 C.2     1  UNL1        0.1650
     12  O          8.6150   -3.7390    0.0130 O.2     1  UNL1       -0.4540
     13  O          8.7090   -4.0540   -2.1610 O.2     1  UNL1       -0.4540
     14  C          8.9870   -4.7000   -0.9410 C.3     1  UNL1        0.4680
@<TRIPOS>BOND
     1     9     7    1
     2     9    11    2
     3     7     6    2
     4    13    11    1
     5    13    14    1
     6    11    10    1
     7    14    12    1
     8     6     5    1
     9     6     8    1
    10    10     8    2
    11    10    12    1
    12     1     5    1
    13     1     2    1
    14     2     4    2
    15     2     3    1
