MODEL 1
REMARK VINA RESULT:      -7.6      0.000      0.000
REMARK SMILES CC(=O)CCc1ccc2c(c1)OCO2
REMARK SMILES IDX 4 1 2 2 1 3 3 4 5 5 6 6 7 7 11 8 8 9 10 10 9 11 12 12 14 13
REMARK SMILES IDX 13 14
REMARK H PARENT
REMARK Flexibility Score: inf
ROOT
ATOM      1  C   UNL     1       5.566   1.908   1.282  1.00  0.00     0.080 C 
ENDROOT
BRANCH   1   2
ATOM      2  C   UNL     1       5.131   0.690   2.020  1.00  0.00     0.130 C 
ATOM      3  C   UNL     1       6.032  -0.480   2.197  1.00  0.00     0.087 C 
ATOM      4  O   UNL     1       4.013   0.616   2.504  1.00  0.00    -0.300 OA
ENDBRANCH   1   2
BRANCH   1   5
ATOM      5  C   UNL     1       5.430   1.723  -0.216  1.00  0.00     0.043 C 
BRANCH   5   6
ATOM      6  C   UNL     1       6.592   1.021  -0.788  1.00  0.00    -0.044 A 
ATOM      7  C   UNL     1       7.901   1.451  -0.543  1.00  0.00     0.008 A 
ATOM      8  C   UNL     1       6.397  -0.087  -1.581  1.00  0.00     0.054 A 
ATOM      9  C   UNL     1       8.953   0.751  -1.106  1.00  0.00     0.051 A 
ATOM     10  C   UNL     1       7.464  -0.791  -2.147  1.00  0.00     0.166 A 
ATOM     11  C   UNL     1       8.753  -0.368  -1.908  1.00  0.00     0.165 A 
ATOM     12  O   UNL     1       7.531  -1.904  -2.958  1.00  0.00    -0.454 OA
ATOM     13  O   UNL     1       9.593  -1.240  -2.584  1.00  0.00    -0.454 OA
ATOM     14  C   UNL     1       8.864  -2.282  -3.188  1.00  0.00     0.468 C 
ENDBRANCH   5   6
ENDBRANCH   1   5
TORSDOF 3
ENDMDL
MODEL 2
REMARK VINA RESULT:      -7.5      1.949      2.445
REMARK SMILES CC(=O)CCc1ccc2c(c1)OCO2
REMARK SMILES IDX 4 1 2 2 1 3 3 4 5 5 6 6 7 7 11 8 8 9 10 10 9 11 12 12 14 13
REMARK SMILES IDX 13 14
REMARK H PARENT
REMARK Flexibility Score: inf
ROOT
ATOM      1  C   UNL     1       5.744   1.302  -0.392  1.00  0.00     0.080 C 
ENDROOT
BRANCH   1   2
ATOM      2  C   UNL     1       5.144   1.318   0.971  1.00  0.00     0.130 C 
ATOM      3  C   UNL     1       5.328   0.186   1.919  1.00  0.00     0.087 C 
ATOM      4  O   UNL     1       4.479   2.268   1.352  1.00  0.00    -0.300 OA
ENDBRANCH   1   2
BRANCH   1   5
ATOM      5  C   UNL     1       7.240   1.066  -0.333  1.00  0.00     0.043 C 
BRANCH   5   6
ATOM      6  C   UNL     1       7.612  -0.235  -0.917  1.00  0.00    -0.044 A 
ATOM      7  C   UNL     1       7.670  -0.426  -2.302  1.00  0.00     0.008 A 
ATOM      8  C   UNL     1       7.915  -1.293  -0.090  1.00  0.00     0.054 A 
ATOM      9  C   UNL     1       8.026  -1.669  -2.793  1.00  0.00     0.051 A 
ATOM     10  C   UNL     1       8.275  -2.547  -0.592  1.00  0.00     0.166 A 
ATOM     11  C   UNL     1       8.331  -2.737  -1.955  1.00  0.00     0.165 A 
ATOM     12  O   UNL     1       8.615  -3.739   0.013  1.00  0.00    -0.454 OA
ATOM     13  O   UNL     1       8.709  -4.054  -2.161  1.00  0.00    -0.454 OA
ATOM     14  C   UNL     1       8.987  -4.700  -0.941  1.00  0.00     0.468 C 
ENDBRANCH   5   6
ENDBRANCH   1   5
TORSDOF 3
ENDMDL
MODEL 3
REMARK VINA RESULT:      -7.3      2.197      2.703
REMARK SMILES CC(=O)CCc1ccc2c(c1)OCO2
REMARK SMILES IDX 4 1 2 2 1 3 3 4 5 5 6 6 7 7 11 8 8 9 10 10 9 11 12 12 14 13
REMARK SMILES IDX 13 14
REMARK H PARENT
REMARK Flexibility Score: inf
ROOT
ATOM      1  C   UNL     1       5.588   1.273  -0.494  1.00  0.00     0.080 C 
ENDROOT
BRANCH   1   2
ATOM      2  C   UNL     1       5.333   2.258   0.595  1.00  0.00     0.130 C 
ATOM      3  C   UNL     1       6.132   3.506   0.722  1.00  0.00     0.087 C 
ATOM      4  O   UNL     1       4.455   2.066   1.420  1.00  0.00    -0.300 OA
ENDBRANCH   1   2
BRANCH   1   5
ATOM      5  C   UNL     1       7.073   1.111  -0.753  1.00  0.00     0.043 C 
BRANCH   5   6
ATOM      6  C   UNL     1       7.537  -0.251  -0.436  1.00  0.00    -0.044 A 
ATOM      7  C   UNL     1       7.728  -0.672   0.885  1.00  0.00     0.008 A 
ATOM      8  C   UNL     1       7.789  -1.141  -1.456  1.00  0.00     0.054 A 
ATOM      9  C   UNL     1       8.165  -1.963   1.122  1.00  0.00     0.051 A 
ATOM     10  C   UNL     1       8.229  -2.445  -1.212  1.00  0.00     0.166 A 
ATOM     11  C   UNL     1       8.419  -2.859   0.088  1.00  0.00     0.165 A 
ATOM     12  O   UNL     1       8.545  -3.501  -2.040  1.00  0.00    -0.454 OA
ATOM     13  O   UNL     1       8.851  -4.175   0.030  1.00  0.00    -0.454 OA
ATOM     14  C   UNL     1       8.857  -4.650  -1.295  1.00  0.00     0.468 C 
ENDBRANCH   5   6
ENDBRANCH   1   5
TORSDOF 3
ENDMDL
