@<TRIPOS>MOLECULE
/home/cewinharhar/GITHUB/reincatalyze/data/processed/docking_pred/2023-May-22-1531_sub9_nm5_bs15_s42_ex16_mel10_mts1000_k50_ec02_g099_lra9e-4_lrc1e-3/a450f47ca4f24610d4ad642e19216dd37a68a7e2_ligand_9.pdbqt
 14 15 0 0 0
SMALL
GASTEIGER

@<TRIPOS>ATOM
      1  C          5.5660    1.9080    1.2820 C.3     1  UNL1        0.0800
      2  C          5.1310    0.6900    2.0200 C.2     1  UNL1        0.1300
      3  C          6.0320   -0.4800    2.1970 C.3     1  UNL1        0.0870
      4  O          4.0130    0.6160    2.5040 O.2     1  UNL1       -0.3000
      5  C          5.4300    1.7230   -0.2160 C.3     1  UNL1        0.0430
      6  C          6.5920    1.0210   -0.7880 C.2     1  UNL1       -0.0440
      7  C          7.9010    1.4510   -0.5430 C.2     1  UNL1        0.0080
      8  C          6.3970   -0.0870   -1.5810 C.2     1  UNL1        0.0540
      9  C          8.9530    0.7510   -1.1060 C.2     1  UNL1        0.0510
     10  C          7.4640   -0.7910   -2.1470 C.2     1  UNL1        0.1660
     11  C          8.7530   -0.3680   -1.9080 C.2     1  UNL1        0.1650
     12  O          7.5310   -1.9040   -2.9580 O.2     1  UNL1       -0.4540
     13  O          9.5930   -1.2400   -2.5840 O.2     1  UNL1       -0.4540
     14  C          8.8640   -2.2820   -3.1880 C.3     1  UNL1        0.4680
@<TRIPOS>BOND
     1    14    12    1
     2    14    13    1
     3    12    10    1
     4    13    11    1
     5    10    11    2
     6    10     8    1
     7    11     9    1
     8     8     6    2
     9     9     7    2
    10     6     7    1
    11     6     5    1
    12     5     1    1
    13     1     2    1
    14     2     3    1
    15     2     4    2
