@<TRIPOS>MOLECULE
/home/cewinharhar/GITHUB/reincatalyze/data/processed/docking_pred/2023-May-22-1531_sub9_nm5_bs15_s42_ex16_mel10_mts1000_k50_ec02_g099_lra9e-4_lrc1e-3/a450f47ca4f24610d4ad642e19216dd37a68a7e2_ligand_9.pdbqt
 14 15 0 0 0
SMALL
GASTEIGER

@<TRIPOS>ATOM
      1  C          5.5880    1.2730   -0.4940 C.3     1  UNL1        0.0800
      2  C          5.3330    2.2580    0.5950 C.2     1  UNL1        0.1300
      3  C          6.1320    3.5060    0.7220 C.3     1  UNL1        0.0870
      4  O          4.4550    2.0660    1.4200 O.2     1  UNL1       -0.3000
      5  C          7.0730    1.1110   -0.7530 C.3     1  UNL1        0.0430
      6  C          7.5370   -0.2510   -0.4360 C.2     1  UNL1       -0.0440
      7  C          7.7280   -0.6720    0.8850 C.2     1  UNL1        0.0080
      8  C          7.7890   -1.1410   -1.4560 C.2     1  UNL1        0.0540
      9  C          8.1650   -1.9630    1.1220 C.2     1  UNL1        0.0510
     10  C          8.2290   -2.4450   -1.2120 C.2     1  UNL1        0.1660
     11  C          8.4190   -2.8590    0.0880 C.2     1  UNL1        0.1650
     12  O          8.5450   -3.5010   -2.0400 O.2     1  UNL1       -0.4540
     13  O          8.8510   -4.1750    0.0300 O.2     1  UNL1       -0.4540
     14  C          8.8570   -4.6500   -1.2950 C.3     1  UNL1        0.4680
@<TRIPOS>BOND
     1    12    14    1
     2    12    10    1
     3     8    10    1
     4     8     6    2
     5    14    13    1
     6    10    11    2
     7     5     1    1
     8     5     6    1
     9     1     2    1
    10     6     7    1
    11    13    11    1
    12    11     9    1
    13     2     3    1
    14     2     4    2
    15     7     9    2
