@<TRIPOS>MOLECULE
/home/cewinharhar/GITHUB/reincatalyze/data/processed/docking_pred/2023-May-22-1531_sub9_nm5_bs15_s42_ex16_mel10_mts1000_k50_ec02_g099_lra9e-4_lrc1e-3/a5b16c92fd7591d551db5a31bdb9c28d24e6a5b8_ligand_9.pdbqt
 14 15 0 0 0
SMALL
GASTEIGER

@<TRIPOS>ATOM
      1  C          5.5070    1.9230    1.2590 C.3     1  UNL1        0.0800
      2  C          5.0580    0.7090    1.9970 C.2     1  UNL1        0.1300
      3  C          5.9380   -0.4800    2.1530 C.3     1  UNL1        0.0870
      4  O          3.9470    0.6560    2.4990 O.2     1  UNL1       -0.3000
      5  C          5.3850    1.7320   -0.2400 C.3     1  UNL1        0.0430
      6  C          6.5550    1.0310   -0.7980 C.2     1  UNL1       -0.0440
      7  C          7.8600    1.4680   -0.5450 C.2     1  UNL1        0.0080
      8  C          6.3710   -0.0820   -1.5870 C.2     1  UNL1        0.0540
      9  C          8.9200    0.7700   -1.0950 C.2     1  UNL1        0.0510
     10  C          7.4460   -0.7840   -2.1400 C.2     1  UNL1        0.1660
     11  C          8.7310   -0.3550   -1.8930 C.2     1  UNL1        0.1650
     12  O          7.5240   -1.9010   -2.9450 O.2     1  UNL1       -0.4540
     13  O          9.5800   -1.2260   -2.5570 O.2     1  UNL1       -0.4540
     14  C          8.8610   -2.2740   -3.1620 C.3     1  UNL1        0.4680
@<TRIPOS>BOND
     1    14    12    1
     2    14    13    1
     3    12    10    1
     4    13    11    1
     5    10    11    2
     6    10     8    1
     7    11     9    1
     8     8     6    2
     9     9     7    2
    10     6     7    1
    11     6     5    1
    12     5     1    1
    13     1     2    1
    14     2     3    1
    15     2     4    2
