@<TRIPOS>MOLECULE
/home/cewinharhar/GITHUB/reincatalyze/data/processed/docking_pred/2023-May-22-1531_sub9_nm5_bs15_s42_ex16_mel10_mts1000_k50_ec02_g099_lra9e-4_lrc1e-3/a5b16c92fd7591d551db5a31bdb9c28d24e6a5b8_ligand_9.pdbqt
 14 15 0 0 0
SMALL
GASTEIGER

@<TRIPOS>ATOM
      1  C          5.8030    1.3780   -0.3700 C.3     1  UNL1        0.0800
      2  C          5.1570    1.3360    0.9710 C.2     1  UNL1        0.1300
      3  C          5.4120    0.2250    1.9270 C.3     1  UNL1        0.0870
      4  O          4.3930    2.2190    1.3270 O.2     1  UNL1       -0.3000
      5  C          7.2860    1.0780   -0.2760 C.3     1  UNL1        0.0430
      6  C          7.6210   -0.2220   -0.8830 C.2     1  UNL1       -0.0440
      7  C          7.6220   -0.4050   -2.2710 C.2     1  UNL1        0.0080
      8  C          7.9440   -1.2890   -0.0760 C.2     1  UNL1        0.0540
      9  C          7.9450   -1.6470   -2.7840 C.2     1  UNL1        0.0510
     10  C          8.2700   -2.5440   -0.6000 C.2     1  UNL1        0.1660
     11  C          8.2700   -2.7240   -1.9650 C.2     1  UNL1        0.1650
     12  O          8.6210   -3.7430   -0.0170 O.2     1  UNL1       -0.4540
     13  O          8.6260   -4.0440   -2.1950 O.2     1  UNL1       -0.4540
     14  C          8.9450   -4.7010   -0.9910 C.3     1  UNL1        0.4680
@<TRIPOS>BOND
     1     9     7    1
     2     9    11    2
     3     7     6    2
     4    13    11    1
     5    13    14    1
     6    11    10    1
     7    14    12    1
     8     6     5    1
     9     6     8    1
    10    10     8    2
    11    10    12    1
    12     1     5    1
    13     1     2    1
    14     2     4    2
    15     2     3    1
