@<TRIPOS>MOLECULE
/home/cewinharhar/GITHUB/reincatalyze/data/processed/docking_pred/2023-May-22-1531_sub9_nm5_bs15_s42_ex16_mel10_mts1000_k50_ec02_g099_lra9e-4_lrc1e-3/a5b16c92fd7591d551db5a31bdb9c28d24e6a5b8_ligand_9.pdbqt
 14 15 0 0 0
SMALL
GASTEIGER

@<TRIPOS>ATOM
      1  C          5.4690    2.9120    0.1370 C.3     1  UNL1        0.0800
      2  C          6.2660    3.8220    1.0060 C.2     1  UNL1        0.1300
      3  C          7.2560    4.7750    0.4390 C.3     1  UNL1        0.0870
      4  O          6.1280    3.8100    2.2190 O.2     1  UNL1       -0.3000
      5  C          5.1900    1.5930    0.8300 C.3     1  UNL1        0.0430
      6  C          6.0310    0.5060    0.2970 C.2     1  UNL1       -0.0440
      7  C          6.4150   -0.5810    1.0900 C.2     1  UNL1        0.0080
      8  C          6.4530    0.5500   -1.0130 C.2     1  UNL1        0.0540
      9  C          7.2040   -1.5710    0.5350 C.2     1  UNL1        0.0510
     10  C          7.2500   -0.4540   -1.5700 C.2     1  UNL1        0.1660
     11  C          7.6290   -1.5230   -0.7890 C.2     1  UNL1        0.1650
     12  O          7.7910   -0.6370   -2.8240 O.2     1  UNL1       -0.4540
     13  O          8.4020   -2.3500   -1.5900 O.2     1  UNL1       -0.4540
     14  C          8.4550   -1.8710   -2.9120 C.3     1  UNL1        0.4680
@<TRIPOS>BOND
     1    14    12    1
     2    14    13    1
     3    12    10    1
     4    13    11    1
     5    10     8    1
     6    10    11    2
     7     8     6    2
     8    11     9    1
     9     1     5    1
    10     1     2    1
    11     6     5    1
    12     6     7    1
    13     3     2    1
    14     9     7    2
    15     2     4    2
