MODEL 1
REMARK VINA RESULT:      -7.9      0.000      0.000
REMARK SMILES CC(=O)CCc1ccc2c(c1)OCO2
REMARK SMILES IDX 4 1 2 2 1 3 3 4 5 5 6 6 7 7 11 8 8 9 10 10 9 11 12 12 14 13
REMARK SMILES IDX 13 14
REMARK H PARENT
REMARK Flexibility Score: inf
ROOT
ATOM      1  C   UNL     1       5.469   2.912   0.137  1.00  0.00     0.080 C 
ENDROOT
BRANCH   1   2
ATOM      2  C   UNL     1       6.266   3.822   1.006  1.00  0.00     0.130 C 
ATOM      3  C   UNL     1       7.256   4.775   0.439  1.00  0.00     0.087 C 
ATOM      4  O   UNL     1       6.128   3.810   2.219  1.00  0.00    -0.300 OA
ENDBRANCH   1   2
BRANCH   1   5
ATOM      5  C   UNL     1       5.190   1.593   0.830  1.00  0.00     0.043 C 
BRANCH   5   6
ATOM      6  C   UNL     1       6.031   0.506   0.297  1.00  0.00    -0.044 A 
ATOM      7  C   UNL     1       6.415  -0.581   1.090  1.00  0.00     0.008 A 
ATOM      8  C   UNL     1       6.453   0.550  -1.013  1.00  0.00     0.054 A 
ATOM      9  C   UNL     1       7.204  -1.571   0.535  1.00  0.00     0.051 A 
ATOM     10  C   UNL     1       7.250  -0.454  -1.570  1.00  0.00     0.166 A 
ATOM     11  C   UNL     1       7.629  -1.523  -0.789  1.00  0.00     0.165 A 
ATOM     12  O   UNL     1       7.791  -0.637  -2.824  1.00  0.00    -0.454 OA
ATOM     13  O   UNL     1       8.402  -2.350  -1.590  1.00  0.00    -0.454 OA
ATOM     14  C   UNL     1       8.455  -1.871  -2.912  1.00  0.00     0.468 C 
ENDBRANCH   5   6
ENDBRANCH   1   5
TORSDOF 3
ENDMDL
MODEL 2
REMARK VINA RESULT:      -7.7      1.879      2.606
REMARK SMILES CC(=O)CCc1ccc2c(c1)OCO2
REMARK SMILES IDX 4 1 2 2 1 3 3 4 5 5 6 6 7 7 11 8 8 9 10 10 9 11 12 12 14 13
REMARK SMILES IDX 13 14
REMARK H PARENT
REMARK Flexibility Score: inf
ROOT
ATOM      1  C   UNL     1       5.507   1.923   1.259  1.00  0.00     0.080 C 
ENDROOT
BRANCH   1   2
ATOM      2  C   UNL     1       5.058   0.709   1.997  1.00  0.00     0.130 C 
ATOM      3  C   UNL     1       5.938  -0.480   2.153  1.00  0.00     0.087 C 
ATOM      4  O   UNL     1       3.947   0.656   2.499  1.00  0.00    -0.300 OA
ENDBRANCH   1   2
BRANCH   1   5
ATOM      5  C   UNL     1       5.385   1.732  -0.240  1.00  0.00     0.043 C 
BRANCH   5   6
ATOM      6  C   UNL     1       6.555   1.031  -0.798  1.00  0.00    -0.044 A 
ATOM      7  C   UNL     1       7.860   1.468  -0.545  1.00  0.00     0.008 A 
ATOM      8  C   UNL     1       6.371  -0.082  -1.587  1.00  0.00     0.054 A 
ATOM      9  C   UNL     1       8.920   0.770  -1.095  1.00  0.00     0.051 A 
ATOM     10  C   UNL     1       7.446  -0.784  -2.140  1.00  0.00     0.166 A 
ATOM     11  C   UNL     1       8.731  -0.355  -1.893  1.00  0.00     0.165 A 
ATOM     12  O   UNL     1       7.524  -1.901  -2.945  1.00  0.00    -0.454 OA
ATOM     13  O   UNL     1       9.580  -1.226  -2.557  1.00  0.00    -0.454 OA
ATOM     14  C   UNL     1       8.861  -2.274  -3.162  1.00  0.00     0.468 C 
ENDBRANCH   5   6
ENDBRANCH   1   5
TORSDOF 3
ENDMDL
MODEL 3
REMARK VINA RESULT:      -7.5      1.973      3.012
REMARK SMILES CC(=O)CCc1ccc2c(c1)OCO2
REMARK SMILES IDX 4 1 2 2 1 3 3 4 5 5 6 6 7 7 11 8 8 9 10 10 9 11 12 12 14 13
REMARK SMILES IDX 13 14
REMARK H PARENT
REMARK Flexibility Score: inf
ROOT
ATOM      1  C   UNL     1       5.803   1.378  -0.370  1.00  0.00     0.080 C 
ENDROOT
BRANCH   1   2
ATOM      2  C   UNL     1       5.157   1.336   0.971  1.00  0.00     0.130 C 
ATOM      3  C   UNL     1       5.412   0.225   1.927  1.00  0.00     0.087 C 
ATOM      4  O   UNL     1       4.393   2.219   1.327  1.00  0.00    -0.300 OA
ENDBRANCH   1   2
BRANCH   1   5
ATOM      5  C   UNL     1       7.286   1.078  -0.276  1.00  0.00     0.043 C 
BRANCH   5   6
ATOM      6  C   UNL     1       7.621  -0.222  -0.883  1.00  0.00    -0.044 A 
ATOM      7  C   UNL     1       7.622  -0.405  -2.271  1.00  0.00     0.008 A 
ATOM      8  C   UNL     1       7.944  -1.289  -0.076  1.00  0.00     0.054 A 
ATOM      9  C   UNL     1       7.945  -1.647  -2.784  1.00  0.00     0.051 A 
ATOM     10  C   UNL     1       8.270  -2.544  -0.600  1.00  0.00     0.166 A 
ATOM     11  C   UNL     1       8.270  -2.724  -1.965  1.00  0.00     0.165 A 
ATOM     12  O   UNL     1       8.621  -3.743  -0.017  1.00  0.00    -0.454 OA
ATOM     13  O   UNL     1       8.626  -4.044  -2.195  1.00  0.00    -0.454 OA
ATOM     14  C   UNL     1       8.945  -4.701  -0.991  1.00  0.00     0.468 C 
ENDBRANCH   5   6
ENDBRANCH   1   5
TORSDOF 3
ENDMDL
