MODEL 1
REMARK VINA RESULT:      -7.9      0.000      0.000
REMARK SMILES CC(=O)CCc1ccc2c(c1)OCO2
REMARK SMILES IDX 4 1 2 2 1 3 3 4 5 5 6 6 7 7 11 8 8 9 10 10 9 11 12 12 14 13
REMARK SMILES IDX 13 14
REMARK H PARENT
REMARK Flexibility Score: inf
ROOT
ATOM      1  C   UNL     1       6.007   1.695   1.186  1.00  0.00     0.080 C 
ENDROOT
BRANCH   1   2
ATOM      2  C   UNL     1       5.438   0.606   2.029  1.00  0.00     0.130 C 
ATOM      3  C   UNL     1       6.228  -0.605   2.378  1.00  0.00     0.087 C 
ATOM      4  O   UNL     1       4.298   0.678   2.459  1.00  0.00    -0.300 OA
ENDBRANCH   1   2
BRANCH   1   5
ATOM      5  C   UNL     1       5.729   1.455  -0.285  1.00  0.00     0.043 C 
BRANCH   5   6
ATOM      6  C   UNL     1       6.803   0.672  -0.923  1.00  0.00    -0.044 A 
ATOM      7  C   UNL     1       8.149   1.033  -0.794  1.00  0.00     0.008 A 
ATOM      8  C   UNL     1       6.485  -0.443  -1.664  1.00  0.00     0.054 A 
ATOM      9  C   UNL     1       9.113   0.260  -1.415  1.00  0.00     0.051 A 
ATOM     10  C   UNL     1       7.464  -1.222  -2.289  1.00  0.00     0.166 A 
ATOM     11  C   UNL     1       8.789  -0.867  -2.164  1.00  0.00     0.165 A 
ATOM     12  O   UNL     1       7.405  -2.358  -3.068  1.00  0.00    -0.454 OA
ATOM     13  O   UNL     1       9.523  -1.803  -2.875  1.00  0.00    -0.454 OA
ATOM     14  C   UNL     1       8.693  -2.817  -3.389  1.00  0.00     0.468 C 
ENDBRANCH   5   6
ENDBRANCH   1   5
TORSDOF 3
ENDMDL
MODEL 2
REMARK VINA RESULT:      -7.6      1.892      2.651
REMARK SMILES CC(=O)CCc1ccc2c(c1)OCO2
REMARK SMILES IDX 4 1 2 2 1 3 3 4 5 5 6 6 7 7 11 8 8 9 10 10 9 11 12 12 14 13
REMARK SMILES IDX 13 14
REMARK H PARENT
REMARK Flexibility Score: inf
ROOT
ATOM      1  C   UNL     1       5.502   2.893   0.087  1.00  0.00     0.080 C 
ENDROOT
BRANCH   1   2
ATOM      2  C   UNL     1       6.267   3.766   1.020  1.00  0.00     0.130 C 
ATOM      3  C   UNL     1       7.241   4.775   0.524  1.00  0.00     0.087 C 
ATOM      4  O   UNL     1       6.116   3.677   2.228  1.00  0.00    -0.300 OA
ENDBRANCH   1   2
BRANCH   1   5
ATOM      5  C   UNL     1       5.134   1.576   0.742  1.00  0.00     0.043 C 
BRANCH   5   6
ATOM      6  C   UNL     1       5.987   0.472   0.265  1.00  0.00    -0.044 A 
ATOM      7  C   UNL     1       6.358  -0.583   1.107  1.00  0.00     0.008 A 
ATOM      8  C   UNL     1       6.432   0.468  -1.037  1.00  0.00     0.054 A 
ATOM      9  C   UNL     1       7.159  -1.592   0.604  1.00  0.00     0.051 A 
ATOM     10  C   UNL     1       7.242  -0.555  -1.540  1.00  0.00     0.166 A 
ATOM     11  C   UNL     1       7.609  -1.593  -0.713  1.00  0.00     0.165 A 
ATOM     12  O   UNL     1       7.806  -0.784  -2.777  1.00  0.00    -0.454 OA
ATOM     13  O   UNL     1       8.398  -2.447  -1.467  1.00  0.00    -0.454 OA
ATOM     14  C   UNL     1       8.474  -2.020  -2.806  1.00  0.00     0.468 C 
ENDBRANCH   5   6
ENDBRANCH   1   5
TORSDOF 3
ENDMDL
MODEL 3
REMARK VINA RESULT:      -7.3      1.458      2.030
REMARK SMILES CC(=O)CCc1ccc2c(c1)OCO2
REMARK SMILES IDX 4 1 2 2 1 3 3 4 5 5 6 6 7 7 11 8 8 9 10 10 9 11 12 12 14 13
REMARK SMILES IDX 13 14
REMARK H PARENT
REMARK Flexibility Score: inf
ROOT
ATOM      1  C   UNL     1       5.502   1.973  -0.058  1.00  0.00     0.080 C 
ENDROOT
BRANCH   1   2
ATOM      2  C   UNL     1       5.919   3.016   0.920  1.00  0.00     0.130 C 
ATOM      3  C   UNL     1       6.702   4.209   0.503  1.00  0.00     0.087 C 
ATOM      4  O   UNL     1       5.628   2.919   2.102  1.00  0.00    -0.300 OA
ENDBRANCH   1   2
BRANCH   1   5
ATOM      5  C   UNL     1       5.979   0.598   0.366  1.00  0.00     0.043 C 
BRANCH   5   6
ATOM      6  C   UNL     1       6.835  -0.024  -0.659  1.00  0.00    -0.044 A 
ATOM      7  C   UNL     1       7.404   0.728  -1.693  1.00  0.00     0.008 A 
ATOM      8  C   UNL     1       7.089  -1.376  -0.608  1.00  0.00     0.054 A 
ATOM      9  C   UNL     1       8.200   0.090  -2.627  1.00  0.00     0.051 A 
ATOM     10  C   UNL     1       7.894  -2.016  -1.554  1.00  0.00     0.166 A 
ATOM     11  C   UNL     1       8.455  -1.277  -2.572  1.00  0.00     0.165 A 
ATOM     12  O   UNL     1       8.291  -3.327  -1.718  1.00  0.00    -0.454 OA
ATOM     13  O   UNL     1       9.192  -2.158  -3.348  1.00  0.00    -0.454 OA
ATOM     14  C   UNL     1       9.189  -3.451  -2.791  1.00  0.00     0.468 C 
ENDBRANCH   5   6
ENDBRANCH   1   5
TORSDOF 3
ENDMDL
