@<TRIPOS>MOLECULE
/home/cewinharhar/GITHUB/reincatalyze/data/processed/docking_pred/2023-May-22-1531_sub9_nm5_bs15_s42_ex16_mel10_mts1000_k50_ec02_g099_lra9e-4_lrc1e-3/a614218f6e6a1b7d791f470f20b1a009abdeaae3_ligand_9.pdbqt
 14 15 0 0 0
SMALL
GASTEIGER

@<TRIPOS>ATOM
      1  C          6.0070    1.6950    1.1860 C.3     1  UNL1        0.0800
      2  C          5.4380    0.6060    2.0290 C.2     1  UNL1        0.1300
      3  C          6.2280   -0.6050    2.3780 C.3     1  UNL1        0.0870
      4  O          4.2980    0.6780    2.4590 O.2     1  UNL1       -0.3000
      5  C          5.7290    1.4550   -0.2850 C.3     1  UNL1        0.0430
      6  C          6.8030    0.6720   -0.9230 C.2     1  UNL1       -0.0440
      7  C          8.1490    1.0330   -0.7940 C.2     1  UNL1        0.0080
      8  C          6.4850   -0.4430   -1.6640 C.2     1  UNL1        0.0540
      9  C          9.1130    0.2600   -1.4150 C.2     1  UNL1        0.0510
     10  C          7.4640   -1.2220   -2.2890 C.2     1  UNL1        0.1660
     11  C          8.7890   -0.8670   -2.1640 C.2     1  UNL1        0.1650
     12  O          7.4050   -2.3580   -3.0680 O.2     1  UNL1       -0.4540
     13  O          9.5230   -1.8030   -2.8750 O.2     1  UNL1       -0.4540
     14  C          8.6930   -2.8170   -3.3890 C.3     1  UNL1        0.4680
@<TRIPOS>BOND
     1    14    12    1
     2    14    13    1
     3    12    10    1
     4    13    11    1
     5    10    11    2
     6    10     8    1
     7    11     9    1
     8     8     6    2
     9     9     7    2
    10     6     7    1
    11     6     5    1
    12     5     1    1
    13     1     2    1
    14     2     3    1
    15     2     4    2
