@<TRIPOS>MOLECULE
/home/cewinharhar/GITHUB/reincatalyze/data/processed/docking_pred/2023-May-22-1531_sub9_nm5_bs15_s42_ex16_mel10_mts1000_k50_ec02_g099_lra9e-4_lrc1e-3/a614218f6e6a1b7d791f470f20b1a009abdeaae3_ligand_9.pdbqt
 14 15 0 0 0
SMALL
GASTEIGER

@<TRIPOS>ATOM
      1  C          5.5020    2.8930    0.0870 C.3     1  UNL1        0.0800
      2  C          6.2670    3.7660    1.0200 C.2     1  UNL1        0.1300
      3  C          7.2410    4.7750    0.5240 C.3     1  UNL1        0.0870
      4  O          6.1160    3.6770    2.2280 O.2     1  UNL1       -0.3000
      5  C          5.1340    1.5760    0.7420 C.3     1  UNL1        0.0430
      6  C          5.9870    0.4720    0.2650 C.2     1  UNL1       -0.0440
      7  C          6.3580   -0.5830    1.1070 C.2     1  UNL1        0.0080
      8  C          6.4320    0.4680   -1.0370 C.2     1  UNL1        0.0540
      9  C          7.1590   -1.5920    0.6040 C.2     1  UNL1        0.0510
     10  C          7.2420   -0.5550   -1.5400 C.2     1  UNL1        0.1660
     11  C          7.6090   -1.5930   -0.7130 C.2     1  UNL1        0.1650
     12  O          7.8060   -0.7840   -2.7770 O.2     1  UNL1       -0.4540
     13  O          8.3980   -2.4470   -1.4670 O.2     1  UNL1       -0.4540
     14  C          8.4740   -2.0200   -2.8060 C.3     1  UNL1        0.4680
@<TRIPOS>BOND
     1    14    12    1
     2    14    13    1
     3    12    10    1
     4    10     8    1
     5    10    11    2
     6    13    11    1
     7     8     6    2
     8    11     9    1
     9     1     5    1
    10     1     2    1
    11     6     5    1
    12     6     7    1
    13     3     2    1
    14     9     7    2
    15     2     4    2
