@<TRIPOS>MOLECULE
/home/cewinharhar/GITHUB/reincatalyze/data/processed/docking_pred/2023-May-22-1531_sub9_nm5_bs15_s42_ex16_mel10_mts1000_k50_ec02_g099_lra9e-4_lrc1e-3/a6201df4fd59712db5137144eee8a96fed35f0a9_ligand_9.pdbqt
 14 15 0 0 0
SMALL
GASTEIGER

@<TRIPOS>ATOM
      1  C          5.4470    2.9020    0.0730 C.3     1  UNL1        0.0800
      2  C          6.2740    3.8010    0.9250 C.2     1  UNL1        0.1300
      3  C          7.2350    4.7710    0.3340 C.3     1  UNL1        0.0870
      4  O          6.1860    3.7670    2.1420 O.2     1  UNL1       -0.3000
      5  C          5.1640    1.5880    0.7730 C.3     1  UNL1        0.0430
      6  C          6.0000    0.4950    0.2440 C.2     1  UNL1       -0.0440
      7  C          6.3100   -0.6310    1.0160 C.2     1  UNL1        0.0080
      8  C          6.4910    0.5720   -1.0400 C.2     1  UNL1        0.0540
      9  C          7.0980   -1.6250    0.4660 C.2     1  UNL1        0.0510
     10  C          7.2870   -0.4360   -1.5910 C.2     1  UNL1        0.1660
     11  C          7.5930   -1.5440   -0.8320 C.2     1  UNL1        0.1650
     12  O          7.8870   -0.5920   -2.8220 O.2     1  UNL1       -0.4540
     13  O          8.3830   -2.3650   -1.6210 O.2     1  UNL1       -0.4540
     14  C          8.5190   -1.8420   -2.9210 C.3     1  UNL1        0.4680
@<TRIPOS>BOND
     1    14    12    1
     2    14    13    1
     3    12    10    1
     4    13    11    1
     5    10     8    1
     6    10    11    2
     7     8     6    2
     8    11     9    1
     9     1     5    1
    10     1     2    1
    11     6     5    1
    12     6     7    1
    13     3     2    1
    14     9     7    2
    15     2     4    2
