MODEL 1
REMARK VINA RESULT:      -7.9      0.000      0.000
REMARK SMILES CC(=O)CCc1ccc2c(c1)OCO2
REMARK SMILES IDX 4 1 2 2 1 3 3 4 5 5 6 6 7 7 11 8 8 9 10 10 9 11 12 12 14 13
REMARK SMILES IDX 13 14
REMARK H PARENT
REMARK Flexibility Score: inf
ROOT
ATOM      1  C   UNL     1       5.447   2.902   0.073  1.00  0.00     0.080 C 
ENDROOT
BRANCH   1   2
ATOM      2  C   UNL     1       6.274   3.801   0.925  1.00  0.00     0.130 C 
ATOM      3  C   UNL     1       7.235   4.771   0.334  1.00  0.00     0.087 C 
ATOM      4  O   UNL     1       6.186   3.767   2.142  1.00  0.00    -0.300 OA
ENDBRANCH   1   2
BRANCH   1   5
ATOM      5  C   UNL     1       5.164   1.588   0.773  1.00  0.00     0.043 C 
BRANCH   5   6
ATOM      6  C   UNL     1       6.000   0.495   0.244  1.00  0.00    -0.044 A 
ATOM      7  C   UNL     1       6.310  -0.631   1.016  1.00  0.00     0.008 A 
ATOM      8  C   UNL     1       6.491   0.572  -1.040  1.00  0.00     0.054 A 
ATOM      9  C   UNL     1       7.098  -1.625   0.466  1.00  0.00     0.051 A 
ATOM     10  C   UNL     1       7.287  -0.436  -1.591  1.00  0.00     0.166 A 
ATOM     11  C   UNL     1       7.593  -1.544  -0.832  1.00  0.00     0.165 A 
ATOM     12  O   UNL     1       7.887  -0.592  -2.822  1.00  0.00    -0.454 OA
ATOM     13  O   UNL     1       8.383  -2.365  -1.621  1.00  0.00    -0.454 OA
ATOM     14  C   UNL     1       8.519  -1.842  -2.921  1.00  0.00     0.468 C 
ENDBRANCH   5   6
ENDBRANCH   1   5
TORSDOF 3
ENDMDL
MODEL 2
REMARK VINA RESULT:      -7.7      1.880      2.618
REMARK SMILES CC(=O)CCc1ccc2c(c1)OCO2
REMARK SMILES IDX 4 1 2 2 1 3 3 4 5 5 6 6 7 7 11 8 8 9 10 10 9 11 12 12 14 13
REMARK SMILES IDX 13 14
REMARK H PARENT
REMARK Flexibility Score: inf
ROOT
ATOM      1  C   UNL     1       5.510   1.929   1.258  1.00  0.00     0.080 C 
ENDROOT
BRANCH   1   2
ATOM      2  C   UNL     1       5.072   0.714   2.000  1.00  0.00     0.130 C 
ATOM      3  C   UNL     1       5.966  -0.463   2.166  1.00  0.00     0.087 C 
ATOM      4  O   UNL     1       3.959   0.650   2.496  1.00  0.00    -0.300 OA
ENDBRANCH   1   2
BRANCH   1   5
ATOM      5  C   UNL     1       5.386   1.734  -0.240  1.00  0.00     0.043 C 
BRANCH   5   6
ATOM      6  C   UNL     1       6.556   1.032  -0.798  1.00  0.00    -0.044 A 
ATOM      7  C   UNL     1       7.862   1.465  -0.542  1.00  0.00     0.008 A 
ATOM      8  C   UNL     1       6.371  -0.080  -1.589  1.00  0.00     0.054 A 
ATOM      9  C   UNL     1       8.921   0.766  -1.092  1.00  0.00     0.051 A 
ATOM     10  C   UNL     1       7.446  -0.784  -2.142  1.00  0.00     0.166 A 
ATOM     11  C   UNL     1       8.731  -0.357  -1.891  1.00  0.00     0.165 A 
ATOM     12  O   UNL     1       7.523  -1.900  -2.948  1.00  0.00    -0.454 OA
ATOM     13  O   UNL     1       9.579  -1.229  -2.555  1.00  0.00    -0.454 OA
ATOM     14  C   UNL     1       8.859  -2.275  -3.163  1.00  0.00     0.468 C 
ENDBRANCH   5   6
ENDBRANCH   1   5
TORSDOF 3
ENDMDL
MODEL 3
REMARK VINA RESULT:      -7.5      1.964      3.014
REMARK SMILES CC(=O)CCc1ccc2c(c1)OCO2
REMARK SMILES IDX 4 1 2 2 1 3 3 4 5 5 6 6 7 7 11 8 8 9 10 10 9 11 12 12 14 13
REMARK SMILES IDX 13 14
REMARK H PARENT
REMARK Flexibility Score: inf
ROOT
ATOM      1  C   UNL     1       5.752   1.332  -0.359  1.00  0.00     0.080 C 
ENDROOT
BRANCH   1   2
ATOM      2  C   UNL     1       5.135   1.305   0.997  1.00  0.00     0.130 C 
ATOM      3  C   UNL     1       5.376   0.183   1.943  1.00  0.00     0.087 C 
ATOM      4  O   UNL     1       4.408   2.211   1.372  1.00  0.00    -0.300 OA
ENDBRANCH   1   2
BRANCH   1   5
ATOM      5  C   UNL     1       7.247   1.094  -0.288  1.00  0.00     0.043 C 
BRANCH   5   6
ATOM      6  C   UNL     1       7.624  -0.198  -0.888  1.00  0.00    -0.044 A 
ATOM      7  C   UNL     1       7.717  -0.363  -2.275  1.00  0.00     0.008 A 
ATOM      8  C   UNL     1       7.896  -1.275  -0.075  1.00  0.00     0.054 A 
ATOM      9  C   UNL     1       8.077  -1.599  -2.782  1.00  0.00     0.051 A 
ATOM     10  C   UNL     1       8.260  -2.522  -0.592  1.00  0.00     0.166 A 
ATOM     11  C   UNL     1       8.350  -2.685  -1.956  1.00  0.00     0.165 A 
ATOM     12  O   UNL     1       8.574  -3.728  -0.002  1.00  0.00    -0.454 OA
ATOM     13  O   UNL     1       8.723  -4.001  -2.179  1.00  0.00    -0.454 OA
ATOM     14  C   UNL     1       8.964  -4.673  -0.965  1.00  0.00     0.468 C 
ENDBRANCH   5   6
ENDBRANCH   1   5
TORSDOF 3
ENDMDL
