MODEL 1
REMARK VINA RESULT:      -7.8      0.000      0.000
REMARK SMILES CC(=O)CCc1ccc2c(c1)OCO2
REMARK SMILES IDX 4 1 2 2 1 3 3 4 5 5 6 6 7 7 11 8 8 9 10 10 9 11 12 12 14 13
REMARK SMILES IDX 13 14
REMARK H PARENT
REMARK Flexibility Score: inf
ROOT
ATOM      1  C   UNL     1       5.408   2.938   0.281  1.00  0.00     0.080 C 
ENDROOT
BRANCH   1   2
ATOM      2  C   UNL     1       6.367   3.760   1.070  1.00  0.00     0.130 C 
ATOM      3  C   UNL     1       7.242   4.775   0.424  1.00  0.00     0.087 C 
ATOM      4  O   UNL     1       6.463   3.623   2.279  1.00  0.00    -0.300 OA
ENDBRANCH   1   2
BRANCH   1   5
ATOM      5  C   UNL     1       5.120   1.617   0.967  1.00  0.00     0.043 C 
BRANCH   5   6
ATOM      6  C   UNL     1       5.957   0.529   0.431  1.00  0.00    -0.044 A 
ATOM      7  C   UNL     1       6.353  -0.551   1.228  1.00  0.00     0.008 A 
ATOM      8  C   UNL     1       6.361   0.563  -0.884  1.00  0.00     0.054 A 
ATOM      9  C   UNL     1       7.138  -1.545   0.671  1.00  0.00     0.051 A 
ATOM     10  C   UNL     1       7.154  -0.444  -1.443  1.00  0.00     0.166 A 
ATOM     11  C   UNL     1       7.545  -1.506  -0.659  1.00  0.00     0.165 A 
ATOM     12  O   UNL     1       7.679  -0.635  -2.703  1.00  0.00    -0.454 OA
ATOM     13  O   UNL     1       8.310  -2.337  -1.463  1.00  0.00    -0.454 OA
ATOM     14  C   UNL     1       8.345  -1.869  -2.790  1.00  0.00     0.468 C 
ENDBRANCH   5   6
ENDBRANCH   1   5
TORSDOF 3
ENDMDL
MODEL 2
REMARK VINA RESULT:      -7.7      1.894      2.658
REMARK SMILES CC(=O)CCc1ccc2c(c1)OCO2
REMARK SMILES IDX 4 1 2 2 1 3 3 4 5 5 6 6 7 7 11 8 8 9 10 10 9 11 12 12 14 13
REMARK SMILES IDX 13 14
REMARK H PARENT
REMARK Flexibility Score: inf
ROOT
ATOM      1  C   UNL     1       5.511   1.904   1.277  1.00  0.00     0.080 C 
ENDROOT
BRANCH   1   2
ATOM      2  C   UNL     1       5.066   0.685   2.008  1.00  0.00     0.130 C 
ATOM      3  C   UNL     1       5.947  -0.505   2.151  1.00  0.00     0.087 C 
ATOM      4  O   UNL     1       3.958   0.628   2.515  1.00  0.00    -0.300 OA
ENDBRANCH   1   2
BRANCH   1   5
ATOM      5  C   UNL     1       5.386   1.722  -0.223  1.00  0.00     0.043 C 
BRANCH   5   6
ATOM      6  C   UNL     1       6.556   1.027  -0.788  1.00  0.00    -0.044 A 
ATOM      7  C   UNL     1       7.861   1.471  -0.545  1.00  0.00     0.008 A 
ATOM      8  C   UNL     1       6.373  -0.088  -1.574  1.00  0.00     0.054 A 
ATOM      9  C   UNL     1       8.921   0.777  -1.101  1.00  0.00     0.051 A 
ATOM     10  C   UNL     1       7.447  -0.786  -2.134  1.00  0.00     0.166 A 
ATOM     11  C   UNL     1       8.732  -0.350  -1.896  1.00  0.00     0.165 A 
ATOM     12  O   UNL     1       7.526  -1.904  -2.937  1.00  0.00    -0.454 OA
ATOM     13  O   UNL     1       9.581  -1.218  -2.564  1.00  0.00    -0.454 OA
ATOM     14  C   UNL     1       8.863  -2.271  -3.162  1.00  0.00     0.468 C 
ENDBRANCH   5   6
ENDBRANCH   1   5
TORSDOF 3
ENDMDL
MODEL 3
REMARK VINA RESULT:      -7.5      1.965      3.071
REMARK SMILES CC(=O)CCc1ccc2c(c1)OCO2
REMARK SMILES IDX 4 1 2 2 1 3 3 4 5 5 6 6 7 7 11 8 8 9 10 10 9 11 12 12 14 13
REMARK SMILES IDX 13 14
REMARK H PARENT
REMARK Flexibility Score: inf
ROOT
ATOM      1  C   UNL     1       5.726   1.288  -0.321  1.00  0.00     0.080 C 
ENDROOT
BRANCH   1   2
ATOM      2  C   UNL     1       5.183   1.294   1.066  1.00  0.00     0.130 C 
ATOM      3  C   UNL     1       5.335   0.122   1.969  1.00  0.00     0.087 C 
ATOM      4  O   UNL     1       4.592   2.268   1.503  1.00  0.00    -0.300 OA
ENDBRANCH   1   2
BRANCH   1   5
ATOM      5  C   UNL     1       7.229   1.091  -0.323  1.00  0.00     0.043 C 
BRANCH   5   6
ATOM      6  C   UNL     1       7.610  -0.206  -0.911  1.00  0.00    -0.044 A 
ATOM      7  C   UNL     1       7.694  -0.386  -2.297  1.00  0.00     0.008 A 
ATOM      8  C   UNL     1       7.893  -1.272  -0.088  1.00  0.00     0.054 A 
ATOM      9  C   UNL     1       8.057  -1.626  -2.791  1.00  0.00     0.051 A 
ATOM     10  C   UNL     1       8.261  -2.523  -0.593  1.00  0.00     0.166 A 
ATOM     11  C   UNL     1       8.343  -2.701  -1.956  1.00  0.00     0.165 A 
ATOM     12  O   UNL     1       8.586  -3.720   0.009  1.00  0.00    -0.454 OA
ATOM     13  O   UNL     1       8.722  -4.018  -2.165  1.00  0.00    -0.454 OA
ATOM     14  C   UNL     1       8.975  -4.674  -0.946  1.00  0.00     0.468 C 
ENDBRANCH   5   6
ENDBRANCH   1   5
TORSDOF 3
ENDMDL
