@<TRIPOS>MOLECULE
/home/cewinharhar/GITHUB/reincatalyze/data/processed/docking_pred/2023-May-22-1531_sub9_nm5_bs15_s42_ex16_mel10_mts1000_k50_ec02_g099_lra9e-4_lrc1e-3/a7c8c9f10e55c2841f25afbe7e611a3f864293db_ligand_9.pdbqt
 14 15 0 0 0
SMALL
GASTEIGER

@<TRIPOS>ATOM
      1  C          5.7260    1.2880   -0.3210 C.3     1  UNL1        0.0800
      2  C          5.1830    1.2940    1.0660 C.2     1  UNL1        0.1300
      3  C          5.3350    0.1220    1.9690 C.3     1  UNL1        0.0870
      4  O          4.5920    2.2680    1.5030 O.2     1  UNL1       -0.3000
      5  C          7.2290    1.0910   -0.3230 C.3     1  UNL1        0.0430
      6  C          7.6100   -0.2060   -0.9110 C.2     1  UNL1       -0.0440
      7  C          7.6940   -0.3860   -2.2970 C.2     1  UNL1        0.0080
      8  C          7.8930   -1.2720   -0.0880 C.2     1  UNL1        0.0540
      9  C          8.0570   -1.6260   -2.7910 C.2     1  UNL1        0.0510
     10  C          8.2610   -2.5230   -0.5930 C.2     1  UNL1        0.1660
     11  C          8.3430   -2.7010   -1.9560 C.2     1  UNL1        0.1650
     12  O          8.5860   -3.7200    0.0090 O.2     1  UNL1       -0.4540
     13  O          8.7220   -4.0180   -2.1650 O.2     1  UNL1       -0.4540
     14  C          8.9750   -4.6740   -0.9460 C.3     1  UNL1        0.4680
@<TRIPOS>BOND
     1     9     7    1
     2     9    11    2
     3     7     6    2
     4    13    11    1
     5    13    14    1
     6    11    10    1
     7    14    12    1
     8     6     5    1
     9     6     8    1
    10    10     8    2
    11    10    12    1
    12     5     1    1
    13     1     2    1
    14     2     4    2
    15     2     3    1
