@<TRIPOS>MOLECULE
/home/cewinharhar/GITHUB/reincatalyze/data/processed/docking_pred/2023-May-22-1531_sub9_nm5_bs15_s42_ex16_mel10_mts1000_k50_ec02_g099_lra9e-4_lrc1e-3/a7c8c9f10e55c2841f25afbe7e611a3f864293db_ligand_9.pdbqt
 14 15 0 0 0
SMALL
GASTEIGER

@<TRIPOS>ATOM
      1  C          5.4080    2.9380    0.2810 C.3     1  UNL1        0.0800
      2  C          6.3670    3.7600    1.0700 C.2     1  UNL1        0.1300
      3  C          7.2420    4.7750    0.4240 C.3     1  UNL1        0.0870
      4  O          6.4630    3.6230    2.2790 O.2     1  UNL1       -0.3000
      5  C          5.1200    1.6170    0.9670 C.3     1  UNL1        0.0430
      6  C          5.9570    0.5290    0.4310 C.2     1  UNL1       -0.0440
      7  C          6.3530   -0.5510    1.2280 C.2     1  UNL1        0.0080
      8  C          6.3610    0.5630   -0.8840 C.2     1  UNL1        0.0540
      9  C          7.1380   -1.5450    0.6710 C.2     1  UNL1        0.0510
     10  C          7.1540   -0.4440   -1.4430 C.2     1  UNL1        0.1660
     11  C          7.5450   -1.5060   -0.6590 C.2     1  UNL1        0.1650
     12  O          7.6790   -0.6350   -2.7030 O.2     1  UNL1       -0.4540
     13  O          8.3100   -2.3370   -1.4630 O.2     1  UNL1       -0.4540
     14  C          8.3450   -1.8690   -2.7900 C.3     1  UNL1        0.4680
@<TRIPOS>BOND
     1    14    12    1
     2    14    13    1
     3    12    10    1
     4    13    11    1
     5    10     8    1
     6    10    11    2
     7     8     6    2
     8    11     9    1
     9     1     5    1
    10     1     2    1
    11     3     2    1
    12     6     5    1
    13     6     7    1
    14     9     7    2
    15     2     4    2
