@<TRIPOS>MOLECULE
/home/cewinharhar/GITHUB/reincatalyze/data/processed/docking_pred/2023-May-22-1531_sub9_nm5_bs15_s42_ex16_mel10_mts1000_k50_ec02_g099_lra9e-4_lrc1e-3/a7c8c9f10e55c2841f25afbe7e611a3f864293db_ligand_9.pdbqt
 14 15 0 0 0
SMALL
GASTEIGER

@<TRIPOS>ATOM
      1  C          5.5110    1.9040    1.2770 C.3     1  UNL1        0.0800
      2  C          5.0660    0.6850    2.0080 C.2     1  UNL1        0.1300
      3  C          5.9470   -0.5050    2.1510 C.3     1  UNL1        0.0870
      4  O          3.9580    0.6280    2.5150 O.2     1  UNL1       -0.3000
      5  C          5.3860    1.7220   -0.2230 C.3     1  UNL1        0.0430
      6  C          6.5560    1.0270   -0.7880 C.2     1  UNL1       -0.0440
      7  C          7.8610    1.4710   -0.5450 C.2     1  UNL1        0.0080
      8  C          6.3730   -0.0880   -1.5740 C.2     1  UNL1        0.0540
      9  C          8.9210    0.7770   -1.1010 C.2     1  UNL1        0.0510
     10  C          7.4470   -0.7860   -2.1340 C.2     1  UNL1        0.1660
     11  C          8.7320   -0.3500   -1.8960 C.2     1  UNL1        0.1650
     12  O          7.5260   -1.9040   -2.9370 O.2     1  UNL1       -0.4540
     13  O          9.5810   -1.2180   -2.5640 O.2     1  UNL1       -0.4540
     14  C          8.8630   -2.2710   -3.1620 C.3     1  UNL1        0.4680
@<TRIPOS>BOND
     1    14    12    1
     2    14    13    1
     3    12    10    1
     4    13    11    1
     5    10    11    2
     6    10     8    1
     7    11     9    1
     8     8     6    2
     9     9     7    2
    10     6     7    1
    11     6     5    1
    12     5     1    1
    13     1     2    1
    14     2     3    1
    15     2     4    2
