@<TRIPOS>MOLECULE
/home/cewinharhar/GITHUB/reincatalyze/data/processed/docking_pred/2023-May-22-1531_sub9_nm5_bs15_s42_ex16_mel10_mts1000_k50_ec02_g099_lra9e-4_lrc1e-3/ab317eb7565d030be4138c7249420e244018cf00_ligand_9.pdbqt
 14 15 0 0 0
SMALL
GASTEIGER

@<TRIPOS>ATOM
      1  C          5.5030    1.9460    1.2440 C.3     1  UNL1        0.0800
      2  C          5.0850    0.7310    1.9980 C.2     1  UNL1        0.1300
      3  C          5.9970   -0.4310    2.1740 C.3     1  UNL1        0.0870
      4  O          3.9740    0.6540    2.4960 O.2     1  UNL1       -0.3000
      5  C          5.3790    1.7350   -0.2520 C.3     1  UNL1        0.0430
      6  C          6.5530    1.0360   -0.8050 C.2     1  UNL1       -0.0440
      7  C          7.8570    1.4710   -0.5400 C.2     1  UNL1        0.0080
      8  C          6.3740   -0.0740   -1.5990 C.2     1  UNL1        0.0540
      9  C          8.9200    0.7740   -1.0860 C.2     1  UNL1        0.0510
     10  C          7.4520   -0.7750   -2.1480 C.2     1  UNL1        0.1660
     11  C          8.7350   -0.3470   -1.8890 C.2     1  UNL1        0.1650
     12  O          7.5350   -1.8880   -2.9560 O.2     1  UNL1       -0.4540
     13  O          9.5880   -1.2170   -2.5500 O.2     1  UNL1       -0.4540
     14  C          8.8730   -2.2620   -3.1650 C.3     1  UNL1        0.4680
@<TRIPOS>BOND
     1    14    12    1
     2    14    13    1
     3    12    10    1
     4    13    11    1
     5    10    11    2
     6    10     8    1
     7    11     9    1
     8     8     6    2
     9     9     7    2
    10     6     7    1
    11     6     5    1
    12     5     1    1
    13     1     2    1
    14     2     3    1
    15     2     4    2
