@<TRIPOS>MOLECULE
/home/cewinharhar/GITHUB/reincatalyze/data/processed/docking_pred/2023-May-22-1531_sub9_nm5_bs15_s42_ex16_mel10_mts1000_k50_ec02_g099_lra9e-4_lrc1e-3/ab317eb7565d030be4138c7249420e244018cf00_ligand_9.pdbqt
 14 15 0 0 0
SMALL
GASTEIGER

@<TRIPOS>ATOM
      1  C          5.4480    2.8950    0.0730 C.3     1  UNL1        0.0800
      2  C          6.2860    3.8010    0.9060 C.2     1  UNL1        0.1300
      3  C          7.2320    4.7720    0.2930 C.3     1  UNL1        0.0870
      4  O          6.2190    3.7730    2.1240 O.2     1  UNL1       -0.3000
      5  C          5.1830    1.5820    0.7830 C.3     1  UNL1        0.0430
      6  C          6.0170    0.4920    0.2460 C.2     1  UNL1       -0.0440
      7  C          6.3270   -0.6390    1.0100 C.2     1  UNL1        0.0080
      8  C          6.5050    0.5760   -1.0380 C.2     1  UNL1        0.0540
      9  C          7.1130   -1.6310    0.4530 C.2     1  UNL1        0.0510
     10  C          7.2990   -0.4300   -1.5970 C.2     1  UNL1        0.1660
     11  C          7.6060   -1.5420   -0.8450 C.2     1  UNL1        0.1650
     12  O          7.8970   -0.5780   -2.8300 O.2     1  UNL1       -0.4540
     13  O          8.3930   -2.3590   -1.6410 O.2     1  UNL1       -0.4540
     14  C          8.5270   -1.8290   -2.9380 C.3     1  UNL1        0.4680
@<TRIPOS>BOND
     1    14    12    1
     2    14    13    1
     3    12    10    1
     4    13    11    1
     5    10     8    1
     6    10    11    2
     7     8     6    2
     8    11     9    1
     9     1     5    1
    10     1     2    1
    11     6     5    1
    12     6     7    1
    13     3     2    1
    14     9     7    2
    15     2     4    2
