@<TRIPOS>MOLECULE
/home/cewinharhar/GITHUB/reincatalyze/data/processed/docking_pred/2023-May-22-1531_sub9_nm5_bs15_s42_ex16_mel10_mts1000_k50_ec02_g099_lra9e-4_lrc1e-3/ab317eb7565d030be4138c7249420e244018cf00_ligand_9.pdbqt
 14 15 0 0 0
SMALL
GASTEIGER

@<TRIPOS>ATOM
      1  C          5.4820    2.9190    0.0640 C.3     1  UNL1        0.0800
      2  C          6.2360    3.8820    0.9140 C.2     1  UNL1        0.1300
      3  C          7.2810    4.7750    0.3430 C.3     1  UNL1        0.0870
      4  O          6.0180    3.9670    2.1110 O.2     1  UNL1       -0.3000
      5  C          5.1900    1.6350    0.8150 C.3     1  UNL1        0.0430
      6  C          6.0300    0.5210    0.3410 C.2     1  UNL1       -0.0440
      7  C          6.5060    0.4700   -0.9740 C.2     1  UNL1        0.0080
      8  C          6.3640   -0.4970    1.2050 C.2     1  UNL1        0.0540
      9  C          7.2920   -0.6000   -1.3620 C.2     1  UNL1        0.0510
     10  C          7.1590   -1.5760    0.8080 C.2     1  UNL1        0.1660
     11  C          7.6270   -1.6280   -0.4870 C.2     1  UNL1        0.1650
     12  O          7.6220   -2.6950    1.4670 O.2     1  UNL1       -0.4540
     13  O          8.3760   -2.7890   -0.5960 O.2     1  UNL1       -0.4540
     14  C          8.4740   -3.4490    0.6430 C.3     1  UNL1        0.4680
@<TRIPOS>BOND
     1     9     7    1
     2     9    11    2
     3     7     6    2
     4    13    11    1
     5    13    14    1
     6    11    10    1
     7     1     5    1
     8     1     2    1
     9     6     5    1
    10     6     8    1
    11     3     2    1
    12    14    12    1
    13    10     8    2
    14    10    12    1
    15     2     4    2
