MODEL 1
REMARK VINA RESULT:      -7.9      0.000      0.000
REMARK SMILES CC(=O)CCc1ccc2c(c1)OCO2
REMARK SMILES IDX 4 1 2 2 1 3 3 4 5 5 6 6 7 7 11 8 8 9 10 10 9 11 12 12 14 13
REMARK SMILES IDX 13 14
REMARK H PARENT
REMARK Flexibility Score: inf
ROOT
ATOM      1  C   UNL     1       5.446   2.924   0.178  1.00  0.00     0.080 C 
ENDROOT
BRANCH   1   2
ATOM      2  C   UNL     1       6.262   3.880   0.976  1.00  0.00     0.130 C 
ATOM      3  C   UNL     1       7.264   4.775   0.338  1.00  0.00     0.087 C 
ATOM      4  O   UNL     1       6.131   3.957   2.187  1.00  0.00    -0.300 OA
ENDBRANCH   1   2
BRANCH   1   5
ATOM      5  C   UNL     1       5.226   1.626   0.930  1.00  0.00     0.043 C 
BRANCH   5   6
ATOM      6  C   UNL     1       6.041   0.530   0.377  1.00  0.00    -0.044 A 
ATOM      7  C   UNL     1       6.371  -0.595   1.141  1.00  0.00     0.008 A 
ATOM      8  C   UNL     1       6.490   0.602  -0.922  1.00  0.00     0.054 A 
ATOM      9  C   UNL     1       7.138  -1.594   0.569  1.00  0.00     0.051 A 
ATOM     10  C   UNL     1       7.265  -0.411  -1.496  1.00  0.00     0.166 A 
ATOM     11  C   UNL     1       7.592  -1.517  -0.744  1.00  0.00     0.165 A 
ATOM     12  O   UNL     1       7.825  -0.571  -2.746  1.00  0.00    -0.454 OA
ATOM     13  O   UNL     1       8.353  -2.343  -1.557  1.00  0.00    -0.454 OA
ATOM     14  C   UNL     1       8.449  -1.824  -2.862  1.00  0.00     0.468 C 
ENDBRANCH   5   6
ENDBRANCH   1   5
TORSDOF 3
ENDMDL
MODEL 2
REMARK VINA RESULT:      -7.8      1.000      1.986
REMARK SMILES CC(=O)CCc1ccc2c(c1)OCO2
REMARK SMILES IDX 4 1 2 2 1 3 3 4 5 5 6 6 7 7 11 8 8 9 10 10 9 11 12 12 14 13
REMARK SMILES IDX 13 14
REMARK H PARENT
REMARK Flexibility Score: inf
ROOT
ATOM      1  C   UNL     1       5.365   2.977   0.291  1.00  0.00     0.080 C 
ENDROOT
BRANCH   1   2
ATOM      2  C   UNL     1       6.344   3.798   1.057  1.00  0.00     0.130 C 
ATOM      3  C   UNL     1       7.240   4.774   0.383  1.00  0.00     0.087 C 
ATOM      4  O   UNL     1       6.438   3.690   2.269  1.00  0.00    -0.300 OA
ENDBRANCH   1   2
BRANCH   1   5
ATOM      5  C   UNL     1       5.135   1.633   0.954  1.00  0.00     0.043 C 
BRANCH   5   6
ATOM      6  C   UNL     1       5.977   0.579   0.361  1.00  0.00    -0.044 A 
ATOM      7  C   UNL     1       6.371   0.624  -0.982  1.00  0.00     0.008 A 
ATOM      8  C   UNL     1       6.394  -0.478   1.137  1.00  0.00     0.054 A 
ATOM      9  C   UNL     1       7.162  -0.393  -1.483  1.00  0.00     0.051 A 
ATOM     10  C   UNL     1       7.195  -1.504   0.625  1.00  0.00     0.166 A 
ATOM     11  C   UNL     1       7.582  -1.461  -0.696  1.00  0.00     0.165 A 
ATOM     12  O   UNL     1       7.731  -2.644   1.183  1.00  0.00    -0.454 OA
ATOM     13  O   UNL     1       8.357  -2.587  -0.923  1.00  0.00    -0.454 OA
ATOM     14  C   UNL     1       8.552  -3.318   0.264  1.00  0.00     0.468 C 
ENDBRANCH   5   6
ENDBRANCH   1   5
TORSDOF 3
ENDMDL
MODEL 3
REMARK VINA RESULT:      -7.7      1.906      2.653
REMARK SMILES CC(=O)CCc1ccc2c(c1)OCO2
REMARK SMILES IDX 4 1 2 2 1 3 3 4 5 5 6 6 7 7 11 8 8 9 10 10 9 11 12 12 14 13
REMARK SMILES IDX 13 14
REMARK H PARENT
REMARK Flexibility Score: inf
ROOT
ATOM      1  C   UNL     1       5.545   1.925   1.263  1.00  0.00     0.080 C 
ENDROOT
BRANCH   1   2
ATOM      2  C   UNL     1       5.115   0.706   2.003  1.00  0.00     0.130 C 
ATOM      3  C   UNL     1       6.025  -0.457   2.186  1.00  0.00     0.087 C 
ATOM      4  O   UNL     1       3.996   0.625   2.482  1.00  0.00    -0.300 OA
ENDBRANCH   1   2
BRANCH   1   5
ATOM      5  C   UNL     1       5.417   1.733  -0.236  1.00  0.00     0.043 C 
BRANCH   5   6
ATOM      6  C   UNL     1       6.582   1.027  -0.798  1.00  0.00    -0.044 A 
ATOM      7  C   UNL     1       7.891   1.452  -0.541  1.00  0.00     0.008 A 
ATOM      8  C   UNL     1       6.390  -0.079  -1.594  1.00  0.00     0.054 A 
ATOM      9  C   UNL     1       8.945   0.749  -1.095  1.00  0.00     0.051 A 
ATOM     10  C   UNL     1       7.460  -0.786  -2.151  1.00  0.00     0.166 A 
ATOM     11  C   UNL     1       8.748  -0.369  -1.900  1.00  0.00     0.165 A 
ATOM     12  O   UNL     1       7.529  -1.899  -2.963  1.00  0.00    -0.454 OA
ATOM     13  O   UNL     1       9.590  -1.243  -2.569  1.00  0.00    -0.454 OA
ATOM     14  C   UNL     1       8.863  -2.281  -3.181  1.00  0.00     0.468 C 
ENDBRANCH   5   6
ENDBRANCH   1   5
TORSDOF 3
ENDMDL
