@<TRIPOS>MOLECULE
/home/cewinharhar/GITHUB/reincatalyze/data/processed/docking_pred/2023-May-22-1531_sub9_nm5_bs15_s42_ex16_mel10_mts1000_k50_ec02_g099_lra9e-4_lrc1e-3/ab5903e155d5198269deee73f32ad6fb308dffee_ligand_9.pdbqt
 14 15 0 0 0
SMALL
GASTEIGER

@<TRIPOS>ATOM
      1  C          5.5450    1.9250    1.2630 C.3     1  UNL1        0.0800
      2  C          5.1150    0.7060    2.0030 C.2     1  UNL1        0.1300
      3  C          6.0250   -0.4570    2.1860 C.3     1  UNL1        0.0870
      4  O          3.9960    0.6250    2.4820 O.2     1  UNL1       -0.3000
      5  C          5.4170    1.7330   -0.2360 C.3     1  UNL1        0.0430
      6  C          6.5820    1.0270   -0.7980 C.2     1  UNL1       -0.0440
      7  C          7.8910    1.4520   -0.5410 C.2     1  UNL1        0.0080
      8  C          6.3900   -0.0790   -1.5940 C.2     1  UNL1        0.0540
      9  C          8.9450    0.7490   -1.0950 C.2     1  UNL1        0.0510
     10  C          7.4600   -0.7860   -2.1510 C.2     1  UNL1        0.1660
     11  C          8.7480   -0.3690   -1.9000 C.2     1  UNL1        0.1650
     12  O          7.5290   -1.8990   -2.9630 O.2     1  UNL1       -0.4540
     13  O          9.5900   -1.2430   -2.5690 O.2     1  UNL1       -0.4540
     14  C          8.8630   -2.2810   -3.1810 C.3     1  UNL1        0.4680
@<TRIPOS>BOND
     1    14    12    1
     2    14    13    1
     3    12    10    1
     4    13    11    1
     5    10    11    2
     6    10     8    1
     7    11     9    1
     8     8     6    2
     9     9     7    2
    10     6     7    1
    11     6     5    1
    12     5     1    1
    13     1     2    1
    14     2     3    1
    15     2     4    2
