@<TRIPOS>MOLECULE
/home/cewinharhar/GITHUB/reincatalyze/data/processed/docking_pred/2023-May-22-1531_sub9_nm5_bs15_s42_ex16_mel10_mts1000_k50_ec02_g099_lra9e-4_lrc1e-3/ab5903e155d5198269deee73f32ad6fb308dffee_ligand_9.pdbqt
 14 15 0 0 0
SMALL
GASTEIGER

@<TRIPOS>ATOM
      1  C          5.3650    2.9770    0.2910 C.3     1  UNL1        0.0800
      2  C          6.3440    3.7980    1.0570 C.2     1  UNL1        0.1300
      3  C          7.2400    4.7740    0.3830 C.3     1  UNL1        0.0870
      4  O          6.4380    3.6900    2.2690 O.2     1  UNL1       -0.3000
      5  C          5.1350    1.6330    0.9540 C.3     1  UNL1        0.0430
      6  C          5.9770    0.5790    0.3610 C.2     1  UNL1       -0.0440
      7  C          6.3710    0.6240   -0.9820 C.2     1  UNL1        0.0080
      8  C          6.3940   -0.4780    1.1370 C.2     1  UNL1        0.0540
      9  C          7.1620   -0.3930   -1.4830 C.2     1  UNL1        0.0510
     10  C          7.1950   -1.5040    0.6250 C.2     1  UNL1        0.1660
     11  C          7.5820   -1.4610   -0.6960 C.2     1  UNL1        0.1650
     12  O          7.7310   -2.6440    1.1830 O.2     1  UNL1       -0.4540
     13  O          8.3570   -2.5870   -0.9230 O.2     1  UNL1       -0.4540
     14  C          8.5520   -3.3180    0.2640 C.3     1  UNL1        0.4680
@<TRIPOS>BOND
     1     9     7    1
     2     9    11    2
     3     7     6    2
     4    13    11    1
     5    13    14    1
     6    11    10    1
     7    14    12    1
     8     1     5    1
     9     1     2    1
    10     6     5    1
    11     6     8    1
    12     3     2    1
    13    10     8    2
    14    10    12    1
    15     2     4    2
