@<TRIPOS>MOLECULE
/home/cewinharhar/GITHUB/reincatalyze/data/processed/docking_pred/2023-May-22-1531_sub9_nm5_bs15_s42_ex16_mel10_mts1000_k50_ec02_g099_lra9e-4_lrc1e-3/ab5903e155d5198269deee73f32ad6fb308dffee_ligand_9.pdbqt
 14 15 0 0 0
SMALL
GASTEIGER

@<TRIPOS>ATOM
      1  C          5.4460    2.9240    0.1780 C.3     1  UNL1        0.0800
      2  C          6.2620    3.8800    0.9760 C.2     1  UNL1        0.1300
      3  C          7.2640    4.7750    0.3380 C.3     1  UNL1        0.0870
      4  O          6.1310    3.9570    2.1870 O.2     1  UNL1       -0.3000
      5  C          5.2260    1.6260    0.9300 C.3     1  UNL1        0.0430
      6  C          6.0410    0.5300    0.3770 C.2     1  UNL1       -0.0440
      7  C          6.3710   -0.5950    1.1410 C.2     1  UNL1        0.0080
      8  C          6.4900    0.6020   -0.9220 C.2     1  UNL1        0.0540
      9  C          7.1380   -1.5940    0.5690 C.2     1  UNL1        0.0510
     10  C          7.2650   -0.4110   -1.4960 C.2     1  UNL1        0.1660
     11  C          7.5920   -1.5170   -0.7440 C.2     1  UNL1        0.1650
     12  O          7.8250   -0.5710   -2.7460 O.2     1  UNL1       -0.4540
     13  O          8.3530   -2.3430   -1.5570 O.2     1  UNL1       -0.4540
     14  C          8.4490   -1.8240   -2.8620 C.3     1  UNL1        0.4680
@<TRIPOS>BOND
     1    14    12    1
     2    14    13    1
     3    12    10    1
     4    13    11    1
     5    10     8    1
     6    10    11    2
     7     8     6    2
     8    11     9    1
     9     1     5    1
    10     1     2    1
    11     3     2    1
    12     6     5    1
    13     6     7    1
    14     9     7    2
    15     2     4    2
