MODEL 1
REMARK VINA RESULT:      -7.9      0.000      0.000
REMARK SMILES CC(=O)CCc1ccc2c(c1)OCO2
REMARK SMILES IDX 4 1 2 2 1 3 3 4 5 5 6 6 7 7 11 8 8 9 10 10 9 11 12 12 14 13
REMARK SMILES IDX 13 14
REMARK H PARENT
REMARK Flexibility Score: inf
ROOT
ATOM      1  C   UNL     1       5.445   2.894   0.061  1.00  0.00     0.080 C 
ENDROOT
BRANCH   1   2
ATOM      2  C   UNL     1       6.268   3.799   0.911  1.00  0.00     0.130 C 
ATOM      3  C   UNL     1       7.222   4.773   0.319  1.00  0.00     0.087 C 
ATOM      4  O   UNL     1       6.181   3.765   2.128  1.00  0.00    -0.300 OA
ENDBRANCH   1   2
BRANCH   1   5
ATOM      5  C   UNL     1       5.169   1.579   0.763  1.00  0.00     0.043 C 
BRANCH   5   6
ATOM      6  C   UNL     1       6.007   0.489   0.232  1.00  0.00    -0.044 A 
ATOM      7  C   UNL     1       6.316  -0.640   1.000  1.00  0.00     0.008 A 
ATOM      8  C   UNL     1       6.501   0.572  -1.050  1.00  0.00     0.054 A 
ATOM      9  C   UNL     1       7.106  -1.631   0.448  1.00  0.00     0.051 A 
ATOM     10  C   UNL     1       7.300  -0.434  -1.604  1.00  0.00     0.166 A 
ATOM     11  C   UNL     1       7.604  -1.544  -0.848  1.00  0.00     0.165 A 
ATOM     12  O   UNL     1       7.904  -0.584  -2.834  1.00  0.00    -0.454 OA
ATOM     13  O   UNL     1       8.397  -2.362  -1.639  1.00  0.00    -0.454 OA
ATOM     14  C   UNL     1       8.536  -1.834  -2.936  1.00  0.00     0.468 C 
ENDBRANCH   5   6
ENDBRANCH   1   5
TORSDOF 3
ENDMDL
MODEL 2
REMARK VINA RESULT:      -7.8      1.052      2.031
REMARK SMILES CC(=O)CCc1ccc2c(c1)OCO2
REMARK SMILES IDX 4 1 2 2 1 3 3 4 5 5 6 6 7 7 11 8 8 9 10 10 9 11 12 12 14 13
REMARK SMILES IDX 13 14
REMARK H PARENT
REMARK Flexibility Score: inf
ROOT
ATOM      1  C   UNL     1       5.332   3.033   0.219  1.00  0.00     0.080 C 
ENDROOT
BRANCH   1   2
ATOM      2  C   UNL     1       6.346   3.766   1.028  1.00  0.00     0.130 C 
ATOM      3  C   UNL     1       7.259   4.768   0.415  1.00  0.00     0.087 C 
ATOM      4  O   UNL     1       6.457   3.562   2.226  1.00  0.00    -0.300 OA
ENDBRANCH   1   2
BRANCH   1   5
ATOM      5  C   UNL     1       5.015   1.681   0.826  1.00  0.00     0.043 C 
BRANCH   5   6
ATOM      6  C   UNL     1       5.891   0.623   0.293  1.00  0.00    -0.044 A 
ATOM      7  C   UNL     1       6.341   0.643  -1.033  1.00  0.00     0.008 A 
ATOM      8  C   UNL     1       6.285  -0.413   1.109  1.00  0.00     0.054 A 
ATOM      9  C   UNL     1       7.162  -0.376  -1.478  1.00  0.00     0.051 A 
ATOM     10  C   UNL     1       7.116  -1.441   0.654  1.00  0.00     0.166 A 
ATOM     11  C   UNL     1       7.558  -1.423  -0.650  1.00  0.00     0.165 A 
ATOM     12  O   UNL     1       7.639  -2.564   1.259  1.00  0.00    -0.454 OA
ATOM     13  O   UNL     1       8.352  -2.546  -0.820  1.00  0.00    -0.454 OA
ATOM     14  C   UNL     1       8.505  -3.248   0.390  1.00  0.00     0.468 C 
ENDBRANCH   5   6
ENDBRANCH   1   5
TORSDOF 3
ENDMDL
MODEL 3
REMARK VINA RESULT:      -7.7      1.883      2.629
REMARK SMILES CC(=O)CCc1ccc2c(c1)OCO2
REMARK SMILES IDX 4 1 2 2 1 3 3 4 5 5 6 6 7 7 11 8 8 9 10 10 9 11 12 12 14 13
REMARK SMILES IDX 13 14
REMARK H PARENT
REMARK Flexibility Score: inf
ROOT
ATOM      1  C   UNL     1       5.557   1.904   1.286  1.00  0.00     0.080 C 
ENDROOT
BRANCH   1   2
ATOM      2  C   UNL     1       5.117   0.683   2.017  1.00  0.00     0.130 C 
ATOM      3  C   UNL     1       6.013  -0.492   2.186  1.00  0.00     0.087 C 
ATOM      4  O   UNL     1       3.998   0.611   2.500  1.00  0.00    -0.300 OA
ENDBRANCH   1   2
BRANCH   1   5
ATOM      5  C   UNL     1       5.420   1.728  -0.213  1.00  0.00     0.043 C 
BRANCH   5   6
ATOM      6  C   UNL     1       6.582   1.028  -0.790  1.00  0.00    -0.044 A 
ATOM      7  C   UNL     1       7.891   1.465  -0.556  1.00  0.00     0.008 A 
ATOM      8  C   UNL     1       6.387  -0.085  -1.576  1.00  0.00     0.054 A 
ATOM      9  C   UNL     1       8.943   0.768  -1.123  1.00  0.00     0.051 A 
ATOM     10  C   UNL     1       7.454  -0.787  -2.146  1.00  0.00     0.166 A 
ATOM     11  C   UNL     1       8.742  -0.357  -1.918  1.00  0.00     0.165 A 
ATOM     12  O   UNL     1       7.520  -1.903  -2.952  1.00  0.00    -0.454 OA
ATOM     13  O   UNL     1       9.581  -1.228  -2.594  1.00  0.00    -0.454 OA
ATOM     14  C   UNL     1       8.853  -2.276  -3.189  1.00  0.00     0.468 C 
ENDBRANCH   5   6
ENDBRANCH   1   5
TORSDOF 3
ENDMDL
