@<TRIPOS>MOLECULE
/home/cewinharhar/GITHUB/reincatalyze/data/processed/docking_pred/2023-May-22-1531_sub9_nm5_bs15_s42_ex16_mel10_mts1000_k50_ec02_g099_lra9e-4_lrc1e-3/ab955c776f37f5544fae82246801d9a2769dfb79_ligand_9.pdbqt
 14 15 0 0 0
SMALL
GASTEIGER

@<TRIPOS>ATOM
      1  C          5.3320    3.0330    0.2190 C.3     1  UNL1        0.0800
      2  C          6.3460    3.7660    1.0280 C.2     1  UNL1        0.1300
      3  C          7.2590    4.7680    0.4150 C.3     1  UNL1        0.0870
      4  O          6.4570    3.5620    2.2260 O.2     1  UNL1       -0.3000
      5  C          5.0150    1.6810    0.8260 C.3     1  UNL1        0.0430
      6  C          5.8910    0.6230    0.2930 C.2     1  UNL1       -0.0440
      7  C          6.3410    0.6430   -1.0330 C.2     1  UNL1        0.0080
      8  C          6.2850   -0.4130    1.1090 C.2     1  UNL1        0.0540
      9  C          7.1620   -0.3760   -1.4780 C.2     1  UNL1        0.0510
     10  C          7.1160   -1.4410    0.6540 C.2     1  UNL1        0.1660
     11  C          7.5580   -1.4230   -0.6500 C.2     1  UNL1        0.1650
     12  O          7.6390   -2.5640    1.2590 O.2     1  UNL1       -0.4540
     13  O          8.3520   -2.5460   -0.8200 O.2     1  UNL1       -0.4540
     14  C          8.5050   -3.2480    0.3900 C.3     1  UNL1        0.4680
@<TRIPOS>BOND
     1     9     7    1
     2     9    11    2
     3     7     6    2
     4    13    11    1
     5    13    14    1
     6    11    10    1
     7     1     5    1
     8     1     2    1
     9     6     5    1
    10     6     8    1
    11    14    12    1
    12     3     2    1
    13    10     8    2
    14    10    12    1
    15     2     4    2
