@<TRIPOS>MOLECULE
/home/cewinharhar/GITHUB/reincatalyze/data/processed/docking_pred/2023-May-22-1531_sub9_nm5_bs15_s42_ex16_mel10_mts1000_k50_ec02_g099_lra9e-4_lrc1e-3/ab955c776f37f5544fae82246801d9a2769dfb79_ligand_9.pdbqt
 14 15 0 0 0
SMALL
GASTEIGER

@<TRIPOS>ATOM
      1  C          5.5570    1.9040    1.2860 C.3     1  UNL1        0.0800
      2  C          5.1170    0.6830    2.0170 C.2     1  UNL1        0.1300
      3  C          6.0130   -0.4920    2.1860 C.3     1  UNL1        0.0870
      4  O          3.9980    0.6110    2.5000 O.2     1  UNL1       -0.3000
      5  C          5.4200    1.7280   -0.2130 C.3     1  UNL1        0.0430
      6  C          6.5820    1.0280   -0.7900 C.2     1  UNL1       -0.0440
      7  C          7.8910    1.4650   -0.5560 C.2     1  UNL1        0.0080
      8  C          6.3870   -0.0850   -1.5760 C.2     1  UNL1        0.0540
      9  C          8.9430    0.7680   -1.1230 C.2     1  UNL1        0.0510
     10  C          7.4540   -0.7870   -2.1460 C.2     1  UNL1        0.1660
     11  C          8.7420   -0.3570   -1.9180 C.2     1  UNL1        0.1650
     12  O          7.5200   -1.9030   -2.9520 O.2     1  UNL1       -0.4540
     13  O          9.5810   -1.2280   -2.5940 O.2     1  UNL1       -0.4540
     14  C          8.8530   -2.2760   -3.1890 C.3     1  UNL1        0.4680
@<TRIPOS>BOND
     1    14    12    1
     2    14    13    1
     3    12    10    1
     4    13    11    1
     5    10    11    2
     6    10     8    1
     7    11     9    1
     8     8     6    2
     9     9     7    2
    10     6     7    1
    11     6     5    1
    12     5     1    1
    13     1     2    1
    14     2     3    1
    15     2     4    2
