@<TRIPOS>MOLECULE
/home/cewinharhar/GITHUB/reincatalyze/data/processed/docking_pred/2023-May-22-1531_sub9_nm5_bs15_s42_ex16_mel10_mts1000_k50_ec02_g099_lra9e-4_lrc1e-3/ab955c776f37f5544fae82246801d9a2769dfb79_ligand_9.pdbqt
 14 15 0 0 0
SMALL
GASTEIGER

@<TRIPOS>ATOM
      1  C          5.4450    2.8940    0.0610 C.3     1  UNL1        0.0800
      2  C          6.2680    3.7990    0.9110 C.2     1  UNL1        0.1300
      3  C          7.2220    4.7730    0.3190 C.3     1  UNL1        0.0870
      4  O          6.1810    3.7650    2.1280 O.2     1  UNL1       -0.3000
      5  C          5.1690    1.5790    0.7630 C.3     1  UNL1        0.0430
      6  C          6.0070    0.4890    0.2320 C.2     1  UNL1       -0.0440
      7  C          6.3160   -0.6400    1.0000 C.2     1  UNL1        0.0080
      8  C          6.5010    0.5720   -1.0500 C.2     1  UNL1        0.0540
      9  C          7.1060   -1.6310    0.4480 C.2     1  UNL1        0.0510
     10  C          7.3000   -0.4340   -1.6040 C.2     1  UNL1        0.1660
     11  C          7.6040   -1.5440   -0.8480 C.2     1  UNL1        0.1650
     12  O          7.9040   -0.5840   -2.8340 O.2     1  UNL1       -0.4540
     13  O          8.3970   -2.3620   -1.6390 O.2     1  UNL1       -0.4540
     14  C          8.5360   -1.8340   -2.9360 C.3     1  UNL1        0.4680
@<TRIPOS>BOND
     1    14    12    1
     2    14    13    1
     3    12    10    1
     4    13    11    1
     5    10     8    1
     6    10    11    2
     7     8     6    2
     8    11     9    1
     9     1     5    1
    10     1     2    1
    11     6     5    1
    12     6     7    1
    13     3     2    1
    14     9     7    2
    15     2     4    2
