@<TRIPOS>MOLECULE
/home/cewinharhar/GITHUB/reincatalyze/data/processed/docking_pred/2023-May-22-1531_sub9_nm5_bs15_s42_ex16_mel10_mts1000_k50_ec02_g099_lra9e-4_lrc1e-3/ada201db5b439d74c350b173ce56903753062bb1_ligand_9.pdbqt
 14 15 0 0 0
SMALL
GASTEIGER

@<TRIPOS>ATOM
      1  C          5.3920    3.0210    0.1450 C.3     1  UNL1        0.0800
      2  C          6.3250    3.8470    0.9610 C.2     1  UNL1        0.1300
      3  C          7.3020    4.7740    0.3300 C.3     1  UNL1        0.0870
      4  O          6.3140    3.7850    2.1790 O.2     1  UNL1       -0.3000
      5  C          5.1190    1.6840    0.8050 C.3     1  UNL1        0.0430
      6  C          5.9670    0.6160    0.2460 C.2     1  UNL1       -0.0440
      7  C          6.3830    0.6340   -1.0910 C.2     1  UNL1        0.0080
      8  C          6.3670   -0.4280    1.0480 C.2     1  UNL1        0.0540
      9  C          7.1790   -0.3950   -1.5600 C.2     1  UNL1        0.0510
     10  C          7.1720   -1.4660    0.5690 C.2     1  UNL1        0.1660
     11  C          7.5810   -1.4490   -0.7460 C.2     1  UNL1        0.1650
     12  O          7.6950   -2.5980    1.1570 O.2     1  UNL1       -0.4540
     13  O          8.3550   -2.5830   -0.9390 O.2     1  UNL1       -0.4540
     14  C          8.5280   -3.2920    0.2640 C.3     1  UNL1        0.4680
@<TRIPOS>BOND
     1     9     7    1
     2     9    11    2
     3     7     6    2
     4    13    11    1
     5    13    14    1
     6    11    10    1
     7     1     5    1
     8     1     2    1
     9     6     5    1
    10     6     8    1
    11    14    12    1
    12     3     2    1
    13    10     8    2
    14    10    12    1
    15     2     4    2
