MODEL 1
REMARK VINA RESULT:      -7.8      0.000      0.000
REMARK SMILES CC(=O)CCc1ccc2c(c1)OCO2
REMARK SMILES IDX 4 1 2 2 1 3 3 4 5 5 6 6 7 7 11 8 8 9 10 10 9 11 12 12 14 13
REMARK SMILES IDX 13 14
REMARK H PARENT
REMARK Flexibility Score: inf
ROOT
ATOM      1  C   UNL     1       5.392   3.021   0.145  1.00  0.00     0.080 C 
ENDROOT
BRANCH   1   2
ATOM      2  C   UNL     1       6.325   3.847   0.961  1.00  0.00     0.130 C 
ATOM      3  C   UNL     1       7.302   4.774   0.330  1.00  0.00     0.087 C 
ATOM      4  O   UNL     1       6.314   3.785   2.179  1.00  0.00    -0.300 OA
ENDBRANCH   1   2
BRANCH   1   5
ATOM      5  C   UNL     1       5.119   1.684   0.805  1.00  0.00     0.043 C 
BRANCH   5   6
ATOM      6  C   UNL     1       5.967   0.616   0.246  1.00  0.00    -0.044 A 
ATOM      7  C   UNL     1       6.383   0.634  -1.091  1.00  0.00     0.008 A 
ATOM      8  C   UNL     1       6.367  -0.428   1.048  1.00  0.00     0.054 A 
ATOM      9  C   UNL     1       7.179  -0.395  -1.560  1.00  0.00     0.051 A 
ATOM     10  C   UNL     1       7.172  -1.466   0.569  1.00  0.00     0.166 A 
ATOM     11  C   UNL     1       7.581  -1.449  -0.746  1.00  0.00     0.165 A 
ATOM     12  O   UNL     1       7.695  -2.598   1.157  1.00  0.00    -0.454 OA
ATOM     13  O   UNL     1       8.355  -2.583  -0.939  1.00  0.00    -0.454 OA
ATOM     14  C   UNL     1       8.528  -3.292   0.264  1.00  0.00     0.468 C 
ENDBRANCH   5   6
ENDBRANCH   1   5
TORSDOF 3
ENDMDL
MODEL 2
REMARK VINA RESULT:      -7.8      0.994      1.980
REMARK SMILES CC(=O)CCc1ccc2c(c1)OCO2
REMARK SMILES IDX 4 1 2 2 1 3 3 4 5 5 6 6 7 7 11 8 8 9 10 10 9 11 12 12 14 13
REMARK SMILES IDX 13 14
REMARK H PARENT
REMARK Flexibility Score: inf
ROOT
ATOM      1  C   UNL     1       5.516   2.897   0.186  1.00  0.00     0.080 C 
ENDROOT
BRANCH   1   2
ATOM      2  C   UNL     1       6.309   3.866   0.993  1.00  0.00     0.130 C 
ATOM      3  C   UNL     1       7.305   4.774   0.364  1.00  0.00     0.087 C 
ATOM      4  O   UNL     1       6.163   3.942   2.202  1.00  0.00    -0.300 OA
ENDBRANCH   1   2
BRANCH   1   5
ATOM      5  C   UNL     1       5.291   1.603   0.944  1.00  0.00     0.043 C 
BRANCH   5   6
ATOM      6  C   UNL     1       6.079   0.494   0.377  1.00  0.00    -0.044 A 
ATOM      7  C   UNL     1       6.403  -0.637   1.134  1.00  0.00     0.008 A 
ATOM      8  C   UNL     1       6.508   0.561  -0.929  1.00  0.00     0.054 A 
ATOM      9  C   UNL     1       7.144  -1.647   0.548  1.00  0.00     0.051 A 
ATOM     10  C   UNL     1       7.256  -0.464  -1.517  1.00  0.00     0.166 A 
ATOM     11  C   UNL     1       7.577  -1.576  -0.772  1.00  0.00     0.165 A 
ATOM     12  O   UNL     1       7.793  -0.631  -2.776  1.00  0.00    -0.454 OA
ATOM     13  O   UNL     1       8.311  -2.414  -1.598  1.00  0.00    -0.454 OA
ATOM     14  C   UNL     1       8.395  -1.894  -2.903  1.00  0.00     0.468 C 
ENDBRANCH   5   6
ENDBRANCH   1   5
TORSDOF 3
ENDMDL
MODEL 3
REMARK VINA RESULT:      -7.7      2.411      3.039
REMARK SMILES CC(=O)CCc1ccc2c(c1)OCO2
REMARK SMILES IDX 4 1 2 2 1 3 3 4 5 5 6 6 7 7 11 8 8 9 10 10 9 11 12 12 14 13
REMARK SMILES IDX 13 14
REMARK H PARENT
REMARK Flexibility Score: inf
ROOT
ATOM      1  C   UNL     1       5.539   1.907   1.282  1.00  0.00     0.080 C 
ENDROOT
BRANCH   1   2
ATOM      2  C   UNL     1       5.115   0.683   2.018  1.00  0.00     0.130 C 
ATOM      3  C   UNL     1       6.023  -0.483   2.182  1.00  0.00     0.087 C 
ATOM      4  O   UNL     1       4.001   0.602   2.510  1.00  0.00    -0.300 OA
ENDBRANCH   1   2
BRANCH   1   5
ATOM      5  C   UNL     1       5.409   1.720  -0.217  1.00  0.00     0.043 C 
BRANCH   5   6
ATOM      6  C   UNL     1       6.574   1.019  -0.784  1.00  0.00    -0.044 A 
ATOM      7  C   UNL     1       7.882   1.447  -0.528  1.00  0.00     0.008 A 
ATOM      8  C   UNL     1       6.384  -0.085  -1.583  1.00  0.00     0.054 A 
ATOM      9  C   UNL     1       8.938   0.749  -1.087  1.00  0.00     0.051 A 
ATOM     10  C   UNL     1       7.454  -0.788  -2.145  1.00  0.00     0.166 A 
ATOM     11  C   UNL     1       8.742  -0.367  -1.895  1.00  0.00     0.165 A 
ATOM     12  O   UNL     1       7.526  -1.897  -2.960  1.00  0.00    -0.454 OA
ATOM     13  O   UNL     1       9.585  -1.236  -2.568  1.00  0.00    -0.454 OA
ATOM     14  C   UNL     1       8.860  -2.275  -3.182  1.00  0.00     0.468 C 
ENDBRANCH   5   6
ENDBRANCH   1   5
TORSDOF 3
ENDMDL
