@<TRIPOS>MOLECULE
/home/cewinharhar/GITHUB/reincatalyze/data/processed/docking_pred/2023-May-22-1531_sub9_nm5_bs15_s42_ex16_mel10_mts1000_k50_ec02_g099_lra9e-4_lrc1e-3/ada201db5b439d74c350b173ce56903753062bb1_ligand_9.pdbqt
 14 15 0 0 0
SMALL
GASTEIGER

@<TRIPOS>ATOM
      1  C          5.5160    2.8970    0.1860 C.3     1  UNL1        0.0800
      2  C          6.3090    3.8660    0.9930 C.2     1  UNL1        0.1300
      3  C          7.3050    4.7740    0.3640 C.3     1  UNL1        0.0870
      4  O          6.1630    3.9420    2.2020 O.2     1  UNL1       -0.3000
      5  C          5.2910    1.6030    0.9440 C.3     1  UNL1        0.0430
      6  C          6.0790    0.4940    0.3770 C.2     1  UNL1       -0.0440
      7  C          6.4030   -0.6370    1.1340 C.2     1  UNL1        0.0080
      8  C          6.5080    0.5610   -0.9290 C.2     1  UNL1        0.0540
      9  C          7.1440   -1.6470    0.5480 C.2     1  UNL1        0.0510
     10  C          7.2560   -0.4640   -1.5170 C.2     1  UNL1        0.1660
     11  C          7.5770   -1.5760   -0.7720 C.2     1  UNL1        0.1650
     12  O          7.7930   -0.6310   -2.7760 O.2     1  UNL1       -0.4540
     13  O          8.3110   -2.4140   -1.5980 O.2     1  UNL1       -0.4540
     14  C          8.3950   -1.8940   -2.9030 C.3     1  UNL1        0.4680
@<TRIPOS>BOND
     1    14    12    1
     2    14    13    1
     3    12    10    1
     4    13    11    1
     5    10     8    1
     6    10    11    2
     7     8     6    2
     8    11     9    1
     9     1     5    1
    10     1     2    1
    11     3     2    1
    12     6     5    1
    13     6     7    1
    14     9     7    2
    15     2     4    2
