@<TRIPOS>MOLECULE
/home/cewinharhar/GITHUB/reincatalyze/data/processed/docking_pred/2023-May-22-1531_sub9_nm5_bs15_s42_ex16_mel10_mts1000_k50_ec02_g099_lra9e-4_lrc1e-3/ada201db5b439d74c350b173ce56903753062bb1_ligand_9.pdbqt
 14 15 0 0 0
SMALL
GASTEIGER

@<TRIPOS>ATOM
      1  C          5.5390    1.9070    1.2820 C.3     1  UNL1        0.0800
      2  C          5.1150    0.6830    2.0180 C.2     1  UNL1        0.1300
      3  C          6.0230   -0.4830    2.1820 C.3     1  UNL1        0.0870
      4  O          4.0010    0.6020    2.5100 O.2     1  UNL1       -0.3000
      5  C          5.4090    1.7200   -0.2170 C.3     1  UNL1        0.0430
      6  C          6.5740    1.0190   -0.7840 C.2     1  UNL1       -0.0440
      7  C          7.8820    1.4470   -0.5280 C.2     1  UNL1        0.0080
      8  C          6.3840   -0.0850   -1.5830 C.2     1  UNL1        0.0540
      9  C          8.9380    0.7490   -1.0870 C.2     1  UNL1        0.0510
     10  C          7.4540   -0.7880   -2.1450 C.2     1  UNL1        0.1660
     11  C          8.7420   -0.3670   -1.8950 C.2     1  UNL1        0.1650
     12  O          7.5260   -1.8970   -2.9600 O.2     1  UNL1       -0.4540
     13  O          9.5850   -1.2360   -2.5680 O.2     1  UNL1       -0.4540
     14  C          8.8600   -2.2750   -3.1820 C.3     1  UNL1        0.4680
@<TRIPOS>BOND
     1    14    12    1
     2    14    13    1
     3    12    10    1
     4    13    11    1
     5    10    11    2
     6    10     8    1
     7    11     9    1
     8     8     6    2
     9     9     7    2
    10     6     7    1
    11     6     5    1
    12     5     1    1
    13     1     2    1
    14     2     3    1
    15     2     4    2
