@<TRIPOS>MOLECULE
/home/cewinharhar/GITHUB/reincatalyze/data/processed/docking_pred/2023-May-22-1531_sub9_nm5_bs15_s42_ex16_mel10_mts1000_k50_ec02_g099_lra9e-4_lrc1e-3/ae62664a3c9eef67376bdc077c2faa7ac5a69a78_ligand_9.pdbqt
 14 15 0 0 0
SMALL
GASTEIGER

@<TRIPOS>ATOM
      1  C          5.4090    2.8890    0.0940 C.3     1  UNL1        0.0800
      2  C          6.1840    3.7600    1.0210 C.2     1  UNL1        0.1300
      3  C          7.1480    4.7740    0.5160 C.3     1  UNL1        0.0870
      4  O          6.0500    3.6650    2.2300 O.2     1  UNL1       -0.3000
      5  C          5.1010    1.5470    0.7280 C.3     1  UNL1        0.0430
      6  C          5.9660    0.4790    0.1960 C.2     1  UNL1       -0.0440
      7  C          6.3010   -0.6430    0.9630 C.2     1  UNL1        0.0080
      8  C          6.4600    0.5760   -1.0850 C.2     1  UNL1        0.0540
      9  C          7.1170   -1.6130    0.4100 C.2     1  UNL1        0.0510
     10  C          7.2830   -0.4080   -1.6390 C.2     1  UNL1        0.1660
     11  C          7.6150   -1.5120   -0.8850 C.2     1  UNL1        0.1650
     12  O          7.8920   -0.5410   -2.8690 O.2     1  UNL1       -0.4540
     13  O          8.4280   -2.3080   -1.6770 O.2     1  UNL1       -0.4540
     14  C          8.5560   -1.7740   -2.9730 C.3     1  UNL1        0.4680
@<TRIPOS>BOND
     1    14    12    1
     2    14    13    1
     3    12    10    1
     4    13    11    1
     5    10     8    1
     6    10    11    2
     7     8     6    2
     8    11     9    1
     9     1     5    1
    10     1     2    1
    11     6     5    1
    12     6     7    1
    13     9     7    2
    14     3     2    1
    15     2     4    2
