@<TRIPOS>MOLECULE
/home/cewinharhar/GITHUB/reincatalyze/data/processed/docking_pred/2023-May-22-1531_sub9_nm5_bs15_s42_ex16_mel10_mts1000_k50_ec02_g099_lra9e-4_lrc1e-3/ae62664a3c9eef67376bdc077c2faa7ac5a69a78_ligand_9.pdbqt
 14 15 0 0 0
SMALL
GASTEIGER

@<TRIPOS>ATOM
      1  C          5.3280    2.8820    0.0190 C.3     1  UNL1        0.0800
      2  C          6.2580    3.7730    0.7660 C.2     1  UNL1        0.1300
      3  C          6.5830    3.5380    2.1980 C.3     1  UNL1        0.0870
      4  O          6.7830    4.7300    0.2200 O.2     1  UNL1       -0.3000
      5  C          5.1260    1.5660    0.7440 C.3     1  UNL1        0.0430
      6  C          5.9820    0.5010    0.1920 C.2     1  UNL1       -0.0440
      7  C          6.3820    0.5020   -1.1490 C.2     1  UNL1        0.0080
      8  C          6.4070   -0.5230    1.0070 C.2     1  UNL1        0.0540
      9  C          7.1870   -0.5230   -1.6100 C.2     1  UNL1        0.0510
     10  C          7.2220   -1.5580    0.5360 C.2     1  UNL1        0.1660
     11  C          7.6140   -1.5570   -0.7840 C.2     1  UNL1        0.1650
     12  O          7.7680   -2.6720    1.1370 O.2     1  UNL1       -0.4540
     13  O          8.4030   -2.6830   -0.9670 O.2     1  UNL1       -0.4540
     14  C          8.6010   -3.3680    0.2460 C.3     1  UNL1        0.4680
@<TRIPOS>BOND
     1     9     7    1
     2     9    11    2
     3     7     6    2
     4    13    11    1
     5    13    14    1
     6    11    10    1
     7     1     5    1
     8     1     2    1
     9     6     5    1
    10     6     8    1
    11     4     2    2
    12    14    12    1
    13    10     8    2
    14    10    12    1
    15     2     3    1
