@<TRIPOS>MOLECULE
/home/cewinharhar/GITHUB/reincatalyze/data/processed/docking_pred/2023-May-22-1531_sub9_nm5_bs15_s42_ex16_mel10_mts1000_k50_ec02_g099_lra9e-4_lrc1e-3/ae62664a3c9eef67376bdc077c2faa7ac5a69a78_ligand_9.pdbqt
 14 15 0 0 0
SMALL
GASTEIGER

@<TRIPOS>ATOM
      1  C          5.4690    2.2270    1.2340 C.3     1  UNL1        0.0800
      2  C          4.7980    1.1580    2.0250 C.2     1  UNL1        0.1300
      3  C          5.3740   -0.2080    2.1390 C.3     1  UNL1        0.0870
      4  O          3.7470    1.3750    2.6060 O.2     1  UNL1       -0.3000
      5  C          5.3460    1.9690   -0.2550 C.3     1  UNL1        0.0430
      6  C          6.5010    1.2190   -0.7770 C.2     1  UNL1       -0.0440
      7  C          7.8160    1.5910   -0.4720 C.2     1  UNL1        0.0080
      8  C          6.2950    0.1230   -1.5840 C.2     1  UNL1        0.0540
      9  C          8.8610    0.8490   -0.9900 C.2     1  UNL1        0.0510
     10  C          7.3550   -0.6240   -2.1050 C.2     1  UNL1        0.1660
     11  C          8.6490   -0.2580   -1.8060 C.2     1  UNL1        0.1650
     12  O          7.4110   -1.7360   -2.9190 O.2     1  UNL1       -0.4540
     13  O          9.4800   -1.1630   -2.4480 O.2     1  UNL1       -0.4540
     14  C          8.7350   -2.1700   -3.0900 C.3     1  UNL1        0.4680
@<TRIPOS>BOND
     1    14    12    1
     2    14    13    1
     3    12    10    1
     4    13    11    1
     5    10    11    2
     6    10     8    1
     7    11     9    1
     8     8     6    2
     9     9     7    2
    10     6     7    1
    11     6     5    1
    12     5     1    1
    13     1     2    1
    14     2     3    1
    15     2     4    2
