MODEL 1
REMARK VINA RESULT:      -7.8      0.000      0.000
REMARK SMILES CC(=O)CCc1ccc2c(c1)OCO2
REMARK SMILES IDX 4 1 2 2 1 3 3 4 5 5 6 6 7 7 11 8 8 9 10 10 9 11 12 12 14 13
REMARK SMILES IDX 13 14
REMARK H PARENT
REMARK Flexibility Score: inf
ROOT
ATOM      1  C   UNL     1       5.385   2.923   0.196  1.00  0.00     0.080 C 
ENDROOT
BRANCH   1   2
ATOM      2  C   UNL     1       6.379   3.664   1.022  1.00  0.00     0.130 C 
ATOM      3  C   UNL     1       7.196   4.770   0.454  1.00  0.00     0.087 C 
ATOM      4  O   UNL     1       6.552   3.382   2.196  1.00  0.00    -0.300 OA
ENDBRANCH   1   2
BRANCH   1   5
ATOM      5  C   UNL     1       5.075   1.566   0.794  1.00  0.00     0.043 C 
BRANCH   5   6
ATOM      6  C   UNL     1       5.950   0.514   0.246  1.00  0.00    -0.044 A 
ATOM      7  C   UNL     1       6.367   0.531  -1.090  1.00  0.00     0.008 A 
ATOM      8  C   UNL     1       6.375  -0.512   1.058  1.00  0.00     0.054 A 
ATOM      9  C   UNL     1       7.189  -0.483  -1.549  1.00  0.00     0.051 A 
ATOM     10  C   UNL     1       7.207  -1.534   0.590  1.00  0.00     0.166 A 
ATOM     11  C   UNL     1       7.616  -1.519  -0.725  1.00  0.00     0.165 A 
ATOM     12  O   UNL     1       7.757  -2.647   1.189  1.00  0.00    -0.454 OA
ATOM     13  O   UNL     1       8.419  -2.634  -0.907  1.00  0.00    -0.454 OA
ATOM     14  C   UNL     1       8.608  -3.327   0.303  1.00  0.00     0.468 C 
ENDBRANCH   5   6
ENDBRANCH   1   5
TORSDOF 3
ENDMDL
MODEL 2
REMARK VINA RESULT:      -7.8      1.006      2.005
REMARK SMILES CC(=O)CCc1ccc2c(c1)OCO2
REMARK SMILES IDX 4 1 2 2 1 3 3 4 5 5 6 6 7 7 11 8 8 9 10 10 9 11 12 12 14 13
REMARK SMILES IDX 13 14
REMARK H PARENT
REMARK Flexibility Score: inf
ROOT
ATOM      1  C   UNL     1       5.477   2.878   0.307  1.00  0.00     0.080 C 
ENDROOT
BRANCH   1   2
ATOM      2  C   UNL     1       6.398   3.742   1.096  1.00  0.00     0.130 C 
ATOM      3  C   UNL     1       7.249   4.775   0.446  1.00  0.00     0.087 C 
ATOM      4  O   UNL     1       6.483   3.626   2.308  1.00  0.00    -0.300 OA
ENDBRANCH   1   2
BRANCH   1   5
ATOM      5  C   UNL     1       5.242   1.549   0.998  1.00  0.00     0.043 C 
BRANCH   5   6
ATOM      6  C   UNL     1       6.069   0.477   0.416  1.00  0.00    -0.044 A 
ATOM      7  C   UNL     1       6.480  -0.625   1.174  1.00  0.00     0.008 A 
ATOM      8  C   UNL     1       6.449   0.550  -0.905  1.00  0.00     0.054 A 
ATOM      9  C   UNL     1       7.254  -1.601   0.573  1.00  0.00     0.051 A 
ATOM     10  C   UNL     1       7.232  -0.440  -1.508  1.00  0.00     0.166 A 
ATOM     11  C   UNL     1       7.638  -1.524  -0.762  1.00  0.00     0.165 A 
ATOM     12  O   UNL     1       7.734  -0.594  -2.782  1.00  0.00    -0.454 OA
ATOM     13  O   UNL     1       8.388  -2.331  -1.604  1.00  0.00    -0.454 OA
ATOM     14  C   UNL     1       8.398  -1.824  -2.917  1.00  0.00     0.468 C 
ENDBRANCH   5   6
ENDBRANCH   1   5
TORSDOF 3
ENDMDL
MODEL 3
REMARK VINA RESULT:      -7.7      2.390      3.013
REMARK SMILES CC(=O)CCc1ccc2c(c1)OCO2
REMARK SMILES IDX 4 1 2 2 1 3 3 4 5 5 6 6 7 7 11 8 8 9 10 10 9 11 12 12 14 13
REMARK SMILES IDX 13 14
REMARK H PARENT
REMARK Flexibility Score: inf
ROOT
ATOM      1  C   UNL     1       5.542   1.917   1.269  1.00  0.00     0.080 C 
ENDROOT
BRANCH   1   2
ATOM      2  C   UNL     1       5.107   0.698   2.006  1.00  0.00     0.130 C 
ATOM      3  C   UNL     1       6.011  -0.470   2.184  1.00  0.00     0.087 C 
ATOM      4  O   UNL     1       3.989   0.622   2.488  1.00  0.00    -0.300 OA
ENDBRANCH   1   2
BRANCH   1   5
ATOM      5  C   UNL     1       5.414   1.729  -0.230  1.00  0.00     0.043 C 
BRANCH   5   6
ATOM      6  C   UNL     1       6.578   1.023  -0.793  1.00  0.00    -0.044 A 
ATOM      7  C   UNL     1       7.887   1.451  -0.542  1.00  0.00     0.008 A 
ATOM      8  C   UNL     1       6.386  -0.086  -1.585  1.00  0.00     0.054 A 
ATOM      9  C   UNL     1       8.941   0.748  -1.097  1.00  0.00     0.051 A 
ATOM     10  C   UNL     1       7.454  -0.794  -2.144  1.00  0.00     0.166 A 
ATOM     11  C   UNL     1       8.742  -0.373  -1.898  1.00  0.00     0.165 A 
ATOM     12  O   UNL     1       7.523  -1.908  -2.952  1.00  0.00    -0.454 OA
ATOM     13  O   UNL     1       9.584  -1.248  -2.567  1.00  0.00    -0.454 OA
ATOM     14  C   UNL     1       8.857  -2.289  -3.173  1.00  0.00     0.468 C 
ENDBRANCH   5   6
ENDBRANCH   1   5
TORSDOF 3
ENDMDL
