@<TRIPOS>MOLECULE
/home/cewinharhar/GITHUB/reincatalyze/data/processed/docking_pred/2023-May-22-1531_sub9_nm5_bs15_s42_ex16_mel10_mts1000_k50_ec02_g099_lra9e-4_lrc1e-3/af895cae38f50b8ad608cacdd29f7ae1ddca485c_ligand_9.pdbqt
 14 15 0 0 0
SMALL
GASTEIGER

@<TRIPOS>ATOM
      1  C          5.3850    2.9230    0.1960 C.3     1  UNL1        0.0800
      2  C          6.3790    3.6640    1.0220 C.2     1  UNL1        0.1300
      3  C          7.1960    4.7700    0.4540 C.3     1  UNL1        0.0870
      4  O          6.5520    3.3820    2.1960 O.2     1  UNL1       -0.3000
      5  C          5.0750    1.5660    0.7940 C.3     1  UNL1        0.0430
      6  C          5.9500    0.5140    0.2460 C.2     1  UNL1       -0.0440
      7  C          6.3670    0.5310   -1.0900 C.2     1  UNL1        0.0080
      8  C          6.3750   -0.5120    1.0580 C.2     1  UNL1        0.0540
      9  C          7.1890   -0.4830   -1.5490 C.2     1  UNL1        0.0510
     10  C          7.2070   -1.5340    0.5900 C.2     1  UNL1        0.1660
     11  C          7.6160   -1.5190   -0.7250 C.2     1  UNL1        0.1650
     12  O          7.7570   -2.6470    1.1890 O.2     1  UNL1       -0.4540
     13  O          8.4190   -2.6340   -0.9070 O.2     1  UNL1       -0.4540
     14  C          8.6080   -3.3270    0.3030 C.3     1  UNL1        0.4680
@<TRIPOS>BOND
     1     9     7    1
     2     9    11    2
     3     7     6    2
     4    13    11    1
     5    13    14    1
     6    11    10    1
     7     1     5    1
     8     1     2    1
     9     6     5    1
    10     6     8    1
    11    14    12    1
    12     3     2    1
    13    10     8    2
    14    10    12    1
    15     2     4    2
