@<TRIPOS>MOLECULE
/home/cewinharhar/GITHUB/reincatalyze/data/processed/docking_pred/2023-May-22-1531_sub9_nm5_bs15_s42_ex16_mel10_mts1000_k50_ec02_g099_lra9e-4_lrc1e-3/af895cae38f50b8ad608cacdd29f7ae1ddca485c_ligand_9.pdbqt
 14 15 0 0 0
SMALL
GASTEIGER

@<TRIPOS>ATOM
      1  C          5.4770    2.8780    0.3070 C.3     1  UNL1        0.0800
      2  C          6.3980    3.7420    1.0960 C.2     1  UNL1        0.1300
      3  C          7.2490    4.7750    0.4460 C.3     1  UNL1        0.0870
      4  O          6.4830    3.6260    2.3080 O.2     1  UNL1       -0.3000
      5  C          5.2420    1.5490    0.9980 C.3     1  UNL1        0.0430
      6  C          6.0690    0.4770    0.4160 C.2     1  UNL1       -0.0440
      7  C          6.4800   -0.6250    1.1740 C.2     1  UNL1        0.0080
      8  C          6.4490    0.5500   -0.9050 C.2     1  UNL1        0.0540
      9  C          7.2540   -1.6010    0.5730 C.2     1  UNL1        0.0510
     10  C          7.2320   -0.4400   -1.5080 C.2     1  UNL1        0.1660
     11  C          7.6380   -1.5240   -0.7620 C.2     1  UNL1        0.1650
     12  O          7.7340   -0.5940   -2.7820 O.2     1  UNL1       -0.4540
     13  O          8.3880   -2.3310   -1.6040 O.2     1  UNL1       -0.4540
     14  C          8.3980   -1.8240   -2.9170 C.3     1  UNL1        0.4680
@<TRIPOS>BOND
     1    14    12    1
     2    14    13    1
     3    12    10    1
     4    13    11    1
     5    10     8    1
     6    10    11    2
     7     8     6    2
     8    11     9    1
     9     1     5    1
    10     1     2    1
    11     6     5    1
    12     6     7    1
    13     3     2    1
    14     9     7    2
    15     2     4    2
