@<TRIPOS>MOLECULE
/home/cewinharhar/GITHUB/reincatalyze/data/processed/docking_pred/2023-May-22-1531_sub9_nm5_bs15_s42_ex16_mel10_mts1000_k50_ec02_g099_lra9e-4_lrc1e-3/af9628f04dddfdfce7c60ac864c84e5664a7a69f_ligand_9.pdbqt
 14 15 0 0 0
SMALL
GASTEIGER

@<TRIPOS>ATOM
      1  C          5.5250    2.8470    0.1110 C.3     1  UNL1        0.0800
      2  C          6.2990    3.8020    0.9520 C.2     1  UNL1        0.1300
      3  C          7.2520    4.7750    0.3540 C.3     1  UNL1        0.0870
      4  O          6.1720    3.8120    2.1660 O.2     1  UNL1       -0.3000
      5  C          5.2620    1.5500    0.8500 C.3     1  UNL1        0.0430
      6  C          6.0850    0.4460    0.3250 C.2     1  UNL1       -0.0440
      7  C          6.4770   -0.6260    1.1360 C.2     1  UNL1        0.0080
      8  C          6.4830    0.4570   -0.9930 C.2     1  UNL1        0.0540
      9  C          7.2490   -1.6350    0.5880 C.2     1  UNL1        0.0510
     10  C          7.2620   -0.5650   -1.5420 C.2     1  UNL1        0.1660
     11  C          7.6490   -1.6200   -0.7450 C.2     1  UNL1        0.1650
     12  O          7.7780   -0.7800   -2.8020 O.2     1  UNL1       -0.4540
     13  O          8.4010   -2.4690   -1.5410 O.2     1  UNL1       -0.4540
     14  C          8.4320   -2.0210   -2.8750 C.3     1  UNL1        0.4680
@<TRIPOS>BOND
     1    14    12    1
     2    14    13    1
     3    12    10    1
     4    10     8    1
     5    10    11    2
     6    13    11    1
     7     8     6    2
     8    11     9    1
     9     1     5    1
    10     1     2    1
    11     6     5    1
    12     6     7    1
    13     3     2    1
    14     9     7    2
    15     2     4    2
