@<TRIPOS>MOLECULE
/home/cewinharhar/GITHUB/reincatalyze/data/processed/docking_pred/2023-May-22-1531_sub9_nm5_bs15_s42_ex16_mel10_mts1000_k50_ec02_g099_lra9e-4_lrc1e-3/af9628f04dddfdfce7c60ac864c84e5664a7a69f_ligand_9.pdbqt
 14 15 0 0 0
SMALL
GASTEIGER

@<TRIPOS>ATOM
      1  C          5.5420    1.9060    1.2790 C.3     1  UNL1        0.0800
      2  C          5.1060    0.6840    2.0090 C.2     1  UNL1        0.1300
      3  C          6.0080   -0.4870    2.1800 C.3     1  UNL1        0.0870
      4  O          3.9880    0.6070    2.4920 O.2     1  UNL1       -0.3000
      5  C          5.4140    1.7260   -0.2210 C.3     1  UNL1        0.0430
      6  C          6.5780    1.0240   -0.7890 C.2     1  UNL1       -0.0440
      7  C          7.8870    1.4540   -0.5400 C.2     1  UNL1        0.0080
      8  C          6.3860   -0.0850   -1.5810 C.2     1  UNL1        0.0540
      9  C          8.9410    0.7540   -1.0990 C.2     1  UNL1        0.0510
     10  C          7.4550   -0.7890   -2.1440 C.2     1  UNL1        0.1660
     11  C          8.7430   -0.3660   -1.9010 C.2     1  UNL1        0.1650
     12  O          7.5250   -1.9030   -2.9540 O.2     1  UNL1       -0.4540
     13  O          9.5850   -1.2380   -2.5730 O.2     1  UNL1       -0.4540
     14  C          8.8590   -2.2800   -3.1790 C.3     1  UNL1        0.4680
@<TRIPOS>BOND
     1    14    12    1
     2    14    13    1
     3    12    10    1
     4    13    11    1
     5    10    11    2
     6    10     8    1
     7    11     9    1
     8     8     6    2
     9     9     7    2
    10     6     7    1
    11     6     5    1
    12     5     1    1
    13     1     2    1
    14     2     3    1
    15     2     4    2
