@<TRIPOS>MOLECULE
/home/cewinharhar/GITHUB/reincatalyze/data/processed/docking_pred/2023-May-22-1531_sub9_nm5_bs15_s42_ex16_mel10_mts1000_k50_ec02_g099_lra9e-4_lrc1e-3/af9628f04dddfdfce7c60ac864c84e5664a7a69f_ligand_9.pdbqt
 14 15 0 0 0
SMALL
GASTEIGER

@<TRIPOS>ATOM
      1  C          5.4040    2.9540    0.1860 C.3     1  UNL1        0.0800
      2  C          6.2700    3.8560    0.9960 C.2     1  UNL1        0.1300
      3  C          7.2520    4.7740    0.3600 C.3     1  UNL1        0.0870
      4  O          6.1970    3.8660    2.2140 O.2     1  UNL1       -0.3000
      5  C          5.1930    1.6230    0.8810 C.3     1  UNL1        0.0430
      6  C          6.0170    0.5580    0.2820 C.2     1  UNL1       -0.0440
      7  C          6.3700    0.5780   -1.0720 C.2     1  UNL1        0.0080
      8  C          6.4580   -0.4840    1.0650 C.2     1  UNL1        0.0540
      9  C          7.1460   -0.4490   -1.5780 C.2     1  UNL1        0.0510
     10  C          7.2440   -1.5190    0.5490 C.2     1  UNL1        0.1660
     11  C          7.5900   -1.5020   -0.7840 C.2     1  UNL1        0.1650
     12  O          7.7980   -2.6490    1.1120 O.2     1  UNL1       -0.4540
     13  O          8.3580   -2.6320   -1.0130 O.2     1  UNL1       -0.4540
     14  C          8.5900   -3.3400    0.1810 C.3     1  UNL1        0.4680
@<TRIPOS>BOND
     1     9     7    1
     2     9    11    2
     3     7     6    2
     4    13    11    1
     5    13    14    1
     6    11    10    1
     7    14    12    1
     8     1     5    1
     9     1     2    1
    10     6     5    1
    11     6     8    1
    12     3     2    1
    13    10     8    2
    14    10    12    1
    15     2     4    2
