MODEL 1
REMARK VINA RESULT:      -7.9      0.000      0.000
REMARK SMILES CC(=O)CCc1ccc2c(c1)OCO2
REMARK SMILES IDX 4 1 2 2 1 3 3 4 5 5 6 6 7 7 11 8 8 9 10 10 9 11 12 12 14 13
REMARK SMILES IDX 13 14
REMARK H PARENT
REMARK Flexibility Score: inf
ROOT
ATOM      1  C   UNL     1       5.525   2.847   0.111  1.00  0.00     0.080 C 
ENDROOT
BRANCH   1   2
ATOM      2  C   UNL     1       6.299   3.802   0.952  1.00  0.00     0.130 C 
ATOM      3  C   UNL     1       7.252   4.775   0.354  1.00  0.00     0.087 C 
ATOM      4  O   UNL     1       6.172   3.812   2.166  1.00  0.00    -0.300 OA
ENDBRANCH   1   2
BRANCH   1   5
ATOM      5  C   UNL     1       5.262   1.550   0.850  1.00  0.00     0.043 C 
BRANCH   5   6
ATOM      6  C   UNL     1       6.085   0.446   0.325  1.00  0.00    -0.044 A 
ATOM      7  C   UNL     1       6.477  -0.626   1.136  1.00  0.00     0.008 A 
ATOM      8  C   UNL     1       6.483   0.457  -0.993  1.00  0.00     0.054 A 
ATOM      9  C   UNL     1       7.249  -1.635   0.588  1.00  0.00     0.051 A 
ATOM     10  C   UNL     1       7.262  -0.565  -1.542  1.00  0.00     0.166 A 
ATOM     11  C   UNL     1       7.649  -1.620  -0.745  1.00  0.00     0.165 A 
ATOM     12  O   UNL     1       7.778  -0.780  -2.802  1.00  0.00    -0.454 OA
ATOM     13  O   UNL     1       8.401  -2.469  -1.541  1.00  0.00    -0.454 OA
ATOM     14  C   UNL     1       8.432  -2.021  -2.875  1.00  0.00     0.468 C 
ENDBRANCH   5   6
ENDBRANCH   1   5
TORSDOF 3
ENDMDL
MODEL 2
REMARK VINA RESULT:      -7.8      0.957      1.949
REMARK SMILES CC(=O)CCc1ccc2c(c1)OCO2
REMARK SMILES IDX 4 1 2 2 1 3 3 4 5 5 6 6 7 7 11 8 8 9 10 10 9 11 12 12 14 13
REMARK SMILES IDX 13 14
REMARK H PARENT
REMARK Flexibility Score: inf
ROOT
ATOM      1  C   UNL     1       5.404   2.954   0.186  1.00  0.00     0.080 C 
ENDROOT
BRANCH   1   2
ATOM      2  C   UNL     1       6.270   3.856   0.996  1.00  0.00     0.130 C 
ATOM      3  C   UNL     1       7.252   4.774   0.360  1.00  0.00     0.087 C 
ATOM      4  O   UNL     1       6.197   3.866   2.214  1.00  0.00    -0.300 OA
ENDBRANCH   1   2
BRANCH   1   5
ATOM      5  C   UNL     1       5.193   1.623   0.881  1.00  0.00     0.043 C 
BRANCH   5   6
ATOM      6  C   UNL     1       6.017   0.558   0.282  1.00  0.00    -0.044 A 
ATOM      7  C   UNL     1       6.370   0.578  -1.072  1.00  0.00     0.008 A 
ATOM      8  C   UNL     1       6.458  -0.484   1.065  1.00  0.00     0.054 A 
ATOM      9  C   UNL     1       7.146  -0.449  -1.578  1.00  0.00     0.051 A 
ATOM     10  C   UNL     1       7.244  -1.519   0.549  1.00  0.00     0.166 A 
ATOM     11  C   UNL     1       7.590  -1.502  -0.784  1.00  0.00     0.165 A 
ATOM     12  O   UNL     1       7.798  -2.649   1.112  1.00  0.00    -0.454 OA
ATOM     13  O   UNL     1       8.358  -2.632  -1.013  1.00  0.00    -0.454 OA
ATOM     14  C   UNL     1       8.590  -3.340   0.181  1.00  0.00     0.468 C 
ENDBRANCH   5   6
ENDBRANCH   1   5
TORSDOF 3
ENDMDL
MODEL 3
REMARK VINA RESULT:      -7.7      1.890      2.628
REMARK SMILES CC(=O)CCc1ccc2c(c1)OCO2
REMARK SMILES IDX 4 1 2 2 1 3 3 4 5 5 6 6 7 7 11 8 8 9 10 10 9 11 12 12 14 13
REMARK SMILES IDX 13 14
REMARK H PARENT
REMARK Flexibility Score: inf
ROOT
ATOM      1  C   UNL     1       5.542   1.906   1.279  1.00  0.00     0.080 C 
ENDROOT
BRANCH   1   2
ATOM      2  C   UNL     1       5.106   0.684   2.009  1.00  0.00     0.130 C 
ATOM      3  C   UNL     1       6.008  -0.487   2.180  1.00  0.00     0.087 C 
ATOM      4  O   UNL     1       3.988   0.607   2.492  1.00  0.00    -0.300 OA
ENDBRANCH   1   2
BRANCH   1   5
ATOM      5  C   UNL     1       5.414   1.726  -0.221  1.00  0.00     0.043 C 
BRANCH   5   6
ATOM      6  C   UNL     1       6.578   1.024  -0.789  1.00  0.00    -0.044 A 
ATOM      7  C   UNL     1       7.887   1.454  -0.540  1.00  0.00     0.008 A 
ATOM      8  C   UNL     1       6.386  -0.085  -1.581  1.00  0.00     0.054 A 
ATOM      9  C   UNL     1       8.941   0.754  -1.099  1.00  0.00     0.051 A 
ATOM     10  C   UNL     1       7.455  -0.789  -2.144  1.00  0.00     0.166 A 
ATOM     11  C   UNL     1       8.743  -0.366  -1.901  1.00  0.00     0.165 A 
ATOM     12  O   UNL     1       7.525  -1.903  -2.954  1.00  0.00    -0.454 OA
ATOM     13  O   UNL     1       9.585  -1.238  -2.573  1.00  0.00    -0.454 OA
ATOM     14  C   UNL     1       8.859  -2.280  -3.179  1.00  0.00     0.468 C 
ENDBRANCH   5   6
ENDBRANCH   1   5
TORSDOF 3
ENDMDL
