@<TRIPOS>MOLECULE
/home/cewinharhar/GITHUB/reincatalyze/data/processed/docking_pred/2023-May-22-1531_sub9_nm5_bs15_s42_ex16_mel10_mts1000_k50_ec02_g099_lra9e-4_lrc1e-3/b0253e2818c1de1129519fa2afa58b59888d8d60_ligand_9.pdbqt
 14 15 0 0 0
SMALL
GASTEIGER

@<TRIPOS>ATOM
      1  C          5.5250    1.9270    1.2510 C.3     1  UNL1        0.0800
      2  C          5.0940    0.7180    2.0070 C.2     1  UNL1        0.1300
      3  C          5.9950   -0.4510    2.1880 C.3     1  UNL1        0.0870
      4  O          3.9800    0.6520    2.5020 O.2     1  UNL1       -0.3000
      5  C          5.3940    1.7170   -0.2440 C.3     1  UNL1        0.0430
      6  C          6.5660    1.0200   -0.8030 C.2     1  UNL1       -0.0440
      7  C          7.8700    1.4590   -0.5470 C.2     1  UNL1        0.0080
      8  C          6.3860   -0.0910   -1.5950 C.2     1  UNL1        0.0540
      9  C          8.9320    0.7640   -1.0970 C.2     1  UNL1        0.0510
     10  C          7.4630   -0.7900   -2.1490 C.2     1  UNL1        0.1660
     11  C          8.7460   -0.3580   -1.8980 C.2     1  UNL1        0.1650
     12  O          7.5440   -1.9040   -2.9570 O.2     1  UNL1       -0.4540
     13  O          9.5980   -1.2260   -2.5630 O.2     1  UNL1       -0.4540
     14  C          8.8820   -2.2740   -3.1720 C.3     1  UNL1        0.4680
@<TRIPOS>BOND
     1    14    12    1
     2    14    13    1
     3    12    10    1
     4    13    11    1
     5    10    11    2
     6    10     8    1
     7    11     9    1
     8     8     6    2
     9     9     7    2
    10     6     7    1
    11     6     5    1
    12     5     1    1
    13     1     2    1
    14     2     3    1
    15     2     4    2
