MODEL 1
REMARK VINA RESULT:      -7.5      0.000      0.000
REMARK SMILES CC(=O)CCc1ccc2c(c1)OCO2
REMARK SMILES IDX 4 1 2 2 1 3 3 4 5 5 6 6 7 7 11 8 8 9 10 10 9 11 12 12 14 13
REMARK SMILES IDX 13 14
REMARK H PARENT
REMARK Flexibility Score: inf
ROOT
ATOM      1  C   UNL     1       5.525   1.927   1.251  1.00  0.00     0.080 C 
ENDROOT
BRANCH   1   2
ATOM      2  C   UNL     1       5.094   0.718   2.007  1.00  0.00     0.130 C 
ATOM      3  C   UNL     1       5.995  -0.451   2.188  1.00  0.00     0.087 C 
ATOM      4  O   UNL     1       3.980   0.652   2.502  1.00  0.00    -0.300 OA
ENDBRANCH   1   2
BRANCH   1   5
ATOM      5  C   UNL     1       5.394   1.717  -0.244  1.00  0.00     0.043 C 
BRANCH   5   6
ATOM      6  C   UNL     1       6.566   1.020  -0.803  1.00  0.00    -0.044 A 
ATOM      7  C   UNL     1       7.870   1.459  -0.547  1.00  0.00     0.008 A 
ATOM      8  C   UNL     1       6.386  -0.091  -1.595  1.00  0.00     0.054 A 
ATOM      9  C   UNL     1       8.932   0.764  -1.097  1.00  0.00     0.051 A 
ATOM     10  C   UNL     1       7.463  -0.790  -2.149  1.00  0.00     0.166 A 
ATOM     11  C   UNL     1       8.746  -0.358  -1.898  1.00  0.00     0.165 A 
ATOM     12  O   UNL     1       7.544  -1.904  -2.957  1.00  0.00    -0.454 OA
ATOM     13  O   UNL     1       9.598  -1.226  -2.563  1.00  0.00    -0.454 OA
ATOM     14  C   UNL     1       8.882  -2.274  -3.172  1.00  0.00     0.468 C 
ENDBRANCH   5   6
ENDBRANCH   1   5
TORSDOF 3
ENDMDL
MODEL 2
REMARK VINA RESULT:      -7.4      1.944      2.422
REMARK SMILES CC(=O)CCc1ccc2c(c1)OCO2
REMARK SMILES IDX 4 1 2 2 1 3 3 4 5 5 6 6 7 7 11 8 8 9 10 10 9 11 12 12 14 13
REMARK SMILES IDX 13 14
REMARK H PARENT
REMARK Flexibility Score: inf
ROOT
ATOM      1  C   UNL     1       5.738   1.320  -0.370  1.00  0.00     0.080 C 
ENDROOT
BRANCH   1   2
ATOM      2  C   UNL     1       5.122   1.304   0.986  1.00  0.00     0.130 C 
ATOM      3  C   UNL     1       5.327   0.166   1.922  1.00  0.00     0.087 C 
ATOM      4  O   UNL     1       4.427   2.230   1.370  1.00  0.00    -0.300 OA
ENDBRANCH   1   2
BRANCH   1   5
ATOM      5  C   UNL     1       7.234   1.089  -0.299  1.00  0.00     0.043 C 
BRANCH   5   6
ATOM      6  C   UNL     1       7.615  -0.208  -0.887  1.00  0.00    -0.044 A 
ATOM      7  C   UNL     1       7.704  -0.387  -2.272  1.00  0.00     0.008 A 
ATOM      8  C   UNL     1       7.894  -1.275  -0.064  1.00  0.00     0.054 A 
ATOM      9  C   UNL     1       8.067  -1.626  -2.767  1.00  0.00     0.051 A 
ATOM     10  C   UNL     1       8.261  -2.526  -0.569  1.00  0.00     0.166 A 
ATOM     11  C   UNL     1       8.348  -2.703  -1.932  1.00  0.00     0.165 A 
ATOM     12  O   UNL     1       8.583  -3.724   0.032  1.00  0.00    -0.454 OA
ATOM     13  O   UNL     1       8.726  -4.020  -2.142  1.00  0.00    -0.454 OA
ATOM     14  C   UNL     1       8.974  -4.678  -0.922  1.00  0.00     0.468 C 
ENDBRANCH   5   6
ENDBRANCH   1   5
TORSDOF 3
ENDMDL
MODEL 3
REMARK VINA RESULT:      -7.2      2.175      2.780
REMARK SMILES CC(=O)CCc1ccc2c(c1)OCO2
REMARK SMILES IDX 4 1 2 2 1 3 3 4 5 5 6 6 7 7 11 8 8 9 10 10 9 11 12 12 14 13
REMARK SMILES IDX 13 14
REMARK H PARENT
REMARK Flexibility Score: inf
ROOT
ATOM      1  C   UNL     1       6.891   2.130  -0.090  1.00  0.00     0.080 C 
ENDROOT
BRANCH   1   2
ATOM      2  C   UNL     1       6.074   2.944   0.853  1.00  0.00     0.130 C 
ATOM      3  C   UNL     1       6.544   4.264   1.353  1.00  0.00     0.087 C 
ATOM      4  O   UNL     1       4.989   2.548   1.245  1.00  0.00    -0.300 OA
ENDBRANCH   1   2
BRANCH   1   5
ATOM      5  C   UNL     1       6.107   0.941  -0.611  1.00  0.00     0.043 C 
BRANCH   5   6
ATOM      6  C   UNL     1       6.795  -0.332  -0.332  1.00  0.00    -0.044 A 
ATOM      7  C   UNL     1       6.983  -0.792   0.976  1.00  0.00     0.008 A 
ATOM      8  C   UNL     1       7.265  -1.096  -1.376  1.00  0.00     0.054 A 
ATOM      9  C   UNL     1       7.636  -1.995   1.177  1.00  0.00     0.051 A 
ATOM     10  C   UNL     1       7.923  -2.312  -1.168  1.00  0.00     0.166 A 
ATOM     11  C   UNL     1       8.110  -2.765   0.119  1.00  0.00     0.165 A 
ATOM     12  O   UNL     1       8.475  -3.240  -2.025  1.00  0.00    -0.454 OA
ATOM     13  O   UNL     1       8.780  -3.975   0.025  1.00  0.00    -0.454 OA
ATOM     14  C   UNL     1       8.951  -4.358  -1.319  1.00  0.00     0.468 C 
ENDBRANCH   5   6
ENDBRANCH   1   5
TORSDOF 3
ENDMDL
