MODEL 1
REMARK VINA RESULT:      -7.9      0.000      0.000
REMARK SMILES CC(=O)CCc1ccc2c(c1)OCO2
REMARK SMILES IDX 4 1 2 2 1 3 3 4 5 5 6 6 7 7 11 8 8 9 10 10 9 11 12 12 14 13
REMARK SMILES IDX 13 14
REMARK H PARENT
REMARK Flexibility Score: inf
ROOT
ATOM      1  C   UNL     1       5.462   2.909   0.125  1.00  0.00     0.080 C 
ENDROOT
BRANCH   1   2
ATOM      2  C   UNL     1       6.280   3.832   0.960  1.00  0.00     0.130 C 
ATOM      3  C   UNL     1       7.258   4.774   0.352  1.00  0.00     0.087 C 
ATOM      4  O   UNL     1       6.170   3.842   2.175  1.00  0.00    -0.300 OA
ENDBRANCH   1   2
BRANCH   1   5
ATOM      5  C   UNL     1       5.195   1.604   0.849  1.00  0.00     0.043 C 
BRANCH   5   6
ATOM      6  C   UNL     1       6.015   0.503   0.311  1.00  0.00    -0.044 A 
ATOM      7  C   UNL     1       6.363  -0.603   1.096  1.00  0.00     0.008 A 
ATOM      8  C   UNL     1       6.453   0.552  -0.993  1.00  0.00     0.054 A 
ATOM      9  C   UNL     1       7.133  -1.606   0.538  1.00  0.00     0.051 A 
ATOM     10  C   UNL     1       7.231  -0.465  -1.553  1.00  0.00     0.166 A 
ATOM     11  C   UNL     1       7.575  -1.553  -0.781  1.00  0.00     0.165 A 
ATOM     12  O   UNL     1       7.782  -0.647  -2.804  1.00  0.00    -0.454 OA
ATOM     13  O   UNL     1       8.336  -2.389  -1.583  1.00  0.00    -0.454 OA
ATOM     14  C   UNL     1       8.416  -1.896  -2.899  1.00  0.00     0.468 C 
ENDBRANCH   5   6
ENDBRANCH   1   5
TORSDOF 3
ENDMDL
MODEL 2
REMARK VINA RESULT:      -7.8      0.963      1.956
REMARK SMILES CC(=O)CCc1ccc2c(c1)OCO2
REMARK SMILES IDX 4 1 2 2 1 3 3 4 5 5 6 6 7 7 11 8 8 9 10 10 9 11 12 12 14 13
REMARK SMILES IDX 13 14
REMARK H PARENT
REMARK Flexibility Score: inf
ROOT
ATOM      1  C   UNL     1       5.448   2.913   0.166  1.00  0.00     0.080 C 
ENDROOT
BRANCH   1   2
ATOM      2  C   UNL     1       6.284   3.822   0.998  1.00  0.00     0.130 C 
ATOM      3  C   UNL     1       7.255   4.769   0.387  1.00  0.00     0.087 C 
ATOM      4  O   UNL     1       6.197   3.815   2.215  1.00  0.00    -0.300 OA
ENDBRANCH   1   2
BRANCH   1   5
ATOM      5  C   UNL     1       5.235   1.579   0.852  1.00  0.00     0.043 C 
BRANCH   5   6
ATOM      6  C   UNL     1       6.054   0.514   0.245  1.00  0.00    -0.044 A 
ATOM      7  C   UNL     1       6.404   0.542  -1.110  1.00  0.00     0.008 A 
ATOM      8  C   UNL     1       6.493  -0.535   1.020  1.00  0.00     0.054 A 
ATOM      9  C   UNL     1       7.176  -0.484  -1.624  1.00  0.00     0.051 A 
ATOM     10  C   UNL     1       7.273  -1.569   0.496  1.00  0.00     0.166 A 
ATOM     11  C   UNL     1       7.617  -1.544  -0.837  1.00  0.00     0.165 A 
ATOM     12  O   UNL     1       7.824  -2.705   1.051  1.00  0.00    -0.454 OA
ATOM     13  O   UNL     1       8.381  -2.676  -1.076  1.00  0.00    -0.454 OA
ATOM     14  C   UNL     1       8.613  -3.393   0.113  1.00  0.00     0.468 C 
ENDBRANCH   5   6
ENDBRANCH   1   5
TORSDOF 3
ENDMDL
MODEL 3
REMARK VINA RESULT:      -7.7      1.888      2.636
REMARK SMILES CC(=O)CCc1ccc2c(c1)OCO2
REMARK SMILES IDX 4 1 2 2 1 3 3 4 5 5 6 6 7 7 11 8 8 9 10 10 9 11 12 12 14 13
REMARK SMILES IDX 13 14
REMARK H PARENT
REMARK Flexibility Score: inf
ROOT
ATOM      1  C   UNL     1       5.509   1.925   1.267  1.00  0.00     0.080 C 
ENDROOT
BRANCH   1   2
ATOM      2  C   UNL     1       5.061   0.709   2.002  1.00  0.00     0.130 C 
ATOM      3  C   UNL     1       5.941  -0.479   2.156  1.00  0.00     0.087 C 
ATOM      4  O   UNL     1       3.949   0.654   2.502  1.00  0.00    -0.300 OA
ENDBRANCH   1   2
BRANCH   1   5
ATOM      5  C   UNL     1       5.386   1.738  -0.232  1.00  0.00     0.043 C 
BRANCH   5   6
ATOM      6  C   UNL     1       6.555   1.037  -0.793  1.00  0.00    -0.044 A 
ATOM      7  C   UNL     1       7.862   1.472  -0.541  1.00  0.00     0.008 A 
ATOM      8  C   UNL     1       6.370  -0.074  -1.583  1.00  0.00     0.054 A 
ATOM      9  C   UNL     1       8.920   0.774  -1.093  1.00  0.00     0.051 A 
ATOM     10  C   UNL     1       7.443  -0.777  -2.139  1.00  0.00     0.166 A 
ATOM     11  C   UNL     1       8.729  -0.349  -1.892  1.00  0.00     0.165 A 
ATOM     12  O   UNL     1       7.519  -1.893  -2.945  1.00  0.00    -0.454 OA
ATOM     13  O   UNL     1       9.576  -1.221  -2.558  1.00  0.00    -0.454 OA
ATOM     14  C   UNL     1       8.855  -2.267  -3.164  1.00  0.00     0.468 C 
ENDBRANCH   5   6
ENDBRANCH   1   5
TORSDOF 3
ENDMDL
