@<TRIPOS>MOLECULE
/home/cewinharhar/GITHUB/reincatalyze/data/processed/docking_pred/2023-May-22-1531_sub9_nm5_bs15_s42_ex16_mel10_mts1000_k50_ec02_g099_lra9e-4_lrc1e-3/b0dbf451e4e891e0fb60bf6ca530f921e690d9da_ligand_9.pdbqt
 14 15 0 0 0
SMALL
GASTEIGER

@<TRIPOS>ATOM
      1  C          5.4480    2.9130    0.1660 C.3     1  UNL1        0.0800
      2  C          6.2840    3.8220    0.9980 C.2     1  UNL1        0.1300
      3  C          7.2550    4.7690    0.3870 C.3     1  UNL1        0.0870
      4  O          6.1970    3.8150    2.2150 O.2     1  UNL1       -0.3000
      5  C          5.2350    1.5790    0.8520 C.3     1  UNL1        0.0430
      6  C          6.0540    0.5140    0.2450 C.2     1  UNL1       -0.0440
      7  C          6.4040    0.5420   -1.1100 C.2     1  UNL1        0.0080
      8  C          6.4930   -0.5350    1.0200 C.2     1  UNL1        0.0540
      9  C          7.1760   -0.4840   -1.6240 C.2     1  UNL1        0.0510
     10  C          7.2730   -1.5690    0.4960 C.2     1  UNL1        0.1660
     11  C          7.6170   -1.5440   -0.8370 C.2     1  UNL1        0.1650
     12  O          7.8240   -2.7050    1.0510 O.2     1  UNL1       -0.4540
     13  O          8.3810   -2.6760   -1.0760 O.2     1  UNL1       -0.4540
     14  C          8.6130   -3.3930    0.1130 C.3     1  UNL1        0.4680
@<TRIPOS>BOND
     1     9     7    1
     2     9    11    2
     3     7     6    2
     4    13    11    1
     5    13    14    1
     6    11    10    1
     7    14    12    1
     8     1     5    1
     9     1     2    1
    10     6     5    1
    11     6     8    1
    12     3     2    1
    13    10     8    2
    14    10    12    1
    15     2     4    2
