@<TRIPOS>MOLECULE
/home/cewinharhar/GITHUB/reincatalyze/data/processed/docking_pred/2023-May-22-1531_sub9_nm5_bs15_s42_ex16_mel10_mts1000_k50_ec02_g099_lra9e-4_lrc1e-3/b0dbf451e4e891e0fb60bf6ca530f921e690d9da_ligand_9.pdbqt
 14 15 0 0 0
SMALL
GASTEIGER

@<TRIPOS>ATOM
      1  C          5.4620    2.9090    0.1250 C.3     1  UNL1        0.0800
      2  C          6.2800    3.8320    0.9600 C.2     1  UNL1        0.1300
      3  C          7.2580    4.7740    0.3520 C.3     1  UNL1        0.0870
      4  O          6.1700    3.8420    2.1750 O.2     1  UNL1       -0.3000
      5  C          5.1950    1.6040    0.8490 C.3     1  UNL1        0.0430
      6  C          6.0150    0.5030    0.3110 C.2     1  UNL1       -0.0440
      7  C          6.3630   -0.6030    1.0960 C.2     1  UNL1        0.0080
      8  C          6.4530    0.5520   -0.9930 C.2     1  UNL1        0.0540
      9  C          7.1330   -1.6060    0.5380 C.2     1  UNL1        0.0510
     10  C          7.2310   -0.4650   -1.5530 C.2     1  UNL1        0.1660
     11  C          7.5750   -1.5530   -0.7810 C.2     1  UNL1        0.1650
     12  O          7.7820   -0.6470   -2.8040 O.2     1  UNL1       -0.4540
     13  O          8.3360   -2.3890   -1.5830 O.2     1  UNL1       -0.4540
     14  C          8.4160   -1.8960   -2.8990 C.3     1  UNL1        0.4680
@<TRIPOS>BOND
     1    14    12    1
     2    14    13    1
     3    12    10    1
     4    13    11    1
     5    10     8    1
     6    10    11    2
     7     8     6    2
     8    11     9    1
     9     1     5    1
    10     1     2    1
    11     6     5    1
    12     6     7    1
    13     3     2    1
    14     9     7    2
    15     2     4    2
