@<TRIPOS>MOLECULE
/home/cewinharhar/GITHUB/reincatalyze/data/processed/docking_pred/2023-May-22-1531_sub9_nm5_bs15_s42_ex16_mel10_mts1000_k50_ec02_g099_lra9e-4_lrc1e-3/b1cc709a4c09585943c6b669d8b61c6b26bf0288_ligand_9.pdbqt
 14 15 0 0 0
SMALL
GASTEIGER

@<TRIPOS>ATOM
      1  C          5.4540    2.9100    0.1500 C.3     1  UNL1        0.0800
      2  C          6.3430    3.7680    0.9820 C.2     1  UNL1        0.1300
      3  C          7.2520    4.7740    0.3700 C.3     1  UNL1        0.0870
      4  O          6.3520    3.6680    2.1980 O.2     1  UNL1       -0.3000
      5  C          5.1590    1.5920    0.8400 C.3     1  UNL1        0.0430
      6  C          5.9880    0.4980    0.3050 C.2     1  UNL1       -0.0440
      7  C          6.3330   -0.6110    1.0870 C.2     1  UNL1        0.0080
      8  C          6.4390    0.5550   -0.9950 C.2     1  UNL1        0.0540
      9  C          7.1130   -1.6080    0.5310 C.2     1  UNL1        0.0510
     10  C          7.2270   -0.4560   -1.5520 C.2     1  UNL1        0.1660
     11  C          7.5670   -1.5460   -0.7830 C.2     1  UNL1        0.1650
     12  O          7.7910   -0.6280   -2.7990 O.2     1  UNL1       -0.4540
     13  O          8.3400   -2.3750   -1.5810 O.2     1  UNL1       -0.4540
     14  C          8.4310   -1.8750   -2.8940 C.3     1  UNL1        0.4680
@<TRIPOS>BOND
     1    14    12    1
     2    14    13    1
     3    12    10    1
     4    13    11    1
     5    10     8    1
     6    10    11    2
     7     8     6    2
     8    11     9    1
     9     1     5    1
    10     1     2    1
    11     6     5    1
    12     6     7    1
    13     3     2    1
    14     9     7    2
    15     2     4    2
