MODEL 1
REMARK VINA RESULT:      -7.9      0.000      0.000
REMARK SMILES CC(=O)CCc1ccc2c(c1)OCO2
REMARK SMILES IDX 4 1 2 2 1 3 3 4 5 5 6 6 7 7 11 8 8 9 10 10 9 11 12 12 14 13
REMARK SMILES IDX 13 14
REMARK H PARENT
REMARK Flexibility Score: inf
ROOT
ATOM      1  C   UNL     1       5.454   2.910   0.150  1.00  0.00     0.080 C 
ENDROOT
BRANCH   1   2
ATOM      2  C   UNL     1       6.343   3.768   0.982  1.00  0.00     0.130 C 
ATOM      3  C   UNL     1       7.252   4.774   0.370  1.00  0.00     0.087 C 
ATOM      4  O   UNL     1       6.352   3.668   2.198  1.00  0.00    -0.300 OA
ENDBRANCH   1   2
BRANCH   1   5
ATOM      5  C   UNL     1       5.159   1.592   0.840  1.00  0.00     0.043 C 
BRANCH   5   6
ATOM      6  C   UNL     1       5.988   0.498   0.305  1.00  0.00    -0.044 A 
ATOM      7  C   UNL     1       6.333  -0.611   1.087  1.00  0.00     0.008 A 
ATOM      8  C   UNL     1       6.439   0.555  -0.995  1.00  0.00     0.054 A 
ATOM      9  C   UNL     1       7.113  -1.608   0.531  1.00  0.00     0.051 A 
ATOM     10  C   UNL     1       7.227  -0.456  -1.552  1.00  0.00     0.166 A 
ATOM     11  C   UNL     1       7.567  -1.546  -0.783  1.00  0.00     0.165 A 
ATOM     12  O   UNL     1       7.791  -0.628  -2.799  1.00  0.00    -0.454 OA
ATOM     13  O   UNL     1       8.340  -2.375  -1.581  1.00  0.00    -0.454 OA
ATOM     14  C   UNL     1       8.431  -1.875  -2.894  1.00  0.00     0.468 C 
ENDBRANCH   5   6
ENDBRANCH   1   5
TORSDOF 3
ENDMDL
MODEL 2
REMARK VINA RESULT:      -7.8      0.998      1.990
REMARK SMILES CC(=O)CCc1ccc2c(c1)OCO2
REMARK SMILES IDX 4 1 2 2 1 3 3 4 5 5 6 6 7 7 11 8 8 9 10 10 9 11 12 12 14 13
REMARK SMILES IDX 13 14
REMARK H PARENT
REMARK Flexibility Score: inf
ROOT
ATOM      1  C   UNL     1       5.387   2.958   0.136  1.00  0.00     0.080 C 
ENDROOT
BRANCH   1   2
ATOM      2  C   UNL     1       6.284   3.815   0.962  1.00  0.00     0.130 C 
ATOM      3  C   UNL     1       7.235   4.775   0.342  1.00  0.00     0.087 C 
ATOM      4  O   UNL     1       6.263   3.752   2.180  1.00  0.00    -0.300 OA
ENDBRANCH   1   2
BRANCH   1   5
ATOM      5  C   UNL     1       5.120   1.628   0.812  1.00  0.00     0.043 C 
BRANCH   5   6
ATOM      6  C   UNL     1       5.961   0.554   0.254  1.00  0.00    -0.044 A 
ATOM      7  C   UNL     1       6.328   0.537  -1.096  1.00  0.00     0.008 A 
ATOM      8  C   UNL     1       6.402  -0.462   1.072  1.00  0.00     0.054 A 
ATOM      9  C   UNL     1       7.120  -0.497  -1.563  1.00  0.00     0.051 A 
ATOM     10  C   UNL     1       7.202  -1.504   0.595  1.00  0.00     0.166 A 
ATOM     11  C   UNL     1       7.563  -1.522  -0.734  1.00  0.00     0.165 A 
ATOM     12  O   UNL     1       7.759  -2.612   1.197  1.00  0.00    -0.454 OA
ATOM     13  O   UNL     1       8.344  -2.652  -0.922  1.00  0.00    -0.454 OA
ATOM     14  C   UNL     1       8.568  -3.323   0.295  1.00  0.00     0.468 C 
ENDBRANCH   5   6
ENDBRANCH   1   5
TORSDOF 3
ENDMDL
MODEL 3
REMARK VINA RESULT:      -7.7      1.881      2.632
REMARK SMILES CC(=O)CCc1ccc2c(c1)OCO2
REMARK SMILES IDX 4 1 2 2 1 3 3 4 5 5 6 6 7 7 11 8 8 9 10 10 9 11 12 12 14 13
REMARK SMILES IDX 13 14
REMARK H PARENT
REMARK Flexibility Score: inf
ROOT
ATOM      1  C   UNL     1       5.523   1.916   1.265  1.00  0.00     0.080 C 
ENDROOT
BRANCH   1   2
ATOM      2  C   UNL     1       5.075   0.704   2.006  1.00  0.00     0.130 C 
ATOM      3  C   UNL     1       5.957  -0.482   2.168  1.00  0.00     0.087 C 
ATOM      4  O   UNL     1       3.963   0.650   2.505  1.00  0.00    -0.300 OA
ENDBRANCH   1   2
BRANCH   1   5
ATOM      5  C   UNL     1       5.394   1.725  -0.233  1.00  0.00     0.043 C 
BRANCH   5   6
ATOM      6  C   UNL     1       6.562   1.024  -0.796  1.00  0.00    -0.044 A 
ATOM      7  C   UNL     1       7.868   1.462  -0.552  1.00  0.00     0.008 A 
ATOM      8  C   UNL     1       6.375  -0.091  -1.582  1.00  0.00     0.054 A 
ATOM      9  C   UNL     1       8.925   0.764  -1.107  1.00  0.00     0.051 A 
ATOM     10  C   UNL     1       7.447  -0.794  -2.140  1.00  0.00     0.166 A 
ATOM     11  C   UNL     1       8.733  -0.362  -1.901  1.00  0.00     0.165 A 
ATOM     12  O   UNL     1       7.521  -1.912  -2.943  1.00  0.00    -0.454 OA
ATOM     13  O   UNL     1       9.579  -1.234  -2.567  1.00  0.00    -0.454 OA
ATOM     14  C   UNL     1       8.857  -2.285  -3.166  1.00  0.00     0.468 C 
ENDBRANCH   5   6
ENDBRANCH   1   5
TORSDOF 3
ENDMDL
