@<TRIPOS>MOLECULE
/home/cewinharhar/GITHUB/reincatalyze/data/processed/docking_pred/2023-May-22-1531_sub9_nm5_bs15_s42_ex16_mel10_mts1000_k50_ec02_g099_lra9e-4_lrc1e-3/b1cc709a4c09585943c6b669d8b61c6b26bf0288_ligand_9.pdbqt
 14 15 0 0 0
SMALL
GASTEIGER

@<TRIPOS>ATOM
      1  C          5.5230    1.9160    1.2650 C.3     1  UNL1        0.0800
      2  C          5.0750    0.7040    2.0060 C.2     1  UNL1        0.1300
      3  C          5.9570   -0.4820    2.1680 C.3     1  UNL1        0.0870
      4  O          3.9630    0.6500    2.5050 O.2     1  UNL1       -0.3000
      5  C          5.3940    1.7250   -0.2330 C.3     1  UNL1        0.0430
      6  C          6.5620    1.0240   -0.7960 C.2     1  UNL1       -0.0440
      7  C          7.8680    1.4620   -0.5520 C.2     1  UNL1        0.0080
      8  C          6.3750   -0.0910   -1.5820 C.2     1  UNL1        0.0540
      9  C          8.9250    0.7640   -1.1070 C.2     1  UNL1        0.0510
     10  C          7.4470   -0.7940   -2.1400 C.2     1  UNL1        0.1660
     11  C          8.7330   -0.3620   -1.9010 C.2     1  UNL1        0.1650
     12  O          7.5210   -1.9120   -2.9430 O.2     1  UNL1       -0.4540
     13  O          9.5790   -1.2340   -2.5670 O.2     1  UNL1       -0.4540
     14  C          8.8570   -2.2850   -3.1660 C.3     1  UNL1        0.4680
@<TRIPOS>BOND
     1    14    12    1
     2    14    13    1
     3    12    10    1
     4    13    11    1
     5    10    11    2
     6    10     8    1
     7    11     9    1
     8     8     6    2
     9     9     7    2
    10     6     7    1
    11     6     5    1
    12     5     1    1
    13     1     2    1
    14     2     3    1
    15     2     4    2
