@<TRIPOS>MOLECULE
/home/cewinharhar/GITHUB/reincatalyze/data/processed/docking_pred/2023-May-22-1531_sub9_nm5_bs15_s42_ex16_mel10_mts1000_k50_ec02_g099_lra9e-4_lrc1e-3/b393d0f0af23d36e99ef7bf88514b4beffd0378d_ligand_9.pdbqt
 14 15 0 0 0
SMALL
GASTEIGER

@<TRIPOS>ATOM
      1  C          5.4440    2.8670    0.1650 C.3     1  UNL1        0.0800
      2  C          6.3770    3.6620    1.0110 C.2     1  UNL1        0.1300
      3  C          7.1870    4.7740    0.4470 C.3     1  UNL1        0.0870
      4  O          6.5050    3.4210    2.2010 O.2     1  UNL1       -0.3000
      5  C          5.1600    1.5120    0.7830 C.3     1  UNL1        0.0430
      6  C          6.0200    0.4600    0.2130 C.2     1  UNL1       -0.0440
      7  C          6.4420    0.5010   -1.1210 C.2     1  UNL1        0.0080
      8  C          6.4270   -0.5910    1.0030 C.2     1  UNL1        0.0540
      9  C          7.2500   -0.5140   -1.6010 C.2     1  UNL1        0.0510
     10  C          7.2450   -1.6140    0.5130 C.2     1  UNL1        0.1660
     11  C          7.6590   -1.5760   -0.8000 C.2     1  UNL1        0.1650
     12  O          7.7760   -2.7490    1.0880 O.2     1  UNL1       -0.4540
     13  O          8.4450   -2.6990   -1.0050 O.2     1  UNL1       -0.4540
     14  C          8.6200   -3.4220    0.1900 C.3     1  UNL1        0.4680
@<TRIPOS>BOND
     1     9     7    1
     2     9    11    2
     3     7     6    2
     4    13    11    1
     5    13    14    1
     6    11    10    1
     7     1     5    1
     8     1     2    1
     9    14    12    1
    10     6     5    1
    11     6     8    1
    12     3     2    1
    13    10     8    2
    14    10    12    1
    15     2     4    2
