@<TRIPOS>MOLECULE
/home/cewinharhar/GITHUB/reincatalyze/data/processed/docking_pred/2023-May-22-1531_sub9_nm5_bs15_s42_ex16_mel10_mts1000_k50_ec02_g099_lra9e-4_lrc1e-3/b393d0f0af23d36e99ef7bf88514b4beffd0378d_ligand_9.pdbqt
 14 15 0 0 0
SMALL
GASTEIGER

@<TRIPOS>ATOM
      1  C          5.4510    2.9000    0.3350 C.3     1  UNL1        0.0800
      2  C          6.2570    3.8890    1.1030 C.2     1  UNL1        0.1300
      3  C          7.2490    4.7750    0.4360 C.3     1  UNL1        0.0870
      4  O          6.1260    4.0020    2.3110 O.2     1  UNL1       -0.3000
      5  C          5.3120    1.5950    1.0940 C.3     1  UNL1        0.0430
      6  C          6.1100    0.5190    0.4810 C.2     1  UNL1       -0.0440
      7  C          6.4750   -0.6240    1.2020 C.2     1  UNL1        0.0080
      8  C          6.5080    0.6270   -0.8320 C.2     1  UNL1        0.0540
      9  C          7.2240   -1.6020    0.5740 C.2     1  UNL1        0.0510
     10  C          7.2650   -0.3650   -1.4620 C.2     1  UNL1        0.1660
     11  C          7.6260   -1.4890   -0.7530 C.2     1  UNL1        0.1650
     12  O          7.7770   -0.4890   -2.7360 O.2     1  UNL1       -0.4540
     13  O          8.3590   -2.2880   -1.6160 O.2     1  UNL1       -0.4540
     14  C          8.4020   -1.7350   -2.9100 C.3     1  UNL1        0.4680
@<TRIPOS>BOND
     1    14    12    1
     2    14    13    1
     3    12    10    1
     4    13    11    1
     5    10     8    1
     6    10    11    2
     7     8     6    2
     8    11     9    1
     9     1     5    1
    10     1     2    1
    11     3     2    1
    12     6     5    1
    13     6     7    1
    14     9     7    2
    15     2     4    2
