MODEL 1
REMARK VINA RESULT:      -7.8      0.000      0.000
REMARK SMILES CC(=O)CCc1ccc2c(c1)OCO2
REMARK SMILES IDX 4 1 2 2 1 3 3 4 5 5 6 6 7 7 11 8 8 9 10 10 9 11 12 12 14 13
REMARK SMILES IDX 13 14
REMARK H PARENT
REMARK Flexibility Score: inf
ROOT
ATOM      1  C   UNL     1       5.444   2.867   0.165  1.00  0.00     0.080 C 
ENDROOT
BRANCH   1   2
ATOM      2  C   UNL     1       6.377   3.662   1.011  1.00  0.00     0.130 C 
ATOM      3  C   UNL     1       7.187   4.774   0.447  1.00  0.00     0.087 C 
ATOM      4  O   UNL     1       6.505   3.421   2.201  1.00  0.00    -0.300 OA
ENDBRANCH   1   2
BRANCH   1   5
ATOM      5  C   UNL     1       5.160   1.512   0.783  1.00  0.00     0.043 C 
BRANCH   5   6
ATOM      6  C   UNL     1       6.020   0.460   0.213  1.00  0.00    -0.044 A 
ATOM      7  C   UNL     1       6.442   0.501  -1.121  1.00  0.00     0.008 A 
ATOM      8  C   UNL     1       6.427  -0.591   1.003  1.00  0.00     0.054 A 
ATOM      9  C   UNL     1       7.250  -0.514  -1.601  1.00  0.00     0.051 A 
ATOM     10  C   UNL     1       7.245  -1.614   0.513  1.00  0.00     0.166 A 
ATOM     11  C   UNL     1       7.659  -1.576  -0.800  1.00  0.00     0.165 A 
ATOM     12  O   UNL     1       7.776  -2.749   1.088  1.00  0.00    -0.454 OA
ATOM     13  O   UNL     1       8.445  -2.699  -1.005  1.00  0.00    -0.454 OA
ATOM     14  C   UNL     1       8.620  -3.422   0.190  1.00  0.00     0.468 C 
ENDBRANCH   5   6
ENDBRANCH   1   5
TORSDOF 3
ENDMDL
MODEL 2
REMARK VINA RESULT:      -7.7      1.029      2.009
REMARK SMILES CC(=O)CCc1ccc2c(c1)OCO2
REMARK SMILES IDX 4 1 2 2 1 3 3 4 5 5 6 6 7 7 11 8 8 9 10 10 9 11 12 12 14 13
REMARK SMILES IDX 13 14
REMARK H PARENT
REMARK Flexibility Score: inf
ROOT
ATOM      1  C   UNL     1       5.451   2.900   0.335  1.00  0.00     0.080 C 
ENDROOT
BRANCH   1   2
ATOM      2  C   UNL     1       6.257   3.889   1.103  1.00  0.00     0.130 C 
ATOM      3  C   UNL     1       7.249   4.775   0.436  1.00  0.00     0.087 C 
ATOM      4  O   UNL     1       6.126   4.002   2.311  1.00  0.00    -0.300 OA
ENDBRANCH   1   2
BRANCH   1   5
ATOM      5  C   UNL     1       5.312   1.595   1.094  1.00  0.00     0.043 C 
BRANCH   5   6
ATOM      6  C   UNL     1       6.110   0.519   0.481  1.00  0.00    -0.044 A 
ATOM      7  C   UNL     1       6.475  -0.624   1.202  1.00  0.00     0.008 A 
ATOM      8  C   UNL     1       6.508   0.627  -0.832  1.00  0.00     0.054 A 
ATOM      9  C   UNL     1       7.224  -1.602   0.574  1.00  0.00     0.051 A 
ATOM     10  C   UNL     1       7.265  -0.365  -1.462  1.00  0.00     0.166 A 
ATOM     11  C   UNL     1       7.626  -1.489  -0.753  1.00  0.00     0.165 A 
ATOM     12  O   UNL     1       7.777  -0.489  -2.736  1.00  0.00    -0.454 OA
ATOM     13  O   UNL     1       8.359  -2.288  -1.616  1.00  0.00    -0.454 OA
ATOM     14  C   UNL     1       8.402  -1.735  -2.910  1.00  0.00     0.468 C 
ENDBRANCH   5   6
ENDBRANCH   1   5
TORSDOF 3
ENDMDL
MODEL 3
REMARK VINA RESULT:      -7.6      2.372      2.985
REMARK SMILES CC(=O)CCc1ccc2c(c1)OCO2
REMARK SMILES IDX 4 1 2 2 1 3 3 4 5 5 6 6 7 7 11 8 8 9 10 10 9 11 12 12 14 13
REMARK SMILES IDX 13 14
REMARK H PARENT
REMARK Flexibility Score: inf
ROOT
ATOM      1  C   UNL     1       5.538   1.917   1.259  1.00  0.00     0.080 C 
ENDROOT
BRANCH   1   2
ATOM      2  C   UNL     1       5.096   0.708   2.008  1.00  0.00     0.130 C 
ATOM      3  C   UNL     1       5.987  -0.470   2.187  1.00  0.00     0.087 C 
ATOM      4  O   UNL     1       3.981   0.648   2.500  1.00  0.00    -0.300 OA
ENDBRANCH   1   2
BRANCH   1   5
ATOM      5  C   UNL     1       5.404   1.717  -0.238  1.00  0.00     0.043 C 
BRANCH   5   6
ATOM      6  C   UNL     1       6.573   1.018  -0.802  1.00  0.00    -0.044 A 
ATOM      7  C   UNL     1       7.879   1.457  -0.556  1.00  0.00     0.008 A 
ATOM      8  C   UNL     1       6.387  -0.095  -1.590  1.00  0.00     0.054 A 
ATOM      9  C   UNL     1       8.937   0.760  -1.112  1.00  0.00     0.051 A 
ATOM     10  C   UNL     1       7.460  -0.796  -2.149  1.00  0.00     0.166 A 
ATOM     11  C   UNL     1       8.745  -0.364  -1.908  1.00  0.00     0.165 A 
ATOM     12  O   UNL     1       7.536  -1.913  -2.954  1.00  0.00    -0.454 OA
ATOM     13  O   UNL     1       9.592  -1.234  -2.576  1.00  0.00    -0.454 OA
ATOM     14  C   UNL     1       8.872  -2.284  -3.178  1.00  0.00     0.468 C 
ENDBRANCH   5   6
ENDBRANCH   1   5
TORSDOF 3
ENDMDL
