MODEL 1
REMARK VINA RESULT:      -7.9      0.000      0.000
REMARK SMILES CC(=O)CCc1ccc2c(c1)OCO2
REMARK SMILES IDX 4 1 2 2 1 3 3 4 5 5 6 6 7 7 11 8 8 9 10 10 9 11 12 12 14 13
REMARK SMILES IDX 13 14
REMARK H PARENT
REMARK Flexibility Score: inf
ROOT
ATOM      1  C   UNL     1       5.480   2.231   1.250  1.00  0.00     0.080 C 
ENDROOT
BRANCH   1   2
ATOM      2  C   UNL     1       4.801   1.161   2.033  1.00  0.00     0.130 C 
ATOM      3  C   UNL     1       5.383  -0.201   2.163  1.00  0.00     0.087 C 
ATOM      4  O   UNL     1       3.738   1.375   2.595  1.00  0.00    -0.300 OA
ENDBRANCH   1   2
BRANCH   1   5
ATOM      5  C   UNL     1       5.357   1.984  -0.240  1.00  0.00     0.043 C 
BRANCH   5   6
ATOM      6  C   UNL     1       6.510   1.230  -0.766  1.00  0.00    -0.044 A 
ATOM      7  C   UNL     1       7.826   1.598  -0.464  1.00  0.00     0.008 A 
ATOM      8  C   UNL     1       6.298   0.135  -1.572  1.00  0.00     0.054 A 
ATOM      9  C   UNL     1       8.867   0.852  -0.986  1.00  0.00     0.051 A 
ATOM     10  C   UNL     1       7.354  -0.616  -2.097  1.00  0.00     0.166 A 
ATOM     11  C   UNL     1       8.649  -0.254  -1.801  1.00  0.00     0.165 A 
ATOM     12  O   UNL     1       7.403  -1.728  -2.910  1.00  0.00    -0.454 OA
ATOM     13  O   UNL     1       9.476  -1.161  -2.445  1.00  0.00    -0.454 OA
ATOM     14  C   UNL     1       8.726  -2.166  -3.085  1.00  0.00     0.468 C 
ENDBRANCH   5   6
ENDBRANCH   1   5
TORSDOF 3
ENDMDL
MODEL 2
REMARK VINA RESULT:      -7.5      2.494      2.958
REMARK SMILES CC(=O)CCc1ccc2c(c1)OCO2
REMARK SMILES IDX 4 1 2 2 1 3 3 4 5 5 6 6 7 7 11 8 8 9 10 10 9 11 12 12 14 13
REMARK SMILES IDX 13 14
REMARK H PARENT
REMARK Flexibility Score: inf
ROOT
ATOM      1  C   UNL     1       5.271   2.923   0.071  1.00  0.00     0.080 C 
ENDROOT
BRANCH   1   2
ATOM      2  C   UNL     1       6.249   3.791   0.784  1.00  0.00     0.130 C 
ATOM      3  C   UNL     1       6.601   3.561   2.210  1.00  0.00     0.087 C 
ATOM      4  O   UNL     1       6.792   4.723   0.213  1.00  0.00    -0.300 OA
ENDBRANCH   1   2
BRANCH   1   5
ATOM      5  C   UNL     1       5.070   1.608   0.798  1.00  0.00     0.043 C 
BRANCH   5   6
ATOM      6  C   UNL     1       5.939   0.547   0.258  1.00  0.00    -0.044 A 
ATOM      7  C   UNL     1       6.360   0.552  -1.076  1.00  0.00     0.008 A 
ATOM      8  C   UNL     1       6.354  -0.477   1.079  1.00  0.00     0.054 A 
ATOM      9  C   UNL     1       7.176  -0.470  -1.526  1.00  0.00     0.051 A 
ATOM     10  C   UNL     1       7.180  -1.508   0.619  1.00  0.00     0.166 A 
ATOM     11  C   UNL     1       7.594  -1.504  -0.694  1.00  0.00     0.165 A 
ATOM     12  O   UNL     1       7.720  -2.621   1.227  1.00  0.00    -0.454 OA
ATOM     13  O   UNL     1       8.389  -2.626  -0.867  1.00  0.00    -0.454 OA
ATOM     14  C   UNL     1       8.570  -3.313   0.349  1.00  0.00     0.468 C 
ENDBRANCH   5   6
ENDBRANCH   1   5
TORSDOF 3
ENDMDL
MODEL 3
REMARK VINA RESULT:      -7.2      2.146      2.895
REMARK SMILES CC(=O)CCc1ccc2c(c1)OCO2
REMARK SMILES IDX 4 1 2 2 1 3 3 4 5 5 6 6 7 7 11 8 8 9 10 10 9 11 12 12 14 13
REMARK SMILES IDX 13 14
REMARK H PARENT
REMARK Flexibility Score: inf
ROOT
ATOM      1  C   UNL     1       5.737   1.455  -0.568  1.00  0.00     0.080 C 
ENDROOT
BRANCH   1   2
ATOM      2  C   UNL     1       5.345   2.740   0.075  1.00  0.00     0.130 C 
ATOM      3  C   UNL     1       6.359   3.739   0.507  1.00  0.00     0.087 C 
ATOM      4  O   UNL     1       4.170   3.012   0.268  1.00  0.00    -0.300 OA
ENDBRANCH   1   2
BRANCH   1   5
ATOM      5  C   UNL     1       7.066   0.957  -0.036  1.00  0.00     0.043 C 
BRANCH   5   6
ATOM      6  C   UNL     1       7.479  -0.299  -0.688  1.00  0.00    -0.044 A 
ATOM      7  C   UNL     1       7.521  -0.421  -2.082  1.00  0.00     0.008 A 
ATOM      8  C   UNL     1       7.837  -1.382   0.081  1.00  0.00     0.054 A 
ATOM      9  C   UNL     1       7.918  -1.624  -2.638  1.00  0.00     0.051 A 
ATOM     10  C   UNL     1       8.238  -2.595  -0.486  1.00  0.00     0.166 A 
ATOM     11  C   UNL     1       8.279  -2.717  -1.857  1.00  0.00     0.165 A 
ATOM     12  O   UNL     1       8.635  -3.800   0.055  1.00  0.00    -0.454 OA
ATOM     13  O   UNL     1       8.705  -4.007  -2.132  1.00  0.00    -0.454 OA
ATOM     14  C   UNL     1       9.030  -4.698  -0.950  1.00  0.00     0.468 C 
ENDBRANCH   5   6
ENDBRANCH   1   5
TORSDOF 3
ENDMDL
