@<TRIPOS>MOLECULE
/home/cewinharhar/GITHUB/reincatalyze/data/processed/docking_pred/2023-May-22-1531_sub9_nm5_bs15_s42_ex16_mel10_mts1000_k50_ec02_g099_lra9e-4_lrc1e-3/b3efa5aa79561967f2a1346927635c3d7bfec8a2_ligand_9.pdbqt
 14 15 0 0 0
SMALL
GASTEIGER

@<TRIPOS>ATOM
      1  C          5.2710    2.9230    0.0710 C.3     1  UNL1        0.0800
      2  C          6.2490    3.7910    0.7840 C.2     1  UNL1        0.1300
      3  C          6.6010    3.5610    2.2100 C.3     1  UNL1        0.0870
      4  O          6.7920    4.7230    0.2130 O.2     1  UNL1       -0.3000
      5  C          5.0700    1.6080    0.7980 C.3     1  UNL1        0.0430
      6  C          5.9390    0.5470    0.2580 C.2     1  UNL1       -0.0440
      7  C          6.3600    0.5520   -1.0760 C.2     1  UNL1        0.0080
      8  C          6.3540   -0.4770    1.0790 C.2     1  UNL1        0.0540
      9  C          7.1760   -0.4700   -1.5260 C.2     1  UNL1        0.0510
     10  C          7.1800   -1.5080    0.6190 C.2     1  UNL1        0.1660
     11  C          7.5940   -1.5040   -0.6940 C.2     1  UNL1        0.1650
     12  O          7.7200   -2.6210    1.2270 O.2     1  UNL1       -0.4540
     13  O          8.3890   -2.6260   -0.8670 O.2     1  UNL1       -0.4540
     14  C          8.5700   -3.3130    0.3490 C.3     1  UNL1        0.4680
@<TRIPOS>BOND
     1     9     7    1
     2     9    11    2
     3     7     6    2
     4    13    11    1
     5    13    14    1
     6    11    10    1
     7     1     2    1
     8     1     5    1
     9     4     2    2
    10     6     5    1
    11     6     8    1
    12    14    12    1
    13    10     8    2
    14    10    12    1
    15     2     3    1
