@<TRIPOS>MOLECULE
/home/cewinharhar/GITHUB/reincatalyze/data/processed/docking_pred/2023-May-22-1531_sub9_nm5_bs15_s42_ex16_mel10_mts1000_k50_ec02_g099_lra9e-4_lrc1e-3/b3efa5aa79561967f2a1346927635c3d7bfec8a2_ligand_9.pdbqt
 14 15 0 0 0
SMALL
GASTEIGER

@<TRIPOS>ATOM
      1  C          5.4800    2.2310    1.2500 C.3     1  UNL1        0.0800
      2  C          4.8010    1.1610    2.0330 C.2     1  UNL1        0.1300
      3  C          5.3830   -0.2010    2.1630 C.3     1  UNL1        0.0870
      4  O          3.7380    1.3750    2.5950 O.2     1  UNL1       -0.3000
      5  C          5.3570    1.9840   -0.2400 C.3     1  UNL1        0.0430
      6  C          6.5100    1.2300   -0.7660 C.2     1  UNL1       -0.0440
      7  C          7.8260    1.5980   -0.4640 C.2     1  UNL1        0.0080
      8  C          6.2980    0.1350   -1.5720 C.2     1  UNL1        0.0540
      9  C          8.8670    0.8520   -0.9860 C.2     1  UNL1        0.0510
     10  C          7.3540   -0.6160   -2.0970 C.2     1  UNL1        0.1660
     11  C          8.6490   -0.2540   -1.8010 C.2     1  UNL1        0.1650
     12  O          7.4030   -1.7280   -2.9100 O.2     1  UNL1       -0.4540
     13  O          9.4760   -1.1610   -2.4450 O.2     1  UNL1       -0.4540
     14  C          8.7260   -2.1660   -3.0850 C.3     1  UNL1        0.4680
@<TRIPOS>BOND
     1    14    12    1
     2    14    13    1
     3    12    10    1
     4    13    11    1
     5    10    11    2
     6    10     8    1
     7    11     9    1
     8     8     6    2
     9     9     7    2
    10     6     7    1
    11     6     5    1
    12     5     1    1
    13     1     2    1
    14     2     3    1
    15     2     4    2
