@<TRIPOS>MOLECULE
/home/cewinharhar/GITHUB/reincatalyze/data/processed/docking_pred/2023-May-22-1531_sub9_nm5_bs15_s42_ex16_mel10_mts1000_k50_ec02_g099_lra9e-4_lrc1e-3/b58c38953477011b0b30fd8623da0ee842eab33b_ligand_9.pdbqt
 14 15 0 0 0
SMALL
GASTEIGER

@<TRIPOS>ATOM
      1  C          5.5260    1.9040    1.2810 C.3     1  UNL1        0.0800
      2  C          5.0850    0.6850    2.0160 C.2     1  UNL1        0.1300
      3  C          5.9790   -0.4920    2.1820 C.3     1  UNL1        0.0870
      4  O          3.9700    0.6180    2.5060 O.2     1  UNL1       -0.3000
      5  C          5.3960    1.7200   -0.2180 C.3     1  UNL1        0.0430
      6  C          6.5630    1.0210   -0.7850 C.2     1  UNL1       -0.0440
      7  C          7.8700    1.4590   -0.5410 C.2     1  UNL1        0.0080
      8  C          6.3760   -0.0910   -1.5740 C.2     1  UNL1        0.0540
      9  C          8.9270    0.7640   -1.0990 C.2     1  UNL1        0.0510
     10  C          7.4470   -0.7910   -2.1360 C.2     1  UNL1        0.1660
     11  C          8.7330   -0.3600   -1.8970 C.2     1  UNL1        0.1650
     12  O          7.5210   -1.9070   -2.9430 O.2     1  UNL1       -0.4540
     13  O          9.5790   -1.2300   -2.5680 O.2     1  UNL1       -0.4540
     14  C          8.8570   -2.2780   -3.1690 C.3     1  UNL1        0.4680
@<TRIPOS>BOND
     1    14    12    1
     2    14    13    1
     3    12    10    1
     4    13    11    1
     5    10    11    2
     6    10     8    1
     7    11     9    1
     8     8     6    2
     9     9     7    2
    10     6     7    1
    11     6     5    1
    12     5     1    1
    13     1     2    1
    14     2     3    1
    15     2     4    2
