MODEL 1
REMARK VINA RESULT:      -7.9      0.000      0.000
REMARK SMILES CC(=O)CCc1ccc2c(c1)OCO2
REMARK SMILES IDX 4 1 2 2 1 3 3 4 5 5 6 6 7 7 11 8 8 9 10 10 9 11 12 12 14 13
REMARK SMILES IDX 13 14
REMARK H PARENT
REMARK Flexibility Score: inf
ROOT
ATOM      1  C   UNL     1       5.438   2.899   0.132  1.00  0.00     0.080 C 
ENDROOT
BRANCH   1   2
ATOM      2  C   UNL     1       6.272   3.820   0.953  1.00  0.00     0.130 C 
ATOM      3  C   UNL     1       7.231   4.771   0.328  1.00  0.00     0.087 C 
ATOM      4  O   UNL     1       6.193   3.820   2.170  1.00  0.00    -0.300 OA
ENDBRANCH   1   2
BRANCH   1   5
ATOM      5  C   UNL     1       5.216   1.578   0.842  1.00  0.00     0.043 C 
BRANCH   5   6
ATOM      6  C   UNL     1       6.065   0.509   0.287  1.00  0.00    -0.044 A 
ATOM      7  C   UNL     1       6.424  -0.611   1.046  1.00  0.00     0.008 A 
ATOM      8  C   UNL     1       6.521   0.603  -1.008  1.00  0.00     0.054 A 
ATOM      9  C   UNL     1       7.223  -1.583   0.472  1.00  0.00     0.051 A 
ATOM     10  C   UNL     1       7.328  -0.382  -1.584  1.00  0.00     0.166 A 
ATOM     11  C   UNL     1       7.682  -1.484  -0.838  1.00  0.00     0.165 A 
ATOM     12  O   UNL     1       7.901  -0.517  -2.831  1.00  0.00    -0.454 OA
ATOM     13  O   UNL     1       8.472  -2.282  -1.651  1.00  0.00    -0.454 OA
ATOM     14  C   UNL     1       8.561  -1.751  -2.952  1.00  0.00     0.468 C 
ENDBRANCH   5   6
ENDBRANCH   1   5
TORSDOF 3
ENDMDL
MODEL 2
REMARK VINA RESULT:      -7.7      1.900      2.616
REMARK SMILES CC(=O)CCc1ccc2c(c1)OCO2
REMARK SMILES IDX 4 1 2 2 1 3 3 4 5 5 6 6 7 7 11 8 8 9 10 10 9 11 12 12 14 13
REMARK SMILES IDX 13 14
REMARK H PARENT
REMARK Flexibility Score: inf
ROOT
ATOM      1  C   UNL     1       5.526   1.904   1.281  1.00  0.00     0.080 C 
ENDROOT
BRANCH   1   2
ATOM      2  C   UNL     1       5.085   0.685   2.016  1.00  0.00     0.130 C 
ATOM      3  C   UNL     1       5.979  -0.492   2.182  1.00  0.00     0.087 C 
ATOM      4  O   UNL     1       3.970   0.618   2.506  1.00  0.00    -0.300 OA
ENDBRANCH   1   2
BRANCH   1   5
ATOM      5  C   UNL     1       5.396   1.720  -0.218  1.00  0.00     0.043 C 
BRANCH   5   6
ATOM      6  C   UNL     1       6.563   1.021  -0.785  1.00  0.00    -0.044 A 
ATOM      7  C   UNL     1       7.870   1.459  -0.541  1.00  0.00     0.008 A 
ATOM      8  C   UNL     1       6.376  -0.091  -1.574  1.00  0.00     0.054 A 
ATOM      9  C   UNL     1       8.927   0.764  -1.099  1.00  0.00     0.051 A 
ATOM     10  C   UNL     1       7.447  -0.791  -2.136  1.00  0.00     0.166 A 
ATOM     11  C   UNL     1       8.733  -0.360  -1.897  1.00  0.00     0.165 A 
ATOM     12  O   UNL     1       7.521  -1.907  -2.943  1.00  0.00    -0.454 OA
ATOM     13  O   UNL     1       9.579  -1.230  -2.568  1.00  0.00    -0.454 OA
ATOM     14  C   UNL     1       8.857  -2.278  -3.169  1.00  0.00     0.468 C 
ENDBRANCH   5   6
ENDBRANCH   1   5
TORSDOF 3
ENDMDL
MODEL 3
REMARK VINA RESULT:      -7.5      1.982      3.024
REMARK SMILES CC(=O)CCc1ccc2c(c1)OCO2
REMARK SMILES IDX 4 1 2 2 1 3 3 4 5 5 6 6 7 7 11 8 8 9 10 10 9 11 12 12 14 13
REMARK SMILES IDX 13 14
REMARK H PARENT
REMARK Flexibility Score: inf
ROOT
ATOM      1  C   UNL     1       5.790   1.376  -0.382  1.00  0.00     0.080 C 
ENDROOT
BRANCH   1   2
ATOM      2  C   UNL     1       5.124   1.340   0.950  1.00  0.00     0.130 C 
ATOM      3  C   UNL     1       5.367   0.234   1.914  1.00  0.00     0.087 C 
ATOM      4  O   UNL     1       4.353   2.222   1.289  1.00  0.00    -0.300 OA
ENDBRANCH   1   2
BRANCH   1   5
ATOM      5  C   UNL     1       7.276   1.100  -0.262  1.00  0.00     0.043 C 
BRANCH   5   6
ATOM      6  C   UNL     1       7.642  -0.193  -0.868  1.00  0.00    -0.044 A 
ATOM      7  C   UNL     1       7.725  -0.355  -2.255  1.00  0.00     0.008 A 
ATOM      8  C   UNL     1       7.912  -1.273  -0.059  1.00  0.00     0.054 A 
ATOM      9  C   UNL     1       8.074  -1.591  -2.767  1.00  0.00     0.051 A 
ATOM     10  C   UNL     1       8.265  -2.521  -0.581  1.00  0.00     0.166 A 
ATOM     11  C   UNL     1       8.347  -2.681  -1.946  1.00  0.00     0.165 A 
ATOM     12  O   UNL     1       8.576  -3.730   0.004  1.00  0.00    -0.454 OA
ATOM     13  O   UNL     1       8.711  -3.999  -2.174  1.00  0.00    -0.454 OA
ATOM     14  C   UNL     1       8.955  -4.676  -0.963  1.00  0.00     0.468 C 
ENDBRANCH   5   6
ENDBRANCH   1   5
TORSDOF 3
ENDMDL
