@<TRIPOS>MOLECULE
/home/cewinharhar/GITHUB/reincatalyze/data/processed/docking_pred/2023-May-22-1531_sub9_nm5_bs15_s42_ex16_mel10_mts1000_k50_ec02_g099_lra9e-4_lrc1e-3/b5f7d4a2d914252a6bbd971338c7ac1ea6a3e46f_ligand_9.pdbqt
 14 15 0 0 0
SMALL
GASTEIGER

@<TRIPOS>ATOM
      1  C          5.4380    3.1400   -0.0430 C.3     1  UNL1        0.0800
      2  C          6.3220    3.8700    0.9070 C.2     1  UNL1        0.1300
      3  C          7.4030    4.7740    0.4310 C.3     1  UNL1        0.0870
      4  O          6.1850    3.7450    2.1140 O.2     1  UNL1       -0.3000
      5  C          4.9930    1.8090    0.5300 C.3     1  UNL1        0.0430
      6  C          5.8720    0.7070    0.0980 C.2     1  UNL1       -0.0440
      7  C          6.3450    0.6200   -1.2160 C.2     1  UNL1        0.0080
      8  C          6.2430   -0.2630    1.0000 C.2     1  UNL1        0.0540
      9  C          7.1680   -0.4360   -1.5640 C.2     1  UNL1        0.0510
     10  C          7.0750   -1.3290    0.6440 C.2     1  UNL1        0.1660
     11  C          7.5410   -1.4160   -0.6490 C.2     1  UNL1        0.1650
     12  O          7.5790   -2.4030    1.3450 O.2     1  UNL1       -0.4540
     13  O          8.3300   -2.5540   -0.7150 O.2     1  UNL1       -0.4540
     14  C          8.4550   -3.1590    0.5490 C.3     1  UNL1        0.4680
@<TRIPOS>BOND
     1     9     7    1
     2     9    11    2
     3     7     6    2
     4    13    11    1
     5    13    14    1
     6    11    10    1
     7     1     5    1
     8     1     2    1
     9     6     5    1
    10     6     8    1
    11     3     2    1
    12    14    12    1
    13    10     8    2
    14    10    12    1
    15     2     4    2
