@<TRIPOS>MOLECULE
/home/cewinharhar/GITHUB/reincatalyze/data/processed/docking_pred/2023-May-22-1531_sub9_nm5_bs15_s42_ex16_mel10_mts1000_k50_ec02_g099_lra9e-4_lrc1e-3/b5f7d4a2d914252a6bbd971338c7ac1ea6a3e46f_ligand_9.pdbqt
 14 15 0 0 0
SMALL
GASTEIGER

@<TRIPOS>ATOM
      1  C          5.4490    2.9210    0.0730 C.3     1  UNL1        0.0800
      2  C          6.2990    3.8040    0.9200 C.2     1  UNL1        0.1300
      3  C          7.2550    4.7740    0.3230 C.3     1  UNL1        0.0870
      4  O          6.2350    3.7550    2.1380 O.2     1  UNL1       -0.3000
      5  C          5.1430    1.6130    0.7750 C.3     1  UNL1        0.0430
      6  C          5.9770    0.5110    0.2630 C.2     1  UNL1       -0.0440
      7  C          6.2980   -0.5960    1.0580 C.2     1  UNL1        0.0080
      8  C          6.4540    0.5590   -1.0270 C.2     1  UNL1        0.0540
      9  C          7.0830   -1.6010    0.5240 C.2     1  UNL1        0.0510
     10  C          7.2470   -0.4600   -1.5630 C.2     1  UNL1        0.1660
     11  C          7.5650   -1.5490   -0.7810 C.2     1  UNL1        0.1650
     12  O          7.8360   -0.6430   -2.7960 O.2     1  UNL1       -0.4540
     13  O          8.3490   -2.3860   -1.5590 O.2     1  UNL1       -0.4540
     14  C          8.4700   -1.8940   -2.8720 C.3     1  UNL1        0.4680
@<TRIPOS>BOND
     1    14    12    1
     2    14    13    1
     3    12    10    1
     4    10     8    1
     5    10    11    2
     6    13    11    1
     7     8     6    2
     8    11     9    1
     9     1     5    1
    10     1     2    1
    11     6     5    1
    12     6     7    1
    13     3     2    1
    14     9     7    2
    15     2     4    2
