MODEL 1
REMARK VINA RESULT:      -8.0      0.000      0.000
REMARK SMILES CC(=O)CCc1ccc2c(c1)OCO2
REMARK SMILES IDX 4 1 2 2 1 3 3 4 5 5 6 6 7 7 11 8 8 9 10 10 9 11 12 12 14 13
REMARK SMILES IDX 13 14
REMARK H PARENT
REMARK Flexibility Score: inf
ROOT
ATOM      1  C   UNL     1       5.449   2.921   0.073  1.00  0.00     0.080 C 
ENDROOT
BRANCH   1   2
ATOM      2  C   UNL     1       6.299   3.804   0.920  1.00  0.00     0.130 C 
ATOM      3  C   UNL     1       7.255   4.774   0.323  1.00  0.00     0.087 C 
ATOM      4  O   UNL     1       6.235   3.755   2.138  1.00  0.00    -0.300 OA
ENDBRANCH   1   2
BRANCH   1   5
ATOM      5  C   UNL     1       5.143   1.613   0.775  1.00  0.00     0.043 C 
BRANCH   5   6
ATOM      6  C   UNL     1       5.977   0.511   0.263  1.00  0.00    -0.044 A 
ATOM      7  C   UNL     1       6.298  -0.596   1.058  1.00  0.00     0.008 A 
ATOM      8  C   UNL     1       6.454   0.559  -1.027  1.00  0.00     0.054 A 
ATOM      9  C   UNL     1       7.083  -1.601   0.524  1.00  0.00     0.051 A 
ATOM     10  C   UNL     1       7.247  -0.460  -1.563  1.00  0.00     0.166 A 
ATOM     11  C   UNL     1       7.565  -1.549  -0.781  1.00  0.00     0.165 A 
ATOM     12  O   UNL     1       7.836  -0.643  -2.796  1.00  0.00    -0.454 OA
ATOM     13  O   UNL     1       8.349  -2.386  -1.559  1.00  0.00    -0.454 OA
ATOM     14  C   UNL     1       8.470  -1.894  -2.872  1.00  0.00     0.468 C 
ENDBRANCH   5   6
ENDBRANCH   1   5
TORSDOF 3
ENDMDL
MODEL 2
REMARK VINA RESULT:      -7.7      1.884      2.637
REMARK SMILES CC(=O)CCc1ccc2c(c1)OCO2
REMARK SMILES IDX 4 1 2 2 1 3 3 4 5 5 6 6 7 7 11 8 8 9 10 10 9 11 12 12 14 13
REMARK SMILES IDX 13 14
REMARK H PARENT
REMARK Flexibility Score: inf
ROOT
ATOM      1  C   UNL     1       5.547   1.916   1.271  1.00  0.00     0.080 C 
ENDROOT
BRANCH   1   2
ATOM      2  C   UNL     1       5.103   0.703   2.012  1.00  0.00     0.130 C 
ATOM      3  C   UNL     1       5.995  -0.474   2.190  1.00  0.00     0.087 C 
ATOM      4  O   UNL     1       3.985   0.640   2.498  1.00  0.00    -0.300 OA
ENDBRANCH   1   2
BRANCH   1   5
ATOM      5  C   UNL     1       5.413   1.725  -0.227  1.00  0.00     0.043 C 
BRANCH   5   6
ATOM      6  C   UNL     1       6.579   1.024  -0.795  1.00  0.00    -0.044 A 
ATOM      7  C   UNL     1       7.887   1.459  -0.550  1.00  0.00     0.008 A 
ATOM      8  C   UNL     1       6.388  -0.087  -1.584  1.00  0.00     0.054 A 
ATOM      9  C   UNL     1       8.941   0.760  -1.109  1.00  0.00     0.051 A 
ATOM     10  C   UNL     1       7.458  -0.791  -2.146  1.00  0.00     0.166 A 
ATOM     11  C   UNL     1       8.745  -0.363  -1.907  1.00  0.00     0.165 A 
ATOM     12  O   UNL     1       7.529  -1.906  -2.953  1.00  0.00    -0.454 OA
ATOM     13  O   UNL     1       9.588  -1.235  -2.578  1.00  0.00    -0.454 OA
ATOM     14  C   UNL     1       8.864  -2.281  -3.179  1.00  0.00     0.468 C 
ENDBRANCH   5   6
ENDBRANCH   1   5
TORSDOF 3
ENDMDL
MODEL 3
REMARK VINA RESULT:      -7.7      1.038      2.028
REMARK SMILES CC(=O)CCc1ccc2c(c1)OCO2
REMARK SMILES IDX 4 1 2 2 1 3 3 4 5 5 6 6 7 7 11 8 8 9 10 10 9 11 12 12 14 13
REMARK SMILES IDX 13 14
REMARK H PARENT
REMARK Flexibility Score: inf
ROOT
ATOM      1  C   UNL     1       5.438   3.140  -0.043  1.00  0.00     0.080 C 
ENDROOT
BRANCH   1   2
ATOM      2  C   UNL     1       6.322   3.870   0.907  1.00  0.00     0.130 C 
ATOM      3  C   UNL     1       7.403   4.774   0.431  1.00  0.00     0.087 C 
ATOM      4  O   UNL     1       6.185   3.745   2.114  1.00  0.00    -0.300 OA
ENDBRANCH   1   2
BRANCH   1   5
ATOM      5  C   UNL     1       4.993   1.809   0.530  1.00  0.00     0.043 C 
BRANCH   5   6
ATOM      6  C   UNL     1       5.872   0.707   0.098  1.00  0.00    -0.044 A 
ATOM      7  C   UNL     1       6.345   0.620  -1.216  1.00  0.00     0.008 A 
ATOM      8  C   UNL     1       6.243  -0.263   1.000  1.00  0.00     0.054 A 
ATOM      9  C   UNL     1       7.168  -0.436  -1.564  1.00  0.00     0.051 A 
ATOM     10  C   UNL     1       7.075  -1.329   0.644  1.00  0.00     0.166 A 
ATOM     11  C   UNL     1       7.541  -1.416  -0.649  1.00  0.00     0.165 A 
ATOM     12  O   UNL     1       7.579  -2.403   1.345  1.00  0.00    -0.454 OA
ATOM     13  O   UNL     1       8.330  -2.554  -0.715  1.00  0.00    -0.454 OA
ATOM     14  C   UNL     1       8.455  -3.159   0.549  1.00  0.00     0.468 C 
ENDBRANCH   5   6
ENDBRANCH   1   5
TORSDOF 3
ENDMDL
