@<TRIPOS>MOLECULE
/home/cewinharhar/GITHUB/reincatalyze/data/processed/docking_pred/2023-May-22-1531_sub9_nm5_bs15_s42_ex16_mel10_mts1000_k50_ec02_g099_lra9e-4_lrc1e-3/b5f7d4a2d914252a6bbd971338c7ac1ea6a3e46f_ligand_9.pdbqt
 14 15 0 0 0
SMALL
GASTEIGER

@<TRIPOS>ATOM
      1  C          5.5470    1.9160    1.2710 C.3     1  UNL1        0.0800
      2  C          5.1030    0.7030    2.0120 C.2     1  UNL1        0.1300
      3  C          5.9950   -0.4740    2.1900 C.3     1  UNL1        0.0870
      4  O          3.9850    0.6400    2.4980 O.2     1  UNL1       -0.3000
      5  C          5.4130    1.7250   -0.2270 C.3     1  UNL1        0.0430
      6  C          6.5790    1.0240   -0.7950 C.2     1  UNL1       -0.0440
      7  C          7.8870    1.4590   -0.5500 C.2     1  UNL1        0.0080
      8  C          6.3880   -0.0870   -1.5840 C.2     1  UNL1        0.0540
      9  C          8.9410    0.7600   -1.1090 C.2     1  UNL1        0.0510
     10  C          7.4580   -0.7910   -2.1460 C.2     1  UNL1        0.1660
     11  C          8.7450   -0.3630   -1.9070 C.2     1  UNL1        0.1650
     12  O          7.5290   -1.9060   -2.9530 O.2     1  UNL1       -0.4540
     13  O          9.5880   -1.2350   -2.5780 O.2     1  UNL1       -0.4540
     14  C          8.8640   -2.2810   -3.1790 C.3     1  UNL1        0.4680
@<TRIPOS>BOND
     1    14    12    1
     2    14    13    1
     3    12    10    1
     4    13    11    1
     5    10    11    2
     6    10     8    1
     7    11     9    1
     8     8     6    2
     9     9     7    2
    10     6     7    1
    11     6     5    1
    12     5     1    1
    13     1     2    1
    14     2     3    1
    15     2     4    2
