@<TRIPOS>MOLECULE
/home/cewinharhar/GITHUB/reincatalyze/data/processed/docking_pred/2023-May-22-1531_sub9_nm5_bs15_s42_ex16_mel10_mts1000_k50_ec02_g099_lra9e-4_lrc1e-3/b658f69152bbaa0d4df6d0fc1d77222c9f34aa3c_ligand_9.pdbqt
 14 15 0 0 0
SMALL
GASTEIGER

@<TRIPOS>ATOM
      1  C          5.4840    2.8680    0.2820 C.3     1  UNL1        0.0800
      2  C          6.2650    3.8560    1.0790 C.2     1  UNL1        0.1300
      3  C          7.2440    4.7750    0.4400 C.3     1  UNL1        0.0870
      4  O          6.1220    3.9380    2.2880 O.2     1  UNL1       -0.3000
      5  C          5.3080    1.5670    1.0390 C.3     1  UNL1        0.0430
      6  C          6.1160    0.4810    0.4530 C.2     1  UNL1       -0.0440
      7  C          6.5100   -0.6280    1.2100 C.2     1  UNL1        0.0080
      8  C          6.4940    0.5490   -0.8680 C.2     1  UNL1        0.0540
      9  C          7.2670   -1.6160    0.6070 C.2     1  UNL1        0.0510
     10  C          7.2580   -0.4530   -1.4730 C.2     1  UNL1        0.1660
     11  C          7.6480   -1.5440   -0.7300 C.2     1  UNL1        0.1650
     12  O          7.7550   -0.6150   -2.7490 O.2     1  UNL1       -0.4540
     13  O          8.3830   -2.3630   -1.5740 O.2     1  UNL1       -0.4540
     14  C          8.3980   -1.8560   -2.8870 C.3     1  UNL1        0.4680
@<TRIPOS>BOND
     1    14    12    1
     2    14    13    1
     3    12    10    1
     4    13    11    1
     5    10     8    1
     6    10    11    2
     7     8     6    2
     8    11     9    1
     9     1     5    1
    10     1     2    1
    11     3     2    1
    12     6     5    1
    13     6     7    1
    14     9     7    2
    15     2     4    2
