@<TRIPOS>MOLECULE
/home/cewinharhar/GITHUB/reincatalyze/data/processed/docking_pred/2023-May-22-1531_sub9_nm5_bs15_s42_ex16_mel10_mts1000_k50_ec02_g099_lra9e-4_lrc1e-3/b658f69152bbaa0d4df6d0fc1d77222c9f34aa3c_ligand_9.pdbqt
 14 15 0 0 0
SMALL
GASTEIGER

@<TRIPOS>ATOM
      1  C          5.7350    1.3340   -0.3360 C.3     1  UNL1        0.0800
      2  C          5.1520    1.3070    1.0340 C.2     1  UNL1        0.1300
      3  C          5.3630    0.1550    1.9500 C.3     1  UNL1        0.0870
      4  O          4.4790    2.2380    1.4470 O.2     1  UNL1       -0.3000
      5  C          7.2350    1.1170   -0.3000 C.3     1  UNL1        0.0430
      6  C          7.6150   -0.1740   -0.9010 C.2     1  UNL1       -0.0440
      7  C          7.7150   -0.3370   -2.2870 C.2     1  UNL1        0.0080
      8  C          7.8830   -1.2520   -0.0870 C.2     1  UNL1        0.0540
      9  C          8.0760   -1.5720   -2.7930 C.2     1  UNL1        0.0510
     10  C          8.2490   -2.4980   -0.6040 C.2     1  UNL1        0.1660
     11  C          8.3460   -2.6600   -1.9680 C.2     1  UNL1        0.1650
     12  O          8.5600   -3.7050   -0.0140 O.2     1  UNL1       -0.4540
     13  O          8.7200   -3.9760   -2.1900 O.2     1  UNL1       -0.4540
     14  C          8.9550   -4.6490   -0.9770 C.3     1  UNL1        0.4680
@<TRIPOS>BOND
     1     9     7    1
     2     9    11    2
     3     7     6    2
     4    13    11    1
     5    13    14    1
     6    11    10    1
     7    14    12    1
     8     6     5    1
     9     6     8    1
    10    10     8    2
    11    10    12    1
    12     1     5    1
    13     1     2    1
    14     2     4    2
    15     2     3    1
