MODEL 1
REMARK VINA RESULT:      -7.7      0.000      0.000
REMARK SMILES CC(=O)CCc1ccc2c(c1)OCO2
REMARK SMILES IDX 4 1 2 2 1 3 3 4 5 5 6 6 7 7 11 8 8 9 10 10 9 11 12 12 14 13
REMARK SMILES IDX 13 14
REMARK H PARENT
REMARK Flexibility Score: inf
ROOT
ATOM      1  C   UNL     1       5.484   2.868   0.282  1.00  0.00     0.080 C 
ENDROOT
BRANCH   1   2
ATOM      2  C   UNL     1       6.265   3.856   1.079  1.00  0.00     0.130 C 
ATOM      3  C   UNL     1       7.244   4.775   0.440  1.00  0.00     0.087 C 
ATOM      4  O   UNL     1       6.122   3.938   2.288  1.00  0.00    -0.300 OA
ENDBRANCH   1   2
BRANCH   1   5
ATOM      5  C   UNL     1       5.308   1.567   1.039  1.00  0.00     0.043 C 
BRANCH   5   6
ATOM      6  C   UNL     1       6.116   0.481   0.453  1.00  0.00    -0.044 A 
ATOM      7  C   UNL     1       6.510  -0.628   1.210  1.00  0.00     0.008 A 
ATOM      8  C   UNL     1       6.494   0.549  -0.868  1.00  0.00     0.054 A 
ATOM      9  C   UNL     1       7.267  -1.616   0.607  1.00  0.00     0.051 A 
ATOM     10  C   UNL     1       7.258  -0.453  -1.473  1.00  0.00     0.166 A 
ATOM     11  C   UNL     1       7.648  -1.544  -0.730  1.00  0.00     0.165 A 
ATOM     12  O   UNL     1       7.755  -0.615  -2.749  1.00  0.00    -0.454 OA
ATOM     13  O   UNL     1       8.383  -2.363  -1.574  1.00  0.00    -0.454 OA
ATOM     14  C   UNL     1       8.398  -1.856  -2.887  1.00  0.00     0.468 C 
ENDBRANCH   5   6
ENDBRANCH   1   5
TORSDOF 3
ENDMDL
MODEL 2
REMARK VINA RESULT:      -7.6      1.903      2.638
REMARK SMILES CC(=O)CCc1ccc2c(c1)OCO2
REMARK SMILES IDX 4 1 2 2 1 3 3 4 5 5 6 6 7 7 11 8 8 9 10 10 9 11 12 12 14 13
REMARK SMILES IDX 13 14
REMARK H PARENT
REMARK Flexibility Score: inf
ROOT
ATOM      1  C   UNL     1       5.504   1.924   1.255  1.00  0.00     0.080 C 
ENDROOT
BRANCH   1   2
ATOM      2  C   UNL     1       5.060   0.712   1.998  1.00  0.00     0.130 C 
ATOM      3  C   UNL     1       5.943  -0.475   2.154  1.00  0.00     0.087 C 
ATOM      4  O   UNL     1       3.951   0.657   2.502  1.00  0.00    -0.300 OA
ENDBRANCH   1   2
BRANCH   1   5
ATOM      5  C   UNL     1       5.382   1.728  -0.243  1.00  0.00     0.043 C 
BRANCH   5   6
ATOM      6  C   UNL     1       6.552   1.028  -0.800  1.00  0.00    -0.044 A 
ATOM      7  C   UNL     1       7.857   1.465  -0.546  1.00  0.00     0.008 A 
ATOM      8  C   UNL     1       6.370  -0.086  -1.588  1.00  0.00     0.054 A 
ATOM      9  C   UNL     1       8.918   0.767  -1.095  1.00  0.00     0.051 A 
ATOM     10  C   UNL     1       7.445  -0.789  -2.140  1.00  0.00     0.166 A 
ATOM     11  C   UNL     1       8.729  -0.358  -1.892  1.00  0.00     0.165 A 
ATOM     12  O   UNL     1       7.524  -1.906  -2.944  1.00  0.00    -0.454 OA
ATOM     13  O   UNL     1       9.579  -1.230  -2.555  1.00  0.00    -0.454 OA
ATOM     14  C   UNL     1       8.861  -2.279  -3.159  1.00  0.00     0.468 C 
ENDBRANCH   5   6
ENDBRANCH   1   5
TORSDOF 3
ENDMDL
MODEL 3
REMARK VINA RESULT:      -7.4      1.963      3.020
REMARK SMILES CC(=O)CCc1ccc2c(c1)OCO2
REMARK SMILES IDX 4 1 2 2 1 3 3 4 5 5 6 6 7 7 11 8 8 9 10 10 9 11 12 12 14 13
REMARK SMILES IDX 13 14
REMARK H PARENT
REMARK Flexibility Score: inf
ROOT
ATOM      1  C   UNL     1       5.735   1.334  -0.336  1.00  0.00     0.080 C 
ENDROOT
BRANCH   1   2
ATOM      2  C   UNL     1       5.152   1.307   1.034  1.00  0.00     0.130 C 
ATOM      3  C   UNL     1       5.363   0.155   1.950  1.00  0.00     0.087 C 
ATOM      4  O   UNL     1       4.479   2.238   1.447  1.00  0.00    -0.300 OA
ENDBRANCH   1   2
BRANCH   1   5
ATOM      5  C   UNL     1       7.235   1.117  -0.300  1.00  0.00     0.043 C 
BRANCH   5   6
ATOM      6  C   UNL     1       7.615  -0.174  -0.901  1.00  0.00    -0.044 A 
ATOM      7  C   UNL     1       7.715  -0.337  -2.287  1.00  0.00     0.008 A 
ATOM      8  C   UNL     1       7.883  -1.252  -0.087  1.00  0.00     0.054 A 
ATOM      9  C   UNL     1       8.076  -1.572  -2.793  1.00  0.00     0.051 A 
ATOM     10  C   UNL     1       8.249  -2.498  -0.604  1.00  0.00     0.166 A 
ATOM     11  C   UNL     1       8.346  -2.660  -1.968  1.00  0.00     0.165 A 
ATOM     12  O   UNL     1       8.560  -3.705  -0.014  1.00  0.00    -0.454 OA
ATOM     13  O   UNL     1       8.720  -3.976  -2.190  1.00  0.00    -0.454 OA
ATOM     14  C   UNL     1       8.955  -4.649  -0.977  1.00  0.00     0.468 C 
ENDBRANCH   5   6
ENDBRANCH   1   5
TORSDOF 3
ENDMDL
