MODEL 1
REMARK VINA RESULT:      -7.6      0.000      0.000
REMARK SMILES CC(=O)CCc1ccc2c(c1)OCO2
REMARK SMILES IDX 4 1 2 2 1 3 3 4 5 5 6 6 7 7 11 8 8 9 10 10 9 11 12 12 14 13
REMARK SMILES IDX 13 14
REMARK H PARENT
REMARK Flexibility Score: inf
ROOT
ATOM      1  C   UNL     1       5.546   1.907   1.277  1.00  0.00     0.080 C 
ENDROOT
BRANCH   1   2
ATOM      2  C   UNL     1       5.114   0.685   2.011  1.00  0.00     0.130 C 
ATOM      3  C   UNL     1       6.019  -0.484   2.182  1.00  0.00     0.087 C 
ATOM      4  O   UNL     1       3.997   0.607   2.497  1.00  0.00    -0.300 OA
ENDBRANCH   1   2
BRANCH   1   5
ATOM      5  C   UNL     1       5.416   1.722  -0.222  1.00  0.00     0.043 C 
BRANCH   5   6
ATOM      6  C   UNL     1       6.580   1.020  -0.790  1.00  0.00    -0.044 A 
ATOM      7  C   UNL     1       7.889   1.450  -0.541  1.00  0.00     0.008 A 
ATOM      8  C   UNL     1       6.389  -0.089  -1.583  1.00  0.00     0.054 A 
ATOM      9  C   UNL     1       8.943   0.751  -1.100  1.00  0.00     0.051 A 
ATOM     10  C   UNL     1       7.458  -0.793  -2.145  1.00  0.00     0.166 A 
ATOM     11  C   UNL     1       8.746  -0.369  -1.902  1.00  0.00     0.165 A 
ATOM     12  O   UNL     1       7.528  -1.906  -2.955  1.00  0.00    -0.454 OA
ATOM     13  O   UNL     1       9.588  -1.241  -2.574  1.00  0.00    -0.454 OA
ATOM     14  C   UNL     1       8.862  -2.283  -3.180  1.00  0.00     0.468 C 
ENDBRANCH   5   6
ENDBRANCH   1   5
TORSDOF 3
ENDMDL
MODEL 2
REMARK VINA RESULT:      -7.4      1.917      2.409
REMARK SMILES CC(=O)CCc1ccc2c(c1)OCO2
REMARK SMILES IDX 4 1 2 2 1 3 3 4 5 5 6 6 7 7 11 8 8 9 10 10 9 11 12 12 14 13
REMARK SMILES IDX 13 14
REMARK H PARENT
REMARK Flexibility Score: inf
ROOT
ATOM      1  C   UNL     1       5.746   1.338  -0.346  1.00  0.00     0.080 C 
ENDROOT
BRANCH   1   2
ATOM      2  C   UNL     1       5.133   1.295   1.011  1.00  0.00     0.130 C 
ATOM      3  C   UNL     1       5.355   0.149   1.933  1.00  0.00     0.087 C 
ATOM      4  O   UNL     1       4.426   2.207   1.409  1.00  0.00    -0.300 OA
ENDBRANCH   1   2
BRANCH   1   5
ATOM      5  C   UNL     1       7.238   1.076  -0.284  1.00  0.00     0.043 C 
BRANCH   5   6
ATOM      6  C   UNL     1       7.592  -0.216  -0.898  1.00  0.00    -0.044 A 
ATOM      7  C   UNL     1       7.614  -0.386  -2.288  1.00  0.00     0.008 A 
ATOM      8  C   UNL     1       7.911  -1.288  -0.096  1.00  0.00     0.054 A 
ATOM      9  C   UNL     1       7.955  -1.622  -2.807  1.00  0.00     0.051 A 
ATOM     10  C   UNL     1       8.255  -2.535  -0.626  1.00  0.00     0.166 A 
ATOM     11  C   UNL     1       8.277  -2.703  -1.993  1.00  0.00     0.165 A 
ATOM     12  O   UNL     1       8.607  -3.737  -0.049  1.00  0.00    -0.454 OA
ATOM     13  O   UNL     1       8.646  -4.018  -2.229  1.00  0.00    -0.454 OA
ATOM     14  C   UNL     1       8.953  -4.684  -1.027  1.00  0.00     0.468 C 
ENDBRANCH   5   6
ENDBRANCH   1   5
TORSDOF 3
ENDMDL
MODEL 3
REMARK VINA RESULT:      -7.2      2.174      2.784
REMARK SMILES CC(=O)CCc1ccc2c(c1)OCO2
REMARK SMILES IDX 4 1 2 2 1 3 3 4 5 5 6 6 7 7 11 8 8 9 10 10 9 11 12 12 14 13
REMARK SMILES IDX 13 14
REMARK H PARENT
REMARK Flexibility Score: inf
ROOT
ATOM      1  C   UNL     1       6.925   2.146  -0.090  1.00  0.00     0.080 C 
ENDROOT
BRANCH   1   2
ATOM      2  C   UNL     1       6.097   2.956   0.846  1.00  0.00     0.130 C 
ATOM      3  C   UNL     1       6.535   4.298   1.314  1.00  0.00     0.087 C 
ATOM      4  O   UNL     1       5.028   2.537   1.259  1.00  0.00    -0.300 OA
ENDBRANCH   1   2
BRANCH   1   5
ATOM      5  C   UNL     1       6.146   0.964  -0.633  1.00  0.00     0.043 C 
BRANCH   5   6
ATOM      6  C   UNL     1       6.824  -0.314  -0.350  1.00  0.00    -0.044 A 
ATOM      7  C   UNL     1       7.013  -0.769   0.959  1.00  0.00     0.008 A 
ATOM      8  C   UNL     1       7.284  -1.087  -1.392  1.00  0.00     0.054 A 
ATOM      9  C   UNL     1       7.656  -1.977   1.164  1.00  0.00     0.051 A 
ATOM     10  C   UNL     1       7.932  -2.307  -1.180  1.00  0.00     0.166 A 
ATOM     11  C   UNL     1       8.120  -2.756   0.108  1.00  0.00     0.165 A 
ATOM     12  O   UNL     1       8.473  -3.244  -2.035  1.00  0.00    -0.454 OA
ATOM     13  O   UNL     1       8.778  -3.972   0.017  1.00  0.00    -0.454 OA
ATOM     14  C   UNL     1       8.941  -4.363  -1.325  1.00  0.00     0.468 C 
ENDBRANCH   5   6
ENDBRANCH   1   5
TORSDOF 3
ENDMDL
