@<TRIPOS>MOLECULE
/home/cewinharhar/GITHUB/reincatalyze/data/processed/docking_pred/2023-May-22-1531_sub9_nm5_bs15_s42_ex16_mel10_mts1000_k50_ec02_g099_lra9e-4_lrc1e-3/b8d8050f43b71ccf975db7ed0a80e234855f027b_ligand_9.pdbqt
 14 15 0 0 0
SMALL
GASTEIGER

@<TRIPOS>ATOM
      1  C          6.9250    2.1460   -0.0900 C.3     1  UNL1        0.0800
      2  C          6.0970    2.9560    0.8460 C.2     1  UNL1        0.1300
      3  C          6.5350    4.2980    1.3140 C.3     1  UNL1        0.0870
      4  O          5.0280    2.5370    1.2590 O.2     1  UNL1       -0.3000
      5  C          6.1460    0.9640   -0.6330 C.3     1  UNL1        0.0430
      6  C          6.8240   -0.3140   -0.3500 C.2     1  UNL1       -0.0440
      7  C          7.0130   -0.7690    0.9590 C.2     1  UNL1        0.0080
      8  C          7.2840   -1.0870   -1.3920 C.2     1  UNL1        0.0540
      9  C          7.6560   -1.9770    1.1640 C.2     1  UNL1        0.0510
     10  C          7.9320   -2.3070   -1.1800 C.2     1  UNL1        0.1660
     11  C          8.1200   -2.7560    0.1080 C.2     1  UNL1        0.1650
     12  O          8.4730   -3.2440   -2.0350 O.2     1  UNL1       -0.4540
     13  O          8.7780   -3.9720    0.0170 O.2     1  UNL1       -0.4540
     14  C          8.9410   -4.3630   -1.3250 C.3     1  UNL1        0.4680
@<TRIPOS>BOND
     1    12    14    1
     2    12    10    1
     3     8    10    1
     4     8     6    2
     5    14    13    1
     6    10    11    2
     7     5     6    1
     8     5     1    1
     9     6     7    1
    10     1     2    1
    11    13    11    1
    12    11     9    1
    13     2     4    2
    14     2     3    1
    15     7     9    2
