@<TRIPOS>MOLECULE
/home/cewinharhar/GITHUB/reincatalyze/data/processed/docking_pred/2023-May-22-1531_sub9_nm5_bs15_s42_ex16_mel10_mts1000_k50_ec02_g099_lra9e-4_lrc1e-3/b8d8050f43b71ccf975db7ed0a80e234855f027b_ligand_9.pdbqt
 14 15 0 0 0
SMALL
GASTEIGER

@<TRIPOS>ATOM
      1  C          5.7460    1.3380   -0.3460 C.3     1  UNL1        0.0800
      2  C          5.1330    1.2950    1.0110 C.2     1  UNL1        0.1300
      3  C          5.3550    0.1490    1.9330 C.3     1  UNL1        0.0870
      4  O          4.4260    2.2070    1.4090 O.2     1  UNL1       -0.3000
      5  C          7.2380    1.0760   -0.2840 C.3     1  UNL1        0.0430
      6  C          7.5920   -0.2160   -0.8980 C.2     1  UNL1       -0.0440
      7  C          7.6140   -0.3860   -2.2880 C.2     1  UNL1        0.0080
      8  C          7.9110   -1.2880   -0.0960 C.2     1  UNL1        0.0540
      9  C          7.9550   -1.6220   -2.8070 C.2     1  UNL1        0.0510
     10  C          8.2550   -2.5350   -0.6260 C.2     1  UNL1        0.1660
     11  C          8.2770   -2.7030   -1.9930 C.2     1  UNL1        0.1650
     12  O          8.6070   -3.7370   -0.0490 O.2     1  UNL1       -0.4540
     13  O          8.6460   -4.0180   -2.2290 O.2     1  UNL1       -0.4540
     14  C          8.9530   -4.6840   -1.0270 C.3     1  UNL1        0.4680
@<TRIPOS>BOND
     1     9     7    1
     2     9    11    2
     3     7     6    2
     4    13    11    1
     5    13    14    1
     6    11    10    1
     7    14    12    1
     8     6     5    1
     9     6     8    1
    10    10     8    2
    11    10    12    1
    12     1     5    1
    13     1     2    1
    14     2     4    2
    15     2     3    1
