@<TRIPOS>MOLECULE
/home/cewinharhar/GITHUB/reincatalyze/data/processed/docking_pred/2023-May-22-1531_sub9_nm5_bs15_s42_ex16_mel10_mts1000_k50_ec02_g099_lra9e-4_lrc1e-3/ba254a63d1f23417312e0ffefa4719b754a9a4bf_ligand_9.pdbqt
 14 15 0 0 0
SMALL
GASTEIGER

@<TRIPOS>ATOM
      1  C          5.4350    2.9330    0.1230 C.3     1  UNL1        0.0800
      2  C          6.2860    3.8270    0.9560 C.2     1  UNL1        0.1300
      3  C          7.2590    4.7720    0.3440 C.3     1  UNL1        0.0870
      4  O          6.2100    3.8100    2.1740 O.2     1  UNL1       -0.3000
      5  C          5.1380    1.6310    0.8400 C.3     1  UNL1        0.0430
      6  C          5.9730    0.5260    0.3360 C.2     1  UNL1       -0.0440
      7  C          6.3150   -0.5640    1.1450 C.2     1  UNL1        0.0080
      8  C          6.4310    0.5550   -0.9620 C.2     1  UNL1        0.0540
      9  C          7.1010   -1.5720    0.6160 C.2     1  UNL1        0.0510
     10  C          7.2240   -0.4670   -1.4920 C.2     1  UNL1        0.1660
     11  C          7.5620   -1.5390   -0.6960 C.2     1  UNL1        0.1650
     12  O          7.7950   -0.6670   -2.7310 O.2     1  UNL1       -0.4540
     13  O          8.3410   -2.3840   -1.4710 O.2     1  UNL1       -0.4540
     14  C          8.4380   -1.9140   -2.7940 C.3     1  UNL1        0.4680
@<TRIPOS>BOND
     1    14    12    1
     2    14    13    1
     3    12    10    1
     4    10     8    1
     5    10    11    2
     6    13    11    1
     7     8     6    2
     8    11     9    1
     9     1     5    1
    10     1     2    1
    11     6     5    1
    12     6     7    1
    13     3     2    1
    14     9     7    2
    15     2     4    2
