MODEL 1
REMARK VINA RESULT:      -7.9      0.000      0.000
REMARK SMILES CC(=O)CCc1ccc2c(c1)OCO2
REMARK SMILES IDX 4 1 2 2 1 3 3 4 5 5 6 6 7 7 11 8 8 9 10 10 9 11 12 12 14 13
REMARK SMILES IDX 13 14
REMARK H PARENT
REMARK Flexibility Score: inf
ROOT
ATOM      1  C   UNL     1       5.435   2.933   0.123  1.00  0.00     0.080 C 
ENDROOT
BRANCH   1   2
ATOM      2  C   UNL     1       6.286   3.827   0.956  1.00  0.00     0.130 C 
ATOM      3  C   UNL     1       7.259   4.772   0.344  1.00  0.00     0.087 C 
ATOM      4  O   UNL     1       6.210   3.810   2.174  1.00  0.00    -0.300 OA
ENDBRANCH   1   2
BRANCH   1   5
ATOM      5  C   UNL     1       5.138   1.631   0.840  1.00  0.00     0.043 C 
BRANCH   5   6
ATOM      6  C   UNL     1       5.973   0.526   0.336  1.00  0.00    -0.044 A 
ATOM      7  C   UNL     1       6.315  -0.564   1.145  1.00  0.00     0.008 A 
ATOM      8  C   UNL     1       6.431   0.555  -0.962  1.00  0.00     0.054 A 
ATOM      9  C   UNL     1       7.101  -1.572   0.616  1.00  0.00     0.051 A 
ATOM     10  C   UNL     1       7.224  -0.467  -1.492  1.00  0.00     0.166 A 
ATOM     11  C   UNL     1       7.562  -1.539  -0.696  1.00  0.00     0.165 A 
ATOM     12  O   UNL     1       7.795  -0.667  -2.731  1.00  0.00    -0.454 OA
ATOM     13  O   UNL     1       8.341  -2.384  -1.471  1.00  0.00    -0.454 OA
ATOM     14  C   UNL     1       8.438  -1.914  -2.794  1.00  0.00     0.468 C 
ENDBRANCH   5   6
ENDBRANCH   1   5
TORSDOF 3
ENDMDL
MODEL 2
REMARK VINA RESULT:      -7.6      1.892      2.651
REMARK SMILES CC(=O)CCc1ccc2c(c1)OCO2
REMARK SMILES IDX 4 1 2 2 1 3 3 4 5 5 6 6 7 7 11 8 8 9 10 10 9 11 12 12 14 13
REMARK SMILES IDX 13 14
REMARK H PARENT
REMARK Flexibility Score: inf
ROOT
ATOM      1  C   UNL     1       5.514   1.919   1.261  1.00  0.00     0.080 C 
ENDROOT
BRANCH   1   2
ATOM      2  C   UNL     1       5.069   0.707   2.002  1.00  0.00     0.130 C 
ATOM      3  C   UNL     1       5.954  -0.477   2.166  1.00  0.00     0.087 C 
ATOM      4  O   UNL     1       3.956   0.650   2.499  1.00  0.00    -0.300 OA
ENDBRANCH   1   2
BRANCH   1   5
ATOM      5  C   UNL     1       5.389   1.726  -0.237  1.00  0.00     0.043 C 
BRANCH   5   6
ATOM      6  C   UNL     1       6.558   1.025  -0.798  1.00  0.00    -0.044 A 
ATOM      7  C   UNL     1       7.863   1.464  -0.551  1.00  0.00     0.008 A 
ATOM      8  C   UNL     1       6.372  -0.090  -1.583  1.00  0.00     0.054 A 
ATOM      9  C   UNL     1       8.922   0.766  -1.103  1.00  0.00     0.051 A 
ATOM     10  C   UNL     1       7.446  -0.793  -2.138  1.00  0.00     0.166 A 
ATOM     11  C   UNL     1       8.731  -0.361  -1.897  1.00  0.00     0.165 A 
ATOM     12  O   UNL     1       7.522  -1.912  -2.940  1.00  0.00    -0.454 OA
ATOM     13  O   UNL     1       9.579  -1.234  -2.561  1.00  0.00    -0.454 OA
ATOM     14  C   UNL     1       8.859  -2.284  -3.160  1.00  0.00     0.468 C 
ENDBRANCH   5   6
ENDBRANCH   1   5
TORSDOF 3
ENDMDL
MODEL 3
REMARK VINA RESULT:      -7.5      1.949      3.037
REMARK SMILES CC(=O)CCc1ccc2c(c1)OCO2
REMARK SMILES IDX 4 1 2 2 1 3 3 4 5 5 6 6 7 7 11 8 8 9 10 10 9 11 12 12 14 13
REMARK SMILES IDX 13 14
REMARK H PARENT
REMARK Flexibility Score: inf
ROOT
ATOM      1  C   UNL     1       5.747   1.308  -0.308  1.00  0.00     0.080 C 
ENDROOT
BRANCH   1   2
ATOM      2  C   UNL     1       5.170   1.289   1.065  1.00  0.00     0.130 C 
ATOM      3  C   UNL     1       5.320   0.110   1.959  1.00  0.00     0.087 C 
ATOM      4  O   UNL     1       4.553   2.249   1.499  1.00  0.00    -0.300 OA
ENDBRANCH   1   2
BRANCH   1   5
ATOM      5  C   UNL     1       7.247   1.090  -0.279  1.00  0.00     0.043 C 
BRANCH   5   6
ATOM      6  C   UNL     1       7.623  -0.202  -0.880  1.00  0.00    -0.044 A 
ATOM      7  C   UNL     1       7.711  -0.368  -2.267  1.00  0.00     0.008 A 
ATOM      8  C   UNL     1       7.899  -1.278  -0.067  1.00  0.00     0.054 A 
ATOM      9  C   UNL     1       8.069  -1.604  -2.773  1.00  0.00     0.051 A 
ATOM     10  C   UNL     1       8.262  -2.525  -0.584  1.00  0.00     0.166 A 
ATOM     11  C   UNL     1       8.347  -2.689  -1.949  1.00  0.00     0.165 A 
ATOM     12  O   UNL     1       8.580  -3.730   0.005  1.00  0.00    -0.454 OA
ATOM     13  O   UNL     1       8.721  -4.005  -2.172  1.00  0.00    -0.454 OA
ATOM     14  C   UNL     1       8.968  -4.676  -0.959  1.00  0.00     0.468 C 
ENDBRANCH   5   6
ENDBRANCH   1   5
TORSDOF 3
ENDMDL
