@<TRIPOS>MOLECULE
/home/cewinharhar/GITHUB/reincatalyze/data/processed/docking_pred/2023-May-22-1531_sub9_nm5_bs15_s42_ex16_mel10_mts1000_k50_ec02_g099_lra9e-4_lrc1e-3/ba254a63d1f23417312e0ffefa4719b754a9a4bf_ligand_9.pdbqt
 14 15 0 0 0
SMALL
GASTEIGER

@<TRIPOS>ATOM
      1  C          5.5140    1.9190    1.2610 C.3     1  UNL1        0.0800
      2  C          5.0690    0.7070    2.0020 C.2     1  UNL1        0.1300
      3  C          5.9540   -0.4770    2.1660 C.3     1  UNL1        0.0870
      4  O          3.9560    0.6500    2.4990 O.2     1  UNL1       -0.3000
      5  C          5.3890    1.7260   -0.2370 C.3     1  UNL1        0.0430
      6  C          6.5580    1.0250   -0.7980 C.2     1  UNL1       -0.0440
      7  C          7.8630    1.4640   -0.5510 C.2     1  UNL1        0.0080
      8  C          6.3720   -0.0900   -1.5830 C.2     1  UNL1        0.0540
      9  C          8.9220    0.7660   -1.1030 C.2     1  UNL1        0.0510
     10  C          7.4460   -0.7930   -2.1380 C.2     1  UNL1        0.1660
     11  C          8.7310   -0.3610   -1.8970 C.2     1  UNL1        0.1650
     12  O          7.5220   -1.9120   -2.9400 O.2     1  UNL1       -0.4540
     13  O          9.5790   -1.2340   -2.5610 O.2     1  UNL1       -0.4540
     14  C          8.8590   -2.2840   -3.1600 C.3     1  UNL1        0.4680
@<TRIPOS>BOND
     1    14    12    1
     2    14    13    1
     3    12    10    1
     4    13    11    1
     5    10    11    2
     6    10     8    1
     7    11     9    1
     8     8     6    2
     9     9     7    2
    10     6     7    1
    11     6     5    1
    12     5     1    1
    13     1     2    1
    14     2     3    1
    15     2     4    2
