@<TRIPOS>MOLECULE
/home/cewinharhar/GITHUB/reincatalyze/data/processed/docking_pred/2023-May-22-1531_sub9_nm5_bs15_s42_ex16_mel10_mts1000_k50_ec02_g099_lra9e-4_lrc1e-3/bb8285001221c2ec88d34c7e342a921234d5c761_ligand_9.pdbqt
 14 15 0 0 0
SMALL
GASTEIGER

@<TRIPOS>ATOM
      1  C          5.5310    1.9240    1.2560 C.3     1  UNL1        0.0800
      2  C          5.0920    0.7140    2.0050 C.2     1  UNL1        0.1300
      3  C          5.9860   -0.4610    2.1840 C.3     1  UNL1        0.0870
      4  O          3.9760    0.6530    2.4970 O.2     1  UNL1       -0.3000
      5  C          5.4000    1.7230   -0.2410 C.3     1  UNL1        0.0430
      6  C          6.5690    1.0230   -0.8020 C.2     1  UNL1       -0.0440
      7  C          7.8750    1.4600   -0.5530 C.2     1  UNL1        0.0080
      8  C          6.3840   -0.0910   -1.5900 C.2     1  UNL1        0.0540
      9  C          8.9340    0.7620   -1.1060 C.2     1  UNL1        0.0510
     10  C          7.4580   -0.7930   -2.1460 C.2     1  UNL1        0.1660
     11  C          8.7430   -0.3620   -1.9020 C.2     1  UNL1        0.1650
     12  O          7.5340   -1.9100   -2.9510 O.2     1  UNL1       -0.4540
     13  O          9.5900   -1.2340   -2.5680 O.2     1  UNL1       -0.4540
     14  C          8.8700   -2.2820   -3.1710 C.3     1  UNL1        0.4680
@<TRIPOS>BOND
     1    14    12    1
     2    14    13    1
     3    12    10    1
     4    13    11    1
     5    10    11    2
     6    10     8    1
     7    11     9    1
     8     8     6    2
     9     9     7    2
    10     6     7    1
    11     6     5    1
    12     5     1    1
    13     1     2    1
    14     2     3    1
    15     2     4    2
