@<TRIPOS>MOLECULE
/home/cewinharhar/GITHUB/reincatalyze/data/processed/docking_pred/2023-May-22-1531_sub9_nm5_bs15_s42_ex16_mel10_mts1000_k50_ec02_g099_lra9e-4_lrc1e-3/bb8285001221c2ec88d34c7e342a921234d5c761_ligand_9.pdbqt
 14 15 0 0 0
SMALL
GASTEIGER

@<TRIPOS>ATOM
      1  C          5.4240    2.9220    0.2520 C.3     1  UNL1        0.0800
      2  C          6.2610    3.8740    1.0340 C.2     1  UNL1        0.1300
      3  C          7.2430    4.7750    0.3730 C.3     1  UNL1        0.0870
      4  O          6.1640    3.9420    2.2480 O.2     1  UNL1       -0.3000
      5  C          5.2170    1.6240    1.0060 C.3     1  UNL1        0.0430
      6  C          6.0480    0.5360    0.4610 C.2     1  UNL1       -0.0440
      7  C          6.4340   -0.5560    1.2470 C.2     1  UNL1        0.0080
      8  C          6.4590    0.5830   -0.8520 C.2     1  UNL1        0.0540
      9  C          7.2140   -1.5480    0.6810 C.2     1  UNL1        0.0510
     10  C          7.2470   -0.4220   -1.4190 C.2     1  UNL1        0.1660
     11  C          7.6280   -1.4960   -0.6460 C.2     1  UNL1        0.1650
     12  O          7.7760   -0.6020   -2.6800 O.2     1  UNL1       -0.4540
     13  O          8.3900   -2.3230   -1.4570 O.2     1  UNL1       -0.4540
     14  C          8.4340   -1.8390   -2.7780 C.3     1  UNL1        0.4680
@<TRIPOS>BOND
     1    14    12    1
     2    14    13    1
     3    12    10    1
     4    13    11    1
     5    10     8    1
     6    10    11    2
     7     8     6    2
     8    11     9    1
     9     1     5    1
    10     1     2    1
    11     3     2    1
    12     6     5    1
    13     6     7    1
    14     9     7    2
    15     2     4    2
