@<TRIPOS>MOLECULE
/home/cewinharhar/GITHUB/reincatalyze/data/processed/docking_pred/2023-May-22-1531_sub9_nm5_bs15_s42_ex16_mel10_mts1000_k50_ec02_g099_lra9e-4_lrc1e-3/bb8285001221c2ec88d34c7e342a921234d5c761_ligand_9.pdbqt
 14 15 0 0 0
SMALL
GASTEIGER

@<TRIPOS>ATOM
      1  C          5.7710    1.3600   -0.3730 C.3     1  UNL1        0.0800
      2  C          5.1350    1.3280    0.9740 C.2     1  UNL1        0.1300
      3  C          5.3970    0.2230    1.9350 C.3     1  UNL1        0.0870
      4  O          4.3740    2.2130    1.3290 O.2     1  UNL1       -0.3000
      5  C          7.2620    1.1040   -0.2830 C.3     1  UNL1        0.0430
      6  C          7.6310   -0.1910   -0.8830 C.2     1  UNL1       -0.0440
      7  C          7.7100   -0.3600   -2.2700 C.2     1  UNL1        0.0080
      8  C          7.9090   -1.2650   -0.0690 C.2     1  UNL1        0.0540
      9  C          8.0630   -1.5980   -2.7760 C.2     1  UNL1        0.0510
     10  C          8.2650   -2.5150   -0.5850 C.2     1  UNL1        0.1660
     11  C          8.3420   -2.6830   -1.9500 C.2     1  UNL1        0.1650
     12  O          8.5830   -3.7190    0.0050 O.2     1  UNL1       -0.4540
     13  O          8.7110   -4.0000   -2.1710 O.2     1  UNL1       -0.4540
     14  C          8.9620   -4.6690   -0.9580 C.3     1  UNL1        0.4680
@<TRIPOS>BOND
     1     9     7    1
     2     9    11    2
     3     7     6    2
     4    13    11    1
     5    13    14    1
     6    11    10    1
     7    14    12    1
     8     6     5    1
     9     6     8    1
    10    10     8    2
    11    10    12    1
    12     1     5    1
    13     1     2    1
    14     2     4    2
    15     2     3    1
