MODEL 1
REMARK VINA RESULT:      -7.8      0.000      0.000
REMARK SMILES CC(=O)CCc1ccc2c(c1)OCO2
REMARK SMILES IDX 4 1 2 2 1 3 3 4 5 5 6 6 7 7 11 8 8 9 10 10 9 11 12 12 14 13
REMARK SMILES IDX 13 14
REMARK H PARENT
REMARK Flexibility Score: inf
ROOT
ATOM      1  C   UNL     1       5.424   2.922   0.252  1.00  0.00     0.080 C 
ENDROOT
BRANCH   1   2
ATOM      2  C   UNL     1       6.261   3.874   1.034  1.00  0.00     0.130 C 
ATOM      3  C   UNL     1       7.243   4.775   0.373  1.00  0.00     0.087 C 
ATOM      4  O   UNL     1       6.164   3.942   2.248  1.00  0.00    -0.300 OA
ENDBRANCH   1   2
BRANCH   1   5
ATOM      5  C   UNL     1       5.217   1.624   1.006  1.00  0.00     0.043 C 
BRANCH   5   6
ATOM      6  C   UNL     1       6.048   0.536   0.461  1.00  0.00    -0.044 A 
ATOM      7  C   UNL     1       6.434  -0.556   1.247  1.00  0.00     0.008 A 
ATOM      8  C   UNL     1       6.459   0.583  -0.852  1.00  0.00     0.054 A 
ATOM      9  C   UNL     1       7.214  -1.548   0.681  1.00  0.00     0.051 A 
ATOM     10  C   UNL     1       7.247  -0.422  -1.419  1.00  0.00     0.166 A 
ATOM     11  C   UNL     1       7.628  -1.496  -0.646  1.00  0.00     0.165 A 
ATOM     12  O   UNL     1       7.776  -0.602  -2.680  1.00  0.00    -0.454 OA
ATOM     13  O   UNL     1       8.390  -2.323  -1.457  1.00  0.00    -0.454 OA
ATOM     14  C   UNL     1       8.434  -1.839  -2.778  1.00  0.00     0.468 C 
ENDBRANCH   5   6
ENDBRANCH   1   5
TORSDOF 3
ENDMDL
MODEL 2
REMARK VINA RESULT:      -7.6      1.912      2.658
REMARK SMILES CC(=O)CCc1ccc2c(c1)OCO2
REMARK SMILES IDX 4 1 2 2 1 3 3 4 5 5 6 6 7 7 11 8 8 9 10 10 9 11 12 12 14 13
REMARK SMILES IDX 13 14
REMARK H PARENT
REMARK Flexibility Score: inf
ROOT
ATOM      1  C   UNL     1       5.531   1.924   1.256  1.00  0.00     0.080 C 
ENDROOT
BRANCH   1   2
ATOM      2  C   UNL     1       5.092   0.714   2.005  1.00  0.00     0.130 C 
ATOM      3  C   UNL     1       5.986  -0.461   2.184  1.00  0.00     0.087 C 
ATOM      4  O   UNL     1       3.976   0.653   2.497  1.00  0.00    -0.300 OA
ENDBRANCH   1   2
BRANCH   1   5
ATOM      5  C   UNL     1       5.400   1.723  -0.241  1.00  0.00     0.043 C 
BRANCH   5   6
ATOM      6  C   UNL     1       6.569   1.023  -0.802  1.00  0.00    -0.044 A 
ATOM      7  C   UNL     1       7.875   1.460  -0.553  1.00  0.00     0.008 A 
ATOM      8  C   UNL     1       6.384  -0.091  -1.590  1.00  0.00     0.054 A 
ATOM      9  C   UNL     1       8.934   0.762  -1.106  1.00  0.00     0.051 A 
ATOM     10  C   UNL     1       7.458  -0.793  -2.146  1.00  0.00     0.166 A 
ATOM     11  C   UNL     1       8.743  -0.362  -1.902  1.00  0.00     0.165 A 
ATOM     12  O   UNL     1       7.534  -1.910  -2.951  1.00  0.00    -0.454 OA
ATOM     13  O   UNL     1       9.590  -1.234  -2.568  1.00  0.00    -0.454 OA
ATOM     14  C   UNL     1       8.870  -2.282  -3.171  1.00  0.00     0.468 C 
ENDBRANCH   5   6
ENDBRANCH   1   5
TORSDOF 3
ENDMDL
MODEL 3
REMARK VINA RESULT:      -7.4      1.982      3.052
REMARK SMILES CC(=O)CCc1ccc2c(c1)OCO2
REMARK SMILES IDX 4 1 2 2 1 3 3 4 5 5 6 6 7 7 11 8 8 9 10 10 9 11 12 12 14 13
REMARK SMILES IDX 13 14
REMARK H PARENT
REMARK Flexibility Score: inf
ROOT
ATOM      1  C   UNL     1       5.771   1.360  -0.373  1.00  0.00     0.080 C 
ENDROOT
BRANCH   1   2
ATOM      2  C   UNL     1       5.135   1.328   0.974  1.00  0.00     0.130 C 
ATOM      3  C   UNL     1       5.397   0.223   1.935  1.00  0.00     0.087 C 
ATOM      4  O   UNL     1       4.374   2.213   1.329  1.00  0.00    -0.300 OA
ENDBRANCH   1   2
BRANCH   1   5
ATOM      5  C   UNL     1       7.262   1.104  -0.283  1.00  0.00     0.043 C 
BRANCH   5   6
ATOM      6  C   UNL     1       7.631  -0.191  -0.883  1.00  0.00    -0.044 A 
ATOM      7  C   UNL     1       7.710  -0.360  -2.270  1.00  0.00     0.008 A 
ATOM      8  C   UNL     1       7.909  -1.265  -0.069  1.00  0.00     0.054 A 
ATOM      9  C   UNL     1       8.063  -1.598  -2.776  1.00  0.00     0.051 A 
ATOM     10  C   UNL     1       8.265  -2.515  -0.585  1.00  0.00     0.166 A 
ATOM     11  C   UNL     1       8.342  -2.683  -1.950  1.00  0.00     0.165 A 
ATOM     12  O   UNL     1       8.583  -3.719   0.005  1.00  0.00    -0.454 OA
ATOM     13  O   UNL     1       8.711  -4.000  -2.171  1.00  0.00    -0.454 OA
ATOM     14  C   UNL     1       8.962  -4.669  -0.958  1.00  0.00     0.468 C 
ENDBRANCH   5   6
ENDBRANCH   1   5
TORSDOF 3
ENDMDL
