MODEL 1
REMARK VINA RESULT:      -7.7      0.000      0.000
REMARK SMILES CC(=O)CCc1ccc2c(c1)OCO2
REMARK SMILES IDX 4 1 2 2 1 3 3 4 5 5 6 6 7 7 11 8 8 9 10 10 9 11 12 12 14 13
REMARK SMILES IDX 13 14
REMARK H PARENT
REMARK Flexibility Score: inf
ROOT
ATOM      1  C   UNL     1       5.489   2.868   0.332  1.00  0.00     0.080 C 
ENDROOT
BRANCH   1   2
ATOM      2  C   UNL     1       6.288   3.890   1.064  1.00  0.00     0.130 C 
ATOM      3  C   UNL     1       7.256   4.774   0.361  1.00  0.00     0.087 C 
ATOM      4  O   UNL     1       6.170   4.033   2.270  1.00  0.00    -0.300 OA
ENDBRANCH   1   2
BRANCH   1   5
ATOM      5  C   UNL     1       5.365   1.588   1.136  1.00  0.00     0.043 C 
BRANCH   5   6
ATOM      6  C   UNL     1       6.147   0.490   0.540  1.00  0.00    -0.044 A 
ATOM      7  C   UNL     1       6.551  -0.616   1.295  1.00  0.00     0.008 A 
ATOM      8  C   UNL     1       6.492   0.543  -0.792  1.00  0.00     0.054 A 
ATOM      9  C   UNL     1       7.283  -1.617   0.681  1.00  0.00     0.051 A 
ATOM     10  C   UNL     1       7.231  -0.471  -1.408  1.00  0.00     0.166 A 
ATOM     11  C   UNL     1       7.630  -1.560  -0.665  1.00  0.00     0.165 A 
ATOM     12  O   UNL     1       7.692  -0.648  -2.695  1.00  0.00    -0.454 OA
ATOM     13  O   UNL     1       8.334  -2.392  -1.521  1.00  0.00    -0.454 OA
ATOM     14  C   UNL     1       8.320  -1.897  -2.838  1.00  0.00     0.468 C 
ENDBRANCH   5   6
ENDBRANCH   1   5
TORSDOF 3
ENDMDL
MODEL 2
REMARK VINA RESULT:      -7.7      1.931      2.680
REMARK SMILES CC(=O)CCc1ccc2c(c1)OCO2
REMARK SMILES IDX 4 1 2 2 1 3 3 4 5 5 6 6 7 7 11 8 8 9 10 10 9 11 12 12 14 13
REMARK SMILES IDX 13 14
REMARK H PARENT
REMARK Flexibility Score: inf
ROOT
ATOM      1  C   UNL     1       5.513   1.921   1.258  1.00  0.00     0.080 C 
ENDROOT
BRANCH   1   2
ATOM      2  C   UNL     1       5.071   0.706   1.997  1.00  0.00     0.130 C 
ATOM      3  C   UNL     1       5.959  -0.476   2.161  1.00  0.00     0.087 C 
ATOM      4  O   UNL     1       3.957   0.645   2.494  1.00  0.00    -0.300 OA
ENDBRANCH   1   2
BRANCH   1   5
ATOM      5  C   UNL     1       5.389   1.728  -0.241  1.00  0.00     0.043 C 
BRANCH   5   6
ATOM      6  C   UNL     1       6.559   1.029  -0.801  1.00  0.00    -0.044 A 
ATOM      7  C   UNL     1       7.864   1.468  -0.551  1.00  0.00     0.008 A 
ATOM      8  C   UNL     1       6.375  -0.086  -1.588  1.00  0.00     0.054 A 
ATOM      9  C   UNL     1       8.923   0.771  -1.103  1.00  0.00     0.051 A 
ATOM     10  C   UNL     1       7.450  -0.787  -2.143  1.00  0.00     0.166 A 
ATOM     11  C   UNL     1       8.734  -0.355  -1.899  1.00  0.00     0.165 A 
ATOM     12  O   UNL     1       7.528  -1.905  -2.946  1.00  0.00    -0.454 OA
ATOM     13  O   UNL     1       9.583  -1.226  -2.563  1.00  0.00    -0.454 OA
ATOM     14  C   UNL     1       8.865  -2.276  -3.165  1.00  0.00     0.468 C 
ENDBRANCH   5   6
ENDBRANCH   1   5
TORSDOF 3
ENDMDL
MODEL 3
REMARK VINA RESULT:      -7.5      1.971      3.047
REMARK SMILES CC(=O)CCc1ccc2c(c1)OCO2
REMARK SMILES IDX 4 1 2 2 1 3 3 4 5 5 6 6 7 7 11 8 8 9 10 10 9 11 12 12 14 13
REMARK SMILES IDX 13 14
REMARK H PARENT
REMARK Flexibility Score: inf
ROOT
ATOM      1  C   UNL     1       5.726   1.296  -0.317  1.00  0.00     0.080 C 
ENDROOT
BRANCH   1   2
ATOM      2  C   UNL     1       5.175   1.291   1.067  1.00  0.00     0.130 C 
ATOM      3  C   UNL     1       5.332   0.116   1.965  1.00  0.00     0.087 C 
ATOM      4  O   UNL     1       4.575   2.259   1.506  1.00  0.00    -0.300 OA
ENDBRANCH   1   2
BRANCH   1   5
ATOM      5  C   UNL     1       7.229   1.096  -0.312  1.00  0.00     0.043 C 
BRANCH   5   6
ATOM      6  C   UNL     1       7.609  -0.198  -0.906  1.00  0.00    -0.044 A 
ATOM      7  C   UNL     1       7.696  -0.372  -2.292  1.00  0.00     0.008 A 
ATOM      8  C   UNL     1       7.891  -1.268  -0.087  1.00  0.00     0.054 A 
ATOM      9  C   UNL     1       8.059  -1.609  -2.792  1.00  0.00     0.051 A 
ATOM     10  C   UNL     1       8.258  -2.517  -0.597  1.00  0.00     0.166 A 
ATOM     11  C   UNL     1       8.343  -2.689  -1.961  1.00  0.00     0.165 A 
ATOM     12  O   UNL     1       8.582  -3.717  -0.001  1.00  0.00    -0.454 OA
ATOM     13  O   UNL     1       8.721  -4.005  -2.176  1.00  0.00    -0.454 OA
ATOM     14  C   UNL     1       8.972  -4.667  -0.960  1.00  0.00     0.468 C 
ENDBRANCH   5   6
ENDBRANCH   1   5
TORSDOF 3
ENDMDL
