@<TRIPOS>MOLECULE
/home/cewinharhar/GITHUB/reincatalyze/data/processed/docking_pred/2023-May-22-1531_sub9_nm5_bs15_s42_ex16_mel10_mts1000_k50_ec02_g099_lra9e-4_lrc1e-3/bde4f716ac8ce10fa2b7126593b1b8cc9fcb83f2_ligand_9.pdbqt
 14 15 0 0 0
SMALL
GASTEIGER

@<TRIPOS>ATOM
      1  C          5.4890    2.8680    0.3320 C.3     1  UNL1        0.0800
      2  C          6.2880    3.8900    1.0640 C.2     1  UNL1        0.1300
      3  C          7.2560    4.7740    0.3610 C.3     1  UNL1        0.0870
      4  O          6.1700    4.0330    2.2700 O.2     1  UNL1       -0.3000
      5  C          5.3650    1.5880    1.1360 C.3     1  UNL1        0.0430
      6  C          6.1470    0.4900    0.5400 C.2     1  UNL1       -0.0440
      7  C          6.5510   -0.6160    1.2950 C.2     1  UNL1        0.0080
      8  C          6.4920    0.5430   -0.7920 C.2     1  UNL1        0.0540
      9  C          7.2830   -1.6170    0.6810 C.2     1  UNL1        0.0510
     10  C          7.2310   -0.4710   -1.4080 C.2     1  UNL1        0.1660
     11  C          7.6300   -1.5600   -0.6650 C.2     1  UNL1        0.1650
     12  O          7.6920   -0.6480   -2.6950 O.2     1  UNL1       -0.4540
     13  O          8.3340   -2.3920   -1.5210 O.2     1  UNL1       -0.4540
     14  C          8.3200   -1.8970   -2.8380 C.3     1  UNL1        0.4680
@<TRIPOS>BOND
     1    14    12    1
     2    14    13    1
     3    12    10    1
     4    13    11    1
     5    10     8    1
     6    10    11    2
     7     8     6    2
     8    11     9    1
     9     1     2    1
    10     1     5    1
    11     3     2    1
    12     6     5    1
    13     6     7    1
    14     9     7    2
    15     2     4    2
