@<TRIPOS>MOLECULE
/home/cewinharhar/GITHUB/reincatalyze/data/processed/docking_pred/2023-May-22-1531_sub9_nm5_bs15_s42_ex16_mel10_mts1000_k50_ec02_g099_lra9e-4_lrc1e-3/bde4f716ac8ce10fa2b7126593b1b8cc9fcb83f2_ligand_9.pdbqt
 14 15 0 0 0
SMALL
GASTEIGER

@<TRIPOS>ATOM
      1  C          5.5130    1.9210    1.2580 C.3     1  UNL1        0.0800
      2  C          5.0710    0.7060    1.9970 C.2     1  UNL1        0.1300
      3  C          5.9590   -0.4760    2.1610 C.3     1  UNL1        0.0870
      4  O          3.9570    0.6450    2.4940 O.2     1  UNL1       -0.3000
      5  C          5.3890    1.7280   -0.2410 C.3     1  UNL1        0.0430
      6  C          6.5590    1.0290   -0.8010 C.2     1  UNL1       -0.0440
      7  C          7.8640    1.4680   -0.5510 C.2     1  UNL1        0.0080
      8  C          6.3750   -0.0860   -1.5880 C.2     1  UNL1        0.0540
      9  C          8.9230    0.7710   -1.1030 C.2     1  UNL1        0.0510
     10  C          7.4500   -0.7870   -2.1430 C.2     1  UNL1        0.1660
     11  C          8.7340   -0.3550   -1.8990 C.2     1  UNL1        0.1650
     12  O          7.5280   -1.9050   -2.9460 O.2     1  UNL1       -0.4540
     13  O          9.5830   -1.2260   -2.5630 O.2     1  UNL1       -0.4540
     14  C          8.8650   -2.2760   -3.1650 C.3     1  UNL1        0.4680
@<TRIPOS>BOND
     1    14    12    1
     2    14    13    1
     3    12    10    1
     4    13    11    1
     5    10    11    2
     6    10     8    1
     7    11     9    1
     8     8     6    2
     9     9     7    2
    10     6     7    1
    11     6     5    1
    12     5     1    1
    13     1     2    1
    14     2     3    1
    15     2     4    2
