@<TRIPOS>MOLECULE
/home/cewinharhar/GITHUB/reincatalyze/data/processed/docking_pred/2023-May-22-1531_sub9_nm5_bs15_s42_ex16_mel10_mts1000_k50_ec02_g099_lra9e-4_lrc1e-3/bde4f716ac8ce10fa2b7126593b1b8cc9fcb83f2_ligand_9.pdbqt
 14 15 0 0 0
SMALL
GASTEIGER

@<TRIPOS>ATOM
      1  C          5.7260    1.2960   -0.3170 C.3     1  UNL1        0.0800
      2  C          5.1750    1.2910    1.0670 C.2     1  UNL1        0.1300
      3  C          5.3320    0.1160    1.9650 C.3     1  UNL1        0.0870
      4  O          4.5750    2.2590    1.5060 O.2     1  UNL1       -0.3000
      5  C          7.2290    1.0960   -0.3120 C.3     1  UNL1        0.0430
      6  C          7.6090   -0.1980   -0.9060 C.2     1  UNL1       -0.0440
      7  C          7.6960   -0.3720   -2.2920 C.2     1  UNL1        0.0080
      8  C          7.8910   -1.2680   -0.0870 C.2     1  UNL1        0.0540
      9  C          8.0590   -1.6090   -2.7920 C.2     1  UNL1        0.0510
     10  C          8.2580   -2.5170   -0.5970 C.2     1  UNL1        0.1660
     11  C          8.3430   -2.6890   -1.9610 C.2     1  UNL1        0.1650
     12  O          8.5820   -3.7170   -0.0010 O.2     1  UNL1       -0.4540
     13  O          8.7210   -4.0050   -2.1760 O.2     1  UNL1       -0.4540
     14  C          8.9720   -4.6670   -0.9600 C.3     1  UNL1        0.4680
@<TRIPOS>BOND
     1     9     7    1
     2     9    11    2
     3     7     6    2
     4    13    11    1
     5    13    14    1
     6    11    10    1
     7    14    12    1
     8     6     5    1
     9     6     8    1
    10    10     8    2
    11    10    12    1
    12     1     5    1
    13     1     2    1
    14     2     4    2
    15     2     3    1
