@<TRIPOS>MOLECULE
/home/cewinharhar/GITHUB/reincatalyze/data/processed/docking_pred/2023-May-22-1531_sub9_nm5_bs15_s42_ex16_mel10_mts1000_k50_ec02_g099_lra9e-4_lrc1e-3/bdfc35a41e3d78d3bf59a6b88613069133e00868_ligand_9.pdbqt
 14 15 0 0 0
SMALL
GASTEIGER

@<TRIPOS>ATOM
      1  C          5.4710    2.8770    0.1310 C.3     1  UNL1        0.0800
      2  C          6.3050    3.7820    0.9700 C.2     1  UNL1        0.1300
      3  C          7.2330    4.7740    0.3640 C.3     1  UNL1        0.0870
      4  O          6.2500    3.7350    2.1890 O.2     1  UNL1       -0.3000
      5  C          5.1710    1.5790    0.8530 C.3     1  UNL1        0.0430
      6  C          6.0100    0.4730    0.3600 C.2     1  UNL1       -0.0440
      7  C          6.4110   -0.5740    1.1990 C.2     1  UNL1        0.0080
      8  C          6.4140    0.4560   -0.9560 C.2     1  UNL1        0.0540
      9  C          7.1990   -1.5850    0.6810 C.2     1  UNL1        0.0510
     10  C          7.2090   -0.5690   -1.4750 C.2     1  UNL1        0.1660
     11  C          7.6050   -1.5980   -0.6500 C.2     1  UNL1        0.1650
     12  O          7.7340   -0.8090   -2.7270 O.2     1  UNL1       -0.4540
     13  O          8.3720   -2.4580   -1.4210 O.2     1  UNL1       -0.4540
     14  C          8.4040   -2.0430   -2.7660 C.3     1  UNL1        0.4680
@<TRIPOS>BOND
     1    14    12    1
     2    14    13    1
     3    12    10    1
     4    10     8    1
     5    10    11    2
     6    13    11    1
     7     8     6    2
     8    11     9    1
     9     1     5    1
    10     1     2    1
    11     6     5    1
    12     6     7    1
    13     3     2    1
    14     9     7    2
    15     2     4    2
