MODEL 1
REMARK VINA RESULT:      -7.9      0.000      0.000
REMARK SMILES CC(=O)CCc1ccc2c(c1)OCO2
REMARK SMILES IDX 4 1 2 2 1 3 3 4 5 5 6 6 7 7 11 8 8 9 10 10 9 11 12 12 14 13
REMARK SMILES IDX 13 14
REMARK H PARENT
REMARK Flexibility Score: inf
ROOT
ATOM      1  C   UNL     1       5.471   2.877   0.131  1.00  0.00     0.080 C 
ENDROOT
BRANCH   1   2
ATOM      2  C   UNL     1       6.305   3.782   0.970  1.00  0.00     0.130 C 
ATOM      3  C   UNL     1       7.233   4.774   0.364  1.00  0.00     0.087 C 
ATOM      4  O   UNL     1       6.250   3.735   2.189  1.00  0.00    -0.300 OA
ENDBRANCH   1   2
BRANCH   1   5
ATOM      5  C   UNL     1       5.171   1.579   0.853  1.00  0.00     0.043 C 
BRANCH   5   6
ATOM      6  C   UNL     1       6.010   0.473   0.360  1.00  0.00    -0.044 A 
ATOM      7  C   UNL     1       6.411  -0.574   1.199  1.00  0.00     0.008 A 
ATOM      8  C   UNL     1       6.414   0.456  -0.956  1.00  0.00     0.054 A 
ATOM      9  C   UNL     1       7.199  -1.585   0.681  1.00  0.00     0.051 A 
ATOM     10  C   UNL     1       7.209  -0.569  -1.475  1.00  0.00     0.166 A 
ATOM     11  C   UNL     1       7.605  -1.598  -0.650  1.00  0.00     0.165 A 
ATOM     12  O   UNL     1       7.734  -0.809  -2.727  1.00  0.00    -0.454 OA
ATOM     13  O   UNL     1       8.372  -2.458  -1.421  1.00  0.00    -0.454 OA
ATOM     14  C   UNL     1       8.404  -2.043  -2.766  1.00  0.00     0.468 C 
ENDBRANCH   5   6
ENDBRANCH   1   5
TORSDOF 3
ENDMDL
MODEL 2
REMARK VINA RESULT:      -7.7      1.884      2.630
REMARK SMILES CC(=O)CCc1ccc2c(c1)OCO2
REMARK SMILES IDX 4 1 2 2 1 3 3 4 5 5 6 6 7 7 11 8 8 9 10 10 9 11 12 12 14 13
REMARK SMILES IDX 13 14
REMARK H PARENT
REMARK Flexibility Score: inf
ROOT
ATOM      1  C   UNL     1       5.514   1.933   1.248  1.00  0.00     0.080 C 
ENDROOT
BRANCH   1   2
ATOM      2  C   UNL     1       5.087   0.717   1.995  1.00  0.00     0.130 C 
ATOM      3  C   UNL     1       5.997  -0.445   2.179  1.00  0.00     0.087 C 
ATOM      4  O   UNL     1       3.971   0.640   2.481  1.00  0.00    -0.300 OA
ENDBRANCH   1   2
BRANCH   1   5
ATOM      5  C   UNL     1       5.388   1.732  -0.249  1.00  0.00     0.043 C 
BRANCH   5   6
ATOM      6  C   UNL     1       6.558   1.030  -0.806  1.00  0.00    -0.044 A 
ATOM      7  C   UNL     1       7.864   1.465  -0.550  1.00  0.00     0.008 A 
ATOM      8  C   UNL     1       6.375  -0.082  -1.597  1.00  0.00     0.054 A 
ATOM      9  C   UNL     1       8.924   0.766  -1.100  1.00  0.00     0.051 A 
ATOM     10  C   UNL     1       7.450  -0.785  -2.149  1.00  0.00     0.166 A 
ATOM     11  C   UNL     1       8.734  -0.357  -1.899  1.00  0.00     0.165 A 
ATOM     12  O   UNL     1       7.527  -1.901  -2.955  1.00  0.00    -0.454 OA
ATOM     13  O   UNL     1       9.583  -1.229  -2.562  1.00  0.00    -0.454 OA
ATOM     14  C   UNL     1       8.864  -2.276  -3.169  1.00  0.00     0.468 C 
ENDBRANCH   5   6
ENDBRANCH   1   5
TORSDOF 3
ENDMDL
MODEL 3
REMARK VINA RESULT:      -7.6      1.931      3.004
REMARK SMILES CC(=O)CCc1ccc2c(c1)OCO2
REMARK SMILES IDX 4 1 2 2 1 3 3 4 5 5 6 6 7 7 11 8 8 9 10 10 9 11 12 12 14 13
REMARK SMILES IDX 13 14
REMARK H PARENT
REMARK Flexibility Score: inf
ROOT
ATOM      1  C   UNL     1       5.719   1.281  -0.312  1.00  0.00     0.080 C 
ENDROOT
BRANCH   1   2
ATOM      2  C   UNL     1       5.169   1.281   1.073  1.00  0.00     0.130 C 
ATOM      3  C   UNL     1       5.323   0.107   1.974  1.00  0.00     0.087 C 
ATOM      4  O   UNL     1       4.572   2.251   1.510  1.00  0.00    -0.300 OA
ENDBRANCH   1   2
BRANCH   1   5
ATOM      5  C   UNL     1       7.222   1.086  -0.307  1.00  0.00     0.043 C 
BRANCH   5   6
ATOM      6  C   UNL     1       7.607  -0.208  -0.899  1.00  0.00    -0.044 A 
ATOM      7  C   UNL     1       7.701  -0.381  -2.285  1.00  0.00     0.008 A 
ATOM      8  C   UNL     1       7.884  -1.278  -0.079  1.00  0.00     0.054 A 
ATOM      9  C   UNL     1       8.068  -1.618  -2.783  1.00  0.00     0.051 A 
ATOM     10  C   UNL     1       8.255  -2.526  -0.587  1.00  0.00     0.166 A 
ATOM     11  C   UNL     1       8.347  -2.698  -1.950  1.00  0.00     0.165 A 
ATOM     12  O   UNL     1       8.576  -3.727   0.010  1.00  0.00    -0.454 OA
ATOM     13  O   UNL     1       8.728  -4.014  -2.164  1.00  0.00    -0.454 OA
ATOM     14  C   UNL     1       8.972  -4.676  -0.946  1.00  0.00     0.468 C 
ENDBRANCH   5   6
ENDBRANCH   1   5
TORSDOF 3
ENDMDL
