@<TRIPOS>MOLECULE
/home/cewinharhar/GITHUB/reincatalyze/data/processed/docking_pred/2023-May-22-1531_sub9_nm5_bs15_s42_ex16_mel10_mts1000_k50_ec02_g099_lra9e-4_lrc1e-3/bef029ec7f2d3d0301694813bb63cef4e6663bb8_ligand_9.pdbqt
 14 15 0 0 0
SMALL
GASTEIGER

@<TRIPOS>ATOM
      1  C          5.5190    2.9920   -0.2130 C.3     1  UNL1        0.0800
      2  C          6.1900    3.8320    0.8180 C.2     1  UNL1        0.1300
      3  C          7.2850    4.7750    0.4650 C.3     1  UNL1        0.0870
      4  O          5.8570    3.7700    1.9900 O.2     1  UNL1       -0.3000
      5  C          5.0910    1.6550    0.3600 C.3     1  UNL1        0.0430
      6  C          5.9840    0.5650   -0.0700 C.2     1  UNL1       -0.0440
      7  C          6.4890    0.5010   -1.3740 C.2     1  UNL1        0.0080
      8  C          6.3390   -0.4190    0.8250 C.2     1  UNL1        0.0540
      9  C          7.3240   -0.5450   -1.7200 C.2     1  UNL1        0.0510
     10  C          7.1840   -1.4750    0.4700 C.2     1  UNL1        0.1660
     11  C          7.6800   -1.5390   -0.8130 C.2     1  UNL1        0.1650
     12  O          7.6760   -2.5590    1.1660 O.2     1  UNL1       -0.4540
     13  O          8.4760   -2.6710   -0.8790 O.2     1  UNL1       -0.4540
     14  C          8.5740   -3.2980    0.3780 C.3     1  UNL1        0.4680
@<TRIPOS>BOND
     1     9     7    1
     2     9    11    2
     3     7     6    2
     4    13    11    1
     5    13    14    1
     6    11    10    1
     7     1     5    1
     8     1     2    1
     9     6     5    1
    10     6     8    1
    11    14    12    1
    12     3     2    1
    13    10     8    2
    14    10    12    1
    15     2     4    2
