MODEL 1
REMARK VINA RESULT:      -7.8      0.000      0.000
REMARK SMILES CC(=O)CCc1ccc2c(c1)OCO2
REMARK SMILES IDX 4 1 2 2 1 3 3 4 5 5 6 6 7 7 11 8 8 9 10 10 9 11 12 12 14 13
REMARK SMILES IDX 13 14
REMARK H PARENT
REMARK Flexibility Score: inf
ROOT
ATOM      1  C   UNL     1       5.484   2.885   0.277  1.00  0.00     0.080 C 
ENDROOT
BRANCH   1   2
ATOM      2  C   UNL     1       6.295   3.876   1.038  1.00  0.00     0.130 C 
ATOM      3  C   UNL     1       7.268   4.774   0.361  1.00  0.00     0.087 C 
ATOM      4  O   UNL     1       6.183   3.979   2.249  1.00  0.00    -0.300 OA
ENDBRANCH   1   2
BRANCH   1   5
ATOM      5  C   UNL     1       5.308   1.600   1.061  1.00  0.00     0.043 C 
BRANCH   5   6
ATOM      6  C   UNL     1       6.110   0.500   0.496  1.00  0.00    -0.044 A 
ATOM      7  C   UNL     1       6.525  -0.582   1.279  1.00  0.00     0.008 A 
ATOM      8  C   UNL     1       6.462   0.528  -0.835  1.00  0.00     0.054 A 
ATOM      9  C   UNL     1       7.275  -1.586   0.693  1.00  0.00     0.051 A 
ATOM     10  C   UNL     1       7.220  -0.490  -1.422  1.00  0.00     0.166 A 
ATOM     11  C   UNL     1       7.630  -1.555  -0.652  1.00  0.00     0.165 A 
ATOM     12  O   UNL     1       7.693  -0.690  -2.702  1.00  0.00    -0.454 OA
ATOM     13  O   UNL     1       8.352  -2.396  -1.483  1.00  0.00    -0.454 OA
ATOM     14  C   UNL     1       8.340  -1.931  -2.812  1.00  0.00     0.468 C 
ENDBRANCH   5   6
ENDBRANCH   1   5
TORSDOF 3
ENDMDL
MODEL 2
REMARK VINA RESULT:      -7.6      1.923      2.670
REMARK SMILES CC(=O)CCc1ccc2c(c1)OCO2
REMARK SMILES IDX 4 1 2 2 1 3 3 4 5 5 6 6 7 7 11 8 8 9 10 10 9 11 12 12 14 13
REMARK SMILES IDX 13 14
REMARK H PARENT
REMARK Flexibility Score: inf
ROOT
ATOM      1  C   UNL     1       5.543   1.906   1.277  1.00  0.00     0.080 C 
ENDROOT
BRANCH   1   2
ATOM      2  C   UNL     1       5.113   0.684   2.011  1.00  0.00     0.130 C 
ATOM      3  C   UNL     1       6.018  -0.485   2.180  1.00  0.00     0.087 C 
ATOM      4  O   UNL     1       3.997   0.605   2.497  1.00  0.00    -0.300 OA
ENDBRANCH   1   2
BRANCH   1   5
ATOM      5  C   UNL     1       5.414   1.723  -0.222  1.00  0.00     0.043 C 
BRANCH   5   6
ATOM      6  C   UNL     1       6.579   1.020  -0.789  1.00  0.00    -0.044 A 
ATOM      7  C   UNL     1       7.887   1.450  -0.540  1.00  0.00     0.008 A 
ATOM      8  C   UNL     1       6.387  -0.088  -1.583  1.00  0.00     0.054 A 
ATOM      9  C   UNL     1       8.941   0.751  -1.099  1.00  0.00     0.051 A 
ATOM     10  C   UNL     1       7.456  -0.792  -2.145  1.00  0.00     0.166 A 
ATOM     11  C   UNL     1       8.744  -0.369  -1.901  1.00  0.00     0.165 A 
ATOM     12  O   UNL     1       7.526  -1.905  -2.956  1.00  0.00    -0.454 OA
ATOM     13  O   UNL     1       9.586  -1.241  -2.573  1.00  0.00    -0.454 OA
ATOM     14  C   UNL     1       8.860  -2.283  -3.180  1.00  0.00     0.468 C 
ENDBRANCH   5   6
ENDBRANCH   1   5
TORSDOF 3
ENDMDL
MODEL 3
REMARK VINA RESULT:      -7.6      1.030      1.996
REMARK SMILES CC(=O)CCc1ccc2c(c1)OCO2
REMARK SMILES IDX 4 1 2 2 1 3 3 4 5 5 6 6 7 7 11 8 8 9 10 10 9 11 12 12 14 13
REMARK SMILES IDX 13 14
REMARK H PARENT
REMARK Flexibility Score: inf
ROOT
ATOM      1  C   UNL     1       5.519   2.992  -0.213  1.00  0.00     0.080 C 
ENDROOT
BRANCH   1   2
ATOM      2  C   UNL     1       6.190   3.832   0.818  1.00  0.00     0.130 C 
ATOM      3  C   UNL     1       7.285   4.775   0.465  1.00  0.00     0.087 C 
ATOM      4  O   UNL     1       5.857   3.770   1.990  1.00  0.00    -0.300 OA
ENDBRANCH   1   2
BRANCH   1   5
ATOM      5  C   UNL     1       5.091   1.655   0.360  1.00  0.00     0.043 C 
BRANCH   5   6
ATOM      6  C   UNL     1       5.984   0.565  -0.070  1.00  0.00    -0.044 A 
ATOM      7  C   UNL     1       6.489   0.501  -1.374  1.00  0.00     0.008 A 
ATOM      8  C   UNL     1       6.339  -0.419   0.825  1.00  0.00     0.054 A 
ATOM      9  C   UNL     1       7.324  -0.545  -1.720  1.00  0.00     0.051 A 
ATOM     10  C   UNL     1       7.184  -1.475   0.470  1.00  0.00     0.166 A 
ATOM     11  C   UNL     1       7.680  -1.539  -0.813  1.00  0.00     0.165 A 
ATOM     12  O   UNL     1       7.676  -2.559   1.166  1.00  0.00    -0.454 OA
ATOM     13  O   UNL     1       8.476  -2.671  -0.879  1.00  0.00    -0.454 OA
ATOM     14  C   UNL     1       8.574  -3.298   0.378  1.00  0.00     0.468 C 
ENDBRANCH   5   6
ENDBRANCH   1   5
TORSDOF 3
ENDMDL
