@<TRIPOS>MOLECULE
/home/cewinharhar/GITHUB/reincatalyze/data/processed/docking_pred/2023-May-22-1531_sub9_nm5_bs15_s42_ex16_mel10_mts1000_k50_ec02_g099_lra9e-4_lrc1e-3/bef029ec7f2d3d0301694813bb63cef4e6663bb8_ligand_9.pdbqt
 14 15 0 0 0
SMALL
GASTEIGER

@<TRIPOS>ATOM
      1  C          5.5430    1.9060    1.2770 C.3     1  UNL1        0.0800
      2  C          5.1130    0.6840    2.0110 C.2     1  UNL1        0.1300
      3  C          6.0180   -0.4850    2.1800 C.3     1  UNL1        0.0870
      4  O          3.9970    0.6050    2.4970 O.2     1  UNL1       -0.3000
      5  C          5.4140    1.7230   -0.2220 C.3     1  UNL1        0.0430
      6  C          6.5790    1.0200   -0.7890 C.2     1  UNL1       -0.0440
      7  C          7.8870    1.4500   -0.5400 C.2     1  UNL1        0.0080
      8  C          6.3870   -0.0880   -1.5830 C.2     1  UNL1        0.0540
      9  C          8.9410    0.7510   -1.0990 C.2     1  UNL1        0.0510
     10  C          7.4560   -0.7920   -2.1450 C.2     1  UNL1        0.1660
     11  C          8.7440   -0.3690   -1.9010 C.2     1  UNL1        0.1650
     12  O          7.5260   -1.9050   -2.9560 O.2     1  UNL1       -0.4540
     13  O          9.5860   -1.2410   -2.5730 O.2     1  UNL1       -0.4540
     14  C          8.8600   -2.2830   -3.1800 C.3     1  UNL1        0.4680
@<TRIPOS>BOND
     1    14    12    1
     2    14    13    1
     3    12    10    1
     4    13    11    1
     5    10    11    2
     6    10     8    1
     7    11     9    1
     8     8     6    2
     9     9     7    2
    10     6     7    1
    11     6     5    1
    12     5     1    1
    13     1     2    1
    14     2     3    1
    15     2     4    2
