@<TRIPOS>MOLECULE
/home/cewinharhar/GITHUB/reincatalyze/data/processed/docking_pred/2023-May-22-1531_sub9_nm5_bs15_s42_ex16_mel10_mts1000_k50_ec02_g099_lra9e-4_lrc1e-3/bef029ec7f2d3d0301694813bb63cef4e6663bb8_ligand_9.pdbqt
 14 15 0 0 0
SMALL
GASTEIGER

@<TRIPOS>ATOM
      1  C          5.4840    2.8850    0.2770 C.3     1  UNL1        0.0800
      2  C          6.2950    3.8760    1.0380 C.2     1  UNL1        0.1300
      3  C          7.2680    4.7740    0.3610 C.3     1  UNL1        0.0870
      4  O          6.1830    3.9790    2.2490 O.2     1  UNL1       -0.3000
      5  C          5.3080    1.6000    1.0610 C.3     1  UNL1        0.0430
      6  C          6.1100    0.5000    0.4960 C.2     1  UNL1       -0.0440
      7  C          6.5250   -0.5820    1.2790 C.2     1  UNL1        0.0080
      8  C          6.4620    0.5280   -0.8350 C.2     1  UNL1        0.0540
      9  C          7.2750   -1.5860    0.6930 C.2     1  UNL1        0.0510
     10  C          7.2200   -0.4900   -1.4220 C.2     1  UNL1        0.1660
     11  C          7.6300   -1.5550   -0.6520 C.2     1  UNL1        0.1650
     12  O          7.6930   -0.6900   -2.7020 O.2     1  UNL1       -0.4540
     13  O          8.3520   -2.3960   -1.4830 O.2     1  UNL1       -0.4540
     14  C          8.3400   -1.9310   -2.8120 C.3     1  UNL1        0.4680
@<TRIPOS>BOND
     1    14    12    1
     2    14    13    1
     3    12    10    1
     4    13    11    1
     5    10     8    1
     6    10    11    2
     7     8     6    2
     8    11     9    1
     9     1     2    1
    10     1     5    1
    11     3     2    1
    12     6     5    1
    13     6     7    1
    14     9     7    2
    15     2     4    2
