@<TRIPOS>MOLECULE
/home/cewinharhar/GITHUB/reincatalyze/data/processed/docking_pred/2023-May-22-1531_sub9_nm5_bs15_s42_ex16_mel10_mts1000_k50_ec02_g099_lra9e-4_lrc1e-3/bfaa3bc067c86e8b5ef89a85d12e30cfe25fe09e_ligand_9.pdbqt
 14 15 0 0 0
SMALL
GASTEIGER

@<TRIPOS>ATOM
      1  C          5.4440    2.9040    0.0880 C.3     1  UNL1        0.0800
      2  C          6.2780    3.8130    0.9230 C.2     1  UNL1        0.1300
      3  C          7.2350    4.7750    0.3130 C.3     1  UNL1        0.0870
      4  O          6.2000    3.7930    2.1400 O.2     1  UNL1       -0.3000
      5  C          5.1790    1.5920    0.7990 C.3     1  UNL1        0.0430
      6  C          6.0120    0.5010    0.2610 C.2     1  UNL1       -0.0440
      7  C          6.3160   -0.6330    1.0220 C.2     1  UNL1        0.0080
      8  C          6.5060    0.5890   -1.0210 C.2     1  UNL1        0.0540
      9  C          7.1020   -1.6250    0.4640 C.2     1  UNL1        0.0510
     10  C          7.2990   -0.4170   -1.5810 C.2     1  UNL1        0.1660
     11  C          7.6000   -1.5330   -0.8320 C.2     1  UNL1        0.1650
     12  O          7.9010   -0.5630   -2.8130 O.2     1  UNL1       -0.4540
     13  O          8.3880   -2.3500   -1.6280 O.2     1  UNL1       -0.4540
     14  C          8.5280   -1.8150   -2.9220 C.3     1  UNL1        0.4680
@<TRIPOS>BOND
     1    14    12    1
     2    14    13    1
     3    12    10    1
     4    13    11    1
     5    10     8    1
     6    10    11    2
     7     8     6    2
     8    11     9    1
     9     1     5    1
    10     1     2    1
    11     6     5    1
    12     6     7    1
    13     3     2    1
    14     9     7    2
    15     2     4    2
