@<TRIPOS>MOLECULE
/home/cewinharhar/GITHUB/reincatalyze/data/processed/docking_pred/2023-May-22-1531_sub9_nm5_bs15_s42_ex16_mel10_mts1000_k50_ec02_g099_lra9e-4_lrc1e-3/bfaa3bc067c86e8b5ef89a85d12e30cfe25fe09e_ligand_9.pdbqt
 14 15 0 0 0
SMALL
GASTEIGER

@<TRIPOS>ATOM
      1  C          5.5170    1.9430    1.2620 C.3     1  UNL1        0.0800
      2  C          5.0940    0.7260    2.0100 C.2     1  UNL1        0.1300
      3  C          6.0060   -0.4340    2.1930 C.3     1  UNL1        0.0870
      4  O          3.9780    0.6470    2.4970 O.2     1  UNL1       -0.3000
      5  C          5.3890    1.7410   -0.2350 C.3     1  UNL1        0.0430
      6  C          6.5590    1.0420   -0.7950 C.2     1  UNL1       -0.0440
      7  C          7.8640    1.4810   -0.5430 C.2     1  UNL1        0.0080
      8  C          6.3760   -0.0710   -1.5840 C.2     1  UNL1        0.0540
      9  C          8.9240    0.7840   -1.0950 C.2     1  UNL1        0.0510
     10  C          7.4510   -0.7720   -2.1390 C.2     1  UNL1        0.1660
     11  C          8.7350   -0.3400   -1.8930 C.2     1  UNL1        0.1650
     12  O          7.5290   -1.8880   -2.9440 O.2     1  UNL1       -0.4540
     13  O          9.5850   -1.2110   -2.5580 O.2     1  UNL1       -0.4540
     14  C          8.8660   -2.2590   -3.1620 C.3     1  UNL1        0.4680
@<TRIPOS>BOND
     1    14    12    1
     2    14    13    1
     3    12    10    1
     4    13    11    1
     5    10    11    2
     6    10     8    1
     7    11     9    1
     8     8     6    2
     9     9     7    2
    10     6     7    1
    11     6     5    1
    12     5     1    1
    13     1     2    1
    14     2     3    1
    15     2     4    2
