@<TRIPOS>MOLECULE
/home/cewinharhar/GITHUB/reincatalyze/data/processed/docking_pred/2023-May-22-1531_sub9_nm5_bs15_s42_ex16_mel10_mts1000_k50_ec02_g099_lra9e-4_lrc1e-3/bfaa3bc067c86e8b5ef89a85d12e30cfe25fe09e_ligand_9.pdbqt
 14 15 0 0 0
SMALL
GASTEIGER

@<TRIPOS>ATOM
      1  C          5.3360    3.0330    0.2350 C.3     1  UNL1        0.0800
      2  C          6.3350    3.7910    1.0380 C.2     1  UNL1        0.1300
      3  C          7.2580    4.7750    0.4090 C.3     1  UNL1        0.0870
      4  O          6.4260    3.6260    2.2430 O.2     1  UNL1       -0.3000
      5  C          5.0420    1.6820    0.8560 C.3     1  UNL1        0.0430
      6  C          5.9200    0.6290    0.3150 C.2     1  UNL1       -0.0440
      7  C          6.3880    0.6700   -1.0030 C.2     1  UNL1        0.0080
      8  C          6.2970   -0.4240    1.1180 C.2     1  UNL1        0.0540
      9  C          7.2100   -0.3460   -1.4560 C.2     1  UNL1        0.0510
     10  C          7.1290   -1.4480    0.6560 C.2     1  UNL1        0.1660
     11  C          7.5890   -1.4090   -0.6420 C.2     1  UNL1        0.1650
     12  O          7.6380   -2.5850    1.2480 O.2     1  UNL1       -0.4540
     13  O          8.3800   -2.5330   -0.8210 O.2     1  UNL1       -0.4540
     14  C          8.5110   -3.2580    0.3790 C.3     1  UNL1        0.4680
@<TRIPOS>BOND
     1     9     7    1
     2     9    11    2
     3     7     6    2
     4    13    11    1
     5    13    14    1
     6    11    10    1
     7     1     5    1
     8     1     2    1
     9     6     5    1
    10     6     8    1
    11    14    12    1
    12     3     2    1
    13    10     8    2
    14    10    12    1
    15     2     4    2
