MODEL 1
REMARK VINA RESULT:      -7.9      0.000      0.000
REMARK SMILES CC(=O)CCc1ccc2c(c1)OCO2
REMARK SMILES IDX 4 1 2 2 1 3 3 4 5 5 6 6 7 7 11 8 8 9 10 10 9 11 12 12 14 13
REMARK SMILES IDX 13 14
REMARK H PARENT
REMARK Flexibility Score: inf
ROOT
ATOM      1  C   UNL     1       5.444   2.904   0.088  1.00  0.00     0.080 C 
ENDROOT
BRANCH   1   2
ATOM      2  C   UNL     1       6.278   3.813   0.923  1.00  0.00     0.130 C 
ATOM      3  C   UNL     1       7.235   4.775   0.313  1.00  0.00     0.087 C 
ATOM      4  O   UNL     1       6.200   3.793   2.140  1.00  0.00    -0.300 OA
ENDBRANCH   1   2
BRANCH   1   5
ATOM      5  C   UNL     1       5.179   1.592   0.799  1.00  0.00     0.043 C 
BRANCH   5   6
ATOM      6  C   UNL     1       6.012   0.501   0.261  1.00  0.00    -0.044 A 
ATOM      7  C   UNL     1       6.316  -0.633   1.022  1.00  0.00     0.008 A 
ATOM      8  C   UNL     1       6.506   0.589  -1.021  1.00  0.00     0.054 A 
ATOM      9  C   UNL     1       7.102  -1.625   0.464  1.00  0.00     0.051 A 
ATOM     10  C   UNL     1       7.299  -0.417  -1.581  1.00  0.00     0.166 A 
ATOM     11  C   UNL     1       7.600  -1.533  -0.832  1.00  0.00     0.165 A 
ATOM     12  O   UNL     1       7.901  -0.563  -2.813  1.00  0.00    -0.454 OA
ATOM     13  O   UNL     1       8.388  -2.350  -1.628  1.00  0.00    -0.454 OA
ATOM     14  C   UNL     1       8.528  -1.815  -2.922  1.00  0.00     0.468 C 
ENDBRANCH   5   6
ENDBRANCH   1   5
TORSDOF 3
ENDMDL
MODEL 2
REMARK VINA RESULT:      -7.8      1.044      2.026
REMARK SMILES CC(=O)CCc1ccc2c(c1)OCO2
REMARK SMILES IDX 4 1 2 2 1 3 3 4 5 5 6 6 7 7 11 8 8 9 10 10 9 11 12 12 14 13
REMARK SMILES IDX 13 14
REMARK H PARENT
REMARK Flexibility Score: inf
ROOT
ATOM      1  C   UNL     1       5.336   3.033   0.235  1.00  0.00     0.080 C 
ENDROOT
BRANCH   1   2
ATOM      2  C   UNL     1       6.335   3.791   1.038  1.00  0.00     0.130 C 
ATOM      3  C   UNL     1       7.258   4.775   0.409  1.00  0.00     0.087 C 
ATOM      4  O   UNL     1       6.426   3.626   2.243  1.00  0.00    -0.300 OA
ENDBRANCH   1   2
BRANCH   1   5
ATOM      5  C   UNL     1       5.042   1.682   0.856  1.00  0.00     0.043 C 
BRANCH   5   6
ATOM      6  C   UNL     1       5.920   0.629   0.315  1.00  0.00    -0.044 A 
ATOM      7  C   UNL     1       6.388   0.670  -1.003  1.00  0.00     0.008 A 
ATOM      8  C   UNL     1       6.297  -0.424   1.118  1.00  0.00     0.054 A 
ATOM      9  C   UNL     1       7.210  -0.346  -1.456  1.00  0.00     0.051 A 
ATOM     10  C   UNL     1       7.129  -1.448   0.656  1.00  0.00     0.166 A 
ATOM     11  C   UNL     1       7.589  -1.409  -0.642  1.00  0.00     0.165 A 
ATOM     12  O   UNL     1       7.638  -2.585   1.248  1.00  0.00    -0.454 OA
ATOM     13  O   UNL     1       8.380  -2.533  -0.821  1.00  0.00    -0.454 OA
ATOM     14  C   UNL     1       8.511  -3.258   0.379  1.00  0.00     0.468 C 
ENDBRANCH   5   6
ENDBRANCH   1   5
TORSDOF 3
ENDMDL
MODEL 3
REMARK VINA RESULT:      -7.6      1.885      2.621
REMARK SMILES CC(=O)CCc1ccc2c(c1)OCO2
REMARK SMILES IDX 4 1 2 2 1 3 3 4 5 5 6 6 7 7 11 8 8 9 10 10 9 11 12 12 14 13
REMARK SMILES IDX 13 14
REMARK H PARENT
REMARK Flexibility Score: inf
ROOT
ATOM      1  C   UNL     1       5.517   1.943   1.262  1.00  0.00     0.080 C 
ENDROOT
BRANCH   1   2
ATOM      2  C   UNL     1       5.094   0.726   2.010  1.00  0.00     0.130 C 
ATOM      3  C   UNL     1       6.006  -0.434   2.193  1.00  0.00     0.087 C 
ATOM      4  O   UNL     1       3.978   0.647   2.497  1.00  0.00    -0.300 OA
ENDBRANCH   1   2
BRANCH   1   5
ATOM      5  C   UNL     1       5.389   1.741  -0.235  1.00  0.00     0.043 C 
BRANCH   5   6
ATOM      6  C   UNL     1       6.559   1.042  -0.795  1.00  0.00    -0.044 A 
ATOM      7  C   UNL     1       7.864   1.481  -0.543  1.00  0.00     0.008 A 
ATOM      8  C   UNL     1       6.376  -0.071  -1.584  1.00  0.00     0.054 A 
ATOM      9  C   UNL     1       8.924   0.784  -1.095  1.00  0.00     0.051 A 
ATOM     10  C   UNL     1       7.451  -0.772  -2.139  1.00  0.00     0.166 A 
ATOM     11  C   UNL     1       8.735  -0.340  -1.893  1.00  0.00     0.165 A 
ATOM     12  O   UNL     1       7.529  -1.888  -2.944  1.00  0.00    -0.454 OA
ATOM     13  O   UNL     1       9.585  -1.211  -2.558  1.00  0.00    -0.454 OA
ATOM     14  C   UNL     1       8.866  -2.259  -3.162  1.00  0.00     0.468 C 
ENDBRANCH   5   6
ENDBRANCH   1   5
TORSDOF 3
ENDMDL
