@<TRIPOS>MOLECULE
/home/cewinharhar/GITHUB/reincatalyze/data/processed/docking_pred/2023-May-22-1531_sub9_nm5_bs15_s42_ex16_mel10_mts1000_k50_ec02_g099_lra9e-4_lrc1e-3/c054a7f490e8e5c171bc57af56a9ae5cb4d717f8_ligand_9.pdbqt
 14 15 0 0 0
SMALL
GASTEIGER

@<TRIPOS>ATOM
      1  C          5.4700    2.9110    0.1090 C.3     1  UNL1        0.0800
      2  C          6.2440    3.8310    0.9890 C.2     1  UNL1        0.1300
      3  C          7.2530    4.7740    0.4360 C.3     1  UNL1        0.0870
      4  O          6.0720    3.8370    2.1970 O.2     1  UNL1       -0.3000
      5  C          5.1830    1.5960    0.8060 C.3     1  UNL1        0.0430
      6  C          6.0120    0.5020    0.2720 C.2     1  UNL1       -0.0440
      7  C          6.3370   -0.6180    1.0470 C.2     1  UNL1        0.0080
      8  C          6.4830    0.5700   -1.0200 C.2     1  UNL1        0.0540
      9  C          7.1190   -1.6140    0.4920 C.2     1  UNL1        0.0510
     10  C          7.2730   -0.4400   -1.5760 C.2     1  UNL1        0.1660
     11  C          7.5930   -1.5410   -0.8140 C.2     1  UNL1        0.1650
     12  O          7.8540   -0.6030   -2.8160 O.2     1  UNL1       -0.4540
     13  O          8.3720   -2.3670   -1.6100 O.2     1  UNL1       -0.4540
     14  C          8.4870   -1.8530   -2.9160 C.3     1  UNL1        0.4680
@<TRIPOS>BOND
     1    14    12    1
     2    14    13    1
     3    12    10    1
     4    13    11    1
     5    10     8    1
     6    10    11    2
     7     8     6    2
     8    11     9    1
     9     1     5    1
    10     1     2    1
    11     6     5    1
    12     6     7    1
    13     3     2    1
    14     9     7    2
    15     2     4    2
