@<TRIPOS>MOLECULE
/home/cewinharhar/GITHUB/reincatalyze/data/processed/docking_pred/2023-May-22-1531_sub9_nm5_bs15_s42_ex16_mel10_mts1000_k50_ec02_g099_lra9e-4_lrc1e-3/c054a7f490e8e5c171bc57af56a9ae5cb4d717f8_ligand_9.pdbqt
 14 15 0 0 0
SMALL
GASTEIGER

@<TRIPOS>ATOM
      1  C          5.4150    3.0050    0.0620 C.3     1  UNL1        0.0800
      2  C          6.2830    3.8000    0.9740 C.2     1  UNL1        0.1300
      3  C          7.2780    4.7750    0.4520 C.3     1  UNL1        0.0870
      4  O          6.2030    3.6730    2.1850 O.2     1  UNL1       -0.3000
      5  C          5.0530    1.6660    0.6740 C.3     1  UNL1        0.0430
      6  C          5.9220    0.5850    0.1760 C.2     1  UNL1       -0.0440
      7  C          6.3580    0.5490   -1.1530 C.2     1  UNL1        0.0080
      8  C          6.3210   -0.4170    1.0310 C.2     1  UNL1        0.0540
      9  C          7.1730   -0.4910   -1.5640 C.2     1  UNL1        0.0510
     10  C          7.1450   -1.4660    0.6110 C.2     1  UNL1        0.1660
     11  C          7.5750   -1.5030   -0.6970 C.2     1  UNL1        0.1650
     12  O          7.6720   -2.5640    1.2570 O.2     1  UNL1       -0.4540
     13  O          8.3650   -2.6340   -0.8280 O.2     1  UNL1       -0.4540
     14  C          8.5270   -3.2860    0.4090 C.3     1  UNL1        0.4680
@<TRIPOS>BOND
     1     9     7    1
     2     9    11    2
     3     7     6    2
     4    13    11    1
     5    13    14    1
     6    11    10    1
     7     1     5    1
     8     1     2    1
     9     6     5    1
    10     6     8    1
    11    14    12    1
    12     3     2    1
    13    10     8    2
    14    10    12    1
    15     2     4    2
