@<TRIPOS>MOLECULE
/home/cewinharhar/GITHUB/reincatalyze/data/processed/docking_pred/2023-May-22-1531_sub9_nm5_bs15_s42_ex16_mel10_mts1000_k50_ec02_g099_lra9e-4_lrc1e-3/c054a7f490e8e5c171bc57af56a9ae5cb4d717f8_ligand_9.pdbqt
 14 15 0 0 0
SMALL
GASTEIGER

@<TRIPOS>ATOM
      1  C          5.5290    1.9260    1.2560 C.3     1  UNL1        0.0800
      2  C          5.0920    0.7140    2.0030 C.2     1  UNL1        0.1300
      3  C          5.9900   -0.4580    2.1840 C.3     1  UNL1        0.0870
      4  O          3.9750    0.6470    2.4910 O.2     1  UNL1       -0.3000
      5  C          5.4010    1.7260   -0.2410 C.3     1  UNL1        0.0430
      6  C          6.5700    1.0250   -0.8010 C.2     1  UNL1       -0.0440
      7  C          7.8760    1.4580   -0.5470 C.2     1  UNL1        0.0080
      8  C          6.3840   -0.0860   -1.5930 C.2     1  UNL1        0.0540
      9  C          8.9340    0.7590   -1.0990 C.2     1  UNL1        0.0510
     10  C          7.4570   -0.7890   -2.1480 C.2     1  UNL1        0.1660
     11  C          8.7430   -0.3630   -1.8990 C.2     1  UNL1        0.1650
     12  O          7.5330   -1.9040   -2.9560 O.2     1  UNL1       -0.4540
     13  O          9.5900   -1.2340   -2.5650 O.2     1  UNL1       -0.4540
     14  C          8.8690   -2.2790   -3.1730 C.3     1  UNL1        0.4680
@<TRIPOS>BOND
     1    14    12    1
     2    14    13    1
     3    12    10    1
     4    13    11    1
     5    10    11    2
     6    10     8    1
     7    11     9    1
     8     8     6    2
     9     9     7    2
    10     6     7    1
    11     6     5    1
    12     5     1    1
    13     1     2    1
    14     2     3    1
    15     2     4    2
