MODEL 1
REMARK VINA RESULT:      -7.9      0.000      0.000
REMARK SMILES CC(=O)CCc1ccc2c(c1)OCO2
REMARK SMILES IDX 4 1 2 2 1 3 3 4 5 5 6 6 7 7 11 8 8 9 10 10 9 11 12 12 14 13
REMARK SMILES IDX 13 14
REMARK H PARENT
REMARK Flexibility Score: inf
ROOT
ATOM      1  C   UNL     1       5.470   2.911   0.109  1.00  0.00     0.080 C 
ENDROOT
BRANCH   1   2
ATOM      2  C   UNL     1       6.244   3.831   0.989  1.00  0.00     0.130 C 
ATOM      3  C   UNL     1       7.253   4.774   0.436  1.00  0.00     0.087 C 
ATOM      4  O   UNL     1       6.072   3.837   2.197  1.00  0.00    -0.300 OA
ENDBRANCH   1   2
BRANCH   1   5
ATOM      5  C   UNL     1       5.183   1.596   0.806  1.00  0.00     0.043 C 
BRANCH   5   6
ATOM      6  C   UNL     1       6.012   0.502   0.272  1.00  0.00    -0.044 A 
ATOM      7  C   UNL     1       6.337  -0.618   1.047  1.00  0.00     0.008 A 
ATOM      8  C   UNL     1       6.483   0.570  -1.020  1.00  0.00     0.054 A 
ATOM      9  C   UNL     1       7.119  -1.614   0.492  1.00  0.00     0.051 A 
ATOM     10  C   UNL     1       7.273  -0.440  -1.576  1.00  0.00     0.166 A 
ATOM     11  C   UNL     1       7.593  -1.541  -0.814  1.00  0.00     0.165 A 
ATOM     12  O   UNL     1       7.854  -0.603  -2.816  1.00  0.00    -0.454 OA
ATOM     13  O   UNL     1       8.372  -2.367  -1.610  1.00  0.00    -0.454 OA
ATOM     14  C   UNL     1       8.487  -1.853  -2.916  1.00  0.00     0.468 C 
ENDBRANCH   5   6
ENDBRANCH   1   5
TORSDOF 3
ENDMDL
MODEL 2
REMARK VINA RESULT:      -7.8      1.025      2.020
REMARK SMILES CC(=O)CCc1ccc2c(c1)OCO2
REMARK SMILES IDX 4 1 2 2 1 3 3 4 5 5 6 6 7 7 11 8 8 9 10 10 9 11 12 12 14 13
REMARK SMILES IDX 13 14
REMARK H PARENT
REMARK Flexibility Score: inf
ROOT
ATOM      1  C   UNL     1       5.415   3.005   0.062  1.00  0.00     0.080 C 
ENDROOT
BRANCH   1   2
ATOM      2  C   UNL     1       6.283   3.800   0.974  1.00  0.00     0.130 C 
ATOM      3  C   UNL     1       7.278   4.775   0.452  1.00  0.00     0.087 C 
ATOM      4  O   UNL     1       6.203   3.673   2.185  1.00  0.00    -0.300 OA
ENDBRANCH   1   2
BRANCH   1   5
ATOM      5  C   UNL     1       5.053   1.666   0.674  1.00  0.00     0.043 C 
BRANCH   5   6
ATOM      6  C   UNL     1       5.922   0.585   0.176  1.00  0.00    -0.044 A 
ATOM      7  C   UNL     1       6.358   0.549  -1.153  1.00  0.00     0.008 A 
ATOM      8  C   UNL     1       6.321  -0.417   1.031  1.00  0.00     0.054 A 
ATOM      9  C   UNL     1       7.173  -0.491  -1.564  1.00  0.00     0.051 A 
ATOM     10  C   UNL     1       7.145  -1.466   0.611  1.00  0.00     0.166 A 
ATOM     11  C   UNL     1       7.575  -1.503  -0.697  1.00  0.00     0.165 A 
ATOM     12  O   UNL     1       7.672  -2.564   1.257  1.00  0.00    -0.454 OA
ATOM     13  O   UNL     1       8.365  -2.634  -0.828  1.00  0.00    -0.454 OA
ATOM     14  C   UNL     1       8.527  -3.286   0.409  1.00  0.00     0.468 C 
ENDBRANCH   5   6
ENDBRANCH   1   5
TORSDOF 3
ENDMDL
MODEL 3
REMARK VINA RESULT:      -7.7      1.876      2.614
REMARK SMILES CC(=O)CCc1ccc2c(c1)OCO2
REMARK SMILES IDX 4 1 2 2 1 3 3 4 5 5 6 6 7 7 11 8 8 9 10 10 9 11 12 12 14 13
REMARK SMILES IDX 13 14
REMARK H PARENT
REMARK Flexibility Score: inf
ROOT
ATOM      1  C   UNL     1       5.529   1.926   1.256  1.00  0.00     0.080 C 
ENDROOT
BRANCH   1   2
ATOM      2  C   UNL     1       5.092   0.714   2.003  1.00  0.00     0.130 C 
ATOM      3  C   UNL     1       5.990  -0.458   2.184  1.00  0.00     0.087 C 
ATOM      4  O   UNL     1       3.975   0.647   2.491  1.00  0.00    -0.300 OA
ENDBRANCH   1   2
BRANCH   1   5
ATOM      5  C   UNL     1       5.401   1.726  -0.241  1.00  0.00     0.043 C 
BRANCH   5   6
ATOM      6  C   UNL     1       6.570   1.025  -0.801  1.00  0.00    -0.044 A 
ATOM      7  C   UNL     1       7.876   1.458  -0.547  1.00  0.00     0.008 A 
ATOM      8  C   UNL     1       6.384  -0.086  -1.593  1.00  0.00     0.054 A 
ATOM      9  C   UNL     1       8.934   0.759  -1.099  1.00  0.00     0.051 A 
ATOM     10  C   UNL     1       7.457  -0.789  -2.148  1.00  0.00     0.166 A 
ATOM     11  C   UNL     1       8.743  -0.363  -1.899  1.00  0.00     0.165 A 
ATOM     12  O   UNL     1       7.533  -1.904  -2.956  1.00  0.00    -0.454 OA
ATOM     13  O   UNL     1       9.590  -1.234  -2.565  1.00  0.00    -0.454 OA
ATOM     14  C   UNL     1       8.869  -2.279  -3.173  1.00  0.00     0.468 C 
ENDBRANCH   5   6
ENDBRANCH   1   5
TORSDOF 3
ENDMDL
