@<TRIPOS>MOLECULE
/home/cewinharhar/GITHUB/reincatalyze/data/processed/docking_pred/2023-May-22-1531_sub9_nm5_bs15_s42_ex16_mel10_mts1000_k50_ec02_g099_lra9e-4_lrc1e-3/c2b16f598521213e119e3a09a49f7e8c9c89cc3b_ligand_9.pdbqt
 14 15 0 0 0
SMALL
GASTEIGER

@<TRIPOS>ATOM
      1  C          5.7560    1.3200   -0.3120 C.3     1  UNL1        0.0800
      2  C          5.1640    1.2860    1.0550 C.2     1  UNL1        0.1300
      3  C          5.3460    0.1160    1.9560 C.3     1  UNL1        0.0870
      4  O          4.5070    2.2230    1.4760 O.2     1  UNL1       -0.3000
      5  C          7.2530    1.0850   -0.2690 C.3     1  UNL1        0.0430
      6  C          7.6200   -0.2110   -0.8660 C.2     1  UNL1       -0.0440
      7  C          7.6750   -0.3910   -2.2530 C.2     1  UNL1        0.0080
      8  C          7.9220   -1.2780   -0.0490 C.2     1  UNL1        0.0540
      9  C          8.0260   -1.6300   -2.7560 C.2     1  UNL1        0.0510
     10  C          8.2780   -2.5280   -0.5630 C.2     1  UNL1        0.1660
     11  C          8.3300   -2.7060   -1.9280 C.2     1  UNL1        0.1650
     12  O          8.6160   -3.7260    0.0300 O.2     1  UNL1       -0.4540
     13  O          8.7040   -4.0220   -2.1470 O.2     1  UNL1       -0.4540
     14  C          8.9840   -4.6800   -0.9340 C.3     1  UNL1        0.4680
@<TRIPOS>BOND
     1     9     7    1
     2     9    11    2
     3     7     6    2
     4    13    11    1
     5    13    14    1
     6    11    10    1
     7    14    12    1
     8     6     5    1
     9     6     8    1
    10    10     8    2
    11    10    12    1
    12     1     5    1
    13     1     2    1
    14     2     4    2
    15     2     3    1
