@<TRIPOS>MOLECULE
/home/cewinharhar/GITHUB/reincatalyze/data/processed/docking_pred/2023-May-22-1531_sub9_nm5_bs15_s42_ex16_mel10_mts1000_k50_ec02_g099_lra9e-4_lrc1e-3/c2b16f598521213e119e3a09a49f7e8c9c89cc3b_ligand_9.pdbqt
 14 15 0 0 0
SMALL
GASTEIGER

@<TRIPOS>ATOM
      1  C          5.5430    1.9150    1.2720 C.3     1  UNL1        0.0800
      2  C          5.1190    0.6930    2.0110 C.2     1  UNL1        0.1300
      3  C          6.0280   -0.4710    2.1820 C.3     1  UNL1        0.0870
      4  O          4.0040    0.6120    2.4990 O.2     1  UNL1       -0.3000
      5  C          5.4140    1.7260   -0.2260 C.3     1  UNL1        0.0430
      6  C          6.5790    1.0210   -0.7900 C.2     1  UNL1       -0.0440
      7  C          7.8880    1.4470   -0.5350 C.2     1  UNL1        0.0080
      8  C          6.3870   -0.0850   -1.5860 C.2     1  UNL1        0.0540
      9  C          8.9420    0.7450   -1.0910 C.2     1  UNL1        0.0510
     10  C          7.4570   -0.7920   -2.1450 C.2     1  UNL1        0.1660
     11  C          8.7450   -0.3730   -1.8960 C.2     1  UNL1        0.1650
     12  O          7.5260   -1.9040   -2.9570 O.2     1  UNL1       -0.4540
     13  O          9.5870   -1.2460   -2.5660 O.2     1  UNL1       -0.4540
     14  C          8.8600   -2.2850   -3.1770 C.3     1  UNL1        0.4680
@<TRIPOS>BOND
     1    14    12    1
     2    14    13    1
     3    12    10    1
     4    13    11    1
     5    10    11    2
     6    10     8    1
     7    11     9    1
     8     8     6    2
     9     9     7    2
    10     6     7    1
    11     6     5    1
    12     5     1    1
    13     1     2    1
    14     2     3    1
    15     2     4    2
