@<TRIPOS>MOLECULE
/home/cewinharhar/GITHUB/reincatalyze/data/processed/docking_pred/2023-May-22-1531_sub9_nm5_bs15_s42_ex16_mel10_mts1000_k50_ec02_g099_lra9e-4_lrc1e-3/c2b16f598521213e119e3a09a49f7e8c9c89cc3b_ligand_9.pdbqt
 14 15 0 0 0
SMALL
GASTEIGER

@<TRIPOS>ATOM
      1  C          5.4550    2.9010    0.3120 C.3     1  UNL1        0.0800
      2  C          6.2800    3.9000    1.0460 C.2     1  UNL1        0.1300
      3  C          7.2560    4.7750    0.3430 C.3     1  UNL1        0.0870
      4  O          6.1780    4.0290    2.2560 O.2     1  UNL1       -0.3000
      5  C          5.3240    1.6110    1.0970 C.3     1  UNL1        0.0430
      6  C          6.1140    0.5220    0.4950 C.2     1  UNL1       -0.0440
      7  C          6.4850   -0.6090    1.2320 C.2     1  UNL1        0.0080
      8  C          6.4990    0.6070   -0.8230 C.2     1  UNL1        0.0540
      9  C          7.2260   -1.5990    0.6140 C.2     1  UNL1        0.0510
     10  C          7.2480   -0.3980   -1.4440 C.2     1  UNL1        0.1660
     11  C          7.6150   -1.5100   -0.7190 C.2     1  UNL1        0.1650
     12  O          7.7470   -0.5450   -2.7200 O.2     1  UNL1       -0.4540
     13  O          8.3380   -2.3260   -1.5750 O.2     1  UNL1       -0.4540
     14  C          8.3680   -1.7950   -2.8780 C.3     1  UNL1        0.4680
@<TRIPOS>BOND
     1    14    12    1
     2    14    13    1
     3    12    10    1
     4    13    11    1
     5    10     8    1
     6    10    11    2
     7     8     6    2
     8    11     9    1
     9     1     2    1
    10     1     5    1
    11     3     2    1
    12     6     5    1
    13     6     7    1
    14     9     7    2
    15     2     4    2
