MODEL 1
REMARK VINA RESULT:      -7.7      0.000      0.000
REMARK SMILES CC(=O)CCc1ccc2c(c1)OCO2
REMARK SMILES IDX 4 1 2 2 1 3 3 4 5 5 6 6 7 7 11 8 8 9 10 10 9 11 12 12 14 13
REMARK SMILES IDX 13 14
REMARK H PARENT
REMARK Flexibility Score: inf
ROOT
ATOM      1  C   UNL     1       5.455   2.901   0.312  1.00  0.00     0.080 C 
ENDROOT
BRANCH   1   2
ATOM      2  C   UNL     1       6.280   3.900   1.046  1.00  0.00     0.130 C 
ATOM      3  C   UNL     1       7.256   4.775   0.343  1.00  0.00     0.087 C 
ATOM      4  O   UNL     1       6.178   4.029   2.256  1.00  0.00    -0.300 OA
ENDBRANCH   1   2
BRANCH   1   5
ATOM      5  C   UNL     1       5.324   1.611   1.097  1.00  0.00     0.043 C 
BRANCH   5   6
ATOM      6  C   UNL     1       6.114   0.522   0.495  1.00  0.00    -0.044 A 
ATOM      7  C   UNL     1       6.485  -0.609   1.232  1.00  0.00     0.008 A 
ATOM      8  C   UNL     1       6.499   0.607  -0.823  1.00  0.00     0.054 A 
ATOM      9  C   UNL     1       7.226  -1.599   0.614  1.00  0.00     0.051 A 
ATOM     10  C   UNL     1       7.248  -0.398  -1.444  1.00  0.00     0.166 A 
ATOM     11  C   UNL     1       7.615  -1.510  -0.719  1.00  0.00     0.165 A 
ATOM     12  O   UNL     1       7.747  -0.545  -2.720  1.00  0.00    -0.454 OA
ATOM     13  O   UNL     1       8.338  -2.326  -1.575  1.00  0.00    -0.454 OA
ATOM     14  C   UNL     1       8.368  -1.795  -2.878  1.00  0.00     0.468 C 
ENDBRANCH   5   6
ENDBRANCH   1   5
TORSDOF 3
ENDMDL
MODEL 2
REMARK VINA RESULT:      -7.6      1.926      2.670
REMARK SMILES CC(=O)CCc1ccc2c(c1)OCO2
REMARK SMILES IDX 4 1 2 2 1 3 3 4 5 5 6 6 7 7 11 8 8 9 10 10 9 11 12 12 14 13
REMARK SMILES IDX 13 14
REMARK H PARENT
REMARK Flexibility Score: inf
ROOT
ATOM      1  C   UNL     1       5.543   1.915   1.272  1.00  0.00     0.080 C 
ENDROOT
BRANCH   1   2
ATOM      2  C   UNL     1       5.119   0.693   2.011  1.00  0.00     0.130 C 
ATOM      3  C   UNL     1       6.028  -0.471   2.182  1.00  0.00     0.087 C 
ATOM      4  O   UNL     1       4.004   0.612   2.499  1.00  0.00    -0.300 OA
ENDBRANCH   1   2
BRANCH   1   5
ATOM      5  C   UNL     1       5.414   1.726  -0.226  1.00  0.00     0.043 C 
BRANCH   5   6
ATOM      6  C   UNL     1       6.579   1.021  -0.790  1.00  0.00    -0.044 A 
ATOM      7  C   UNL     1       7.888   1.447  -0.535  1.00  0.00     0.008 A 
ATOM      8  C   UNL     1       6.387  -0.085  -1.586  1.00  0.00     0.054 A 
ATOM      9  C   UNL     1       8.942   0.745  -1.091  1.00  0.00     0.051 A 
ATOM     10  C   UNL     1       7.457  -0.792  -2.145  1.00  0.00     0.166 A 
ATOM     11  C   UNL     1       8.745  -0.373  -1.896  1.00  0.00     0.165 A 
ATOM     12  O   UNL     1       7.526  -1.904  -2.957  1.00  0.00    -0.454 OA
ATOM     13  O   UNL     1       9.587  -1.246  -2.566  1.00  0.00    -0.454 OA
ATOM     14  C   UNL     1       8.860  -2.285  -3.177  1.00  0.00     0.468 C 
ENDBRANCH   5   6
ENDBRANCH   1   5
TORSDOF 3
ENDMDL
MODEL 3
REMARK VINA RESULT:      -7.4      1.994      3.071
REMARK SMILES CC(=O)CCc1ccc2c(c1)OCO2
REMARK SMILES IDX 4 1 2 2 1 3 3 4 5 5 6 6 7 7 11 8 8 9 10 10 9 11 12 12 14 13
REMARK SMILES IDX 13 14
REMARK H PARENT
REMARK Flexibility Score: inf
ROOT
ATOM      1  C   UNL     1       5.756   1.320  -0.312  1.00  0.00     0.080 C 
ENDROOT
BRANCH   1   2
ATOM      2  C   UNL     1       5.164   1.286   1.055  1.00  0.00     0.130 C 
ATOM      3  C   UNL     1       5.346   0.116   1.956  1.00  0.00     0.087 C 
ATOM      4  O   UNL     1       4.507   2.223   1.476  1.00  0.00    -0.300 OA
ENDBRANCH   1   2
BRANCH   1   5
ATOM      5  C   UNL     1       7.253   1.085  -0.269  1.00  0.00     0.043 C 
BRANCH   5   6
ATOM      6  C   UNL     1       7.620  -0.211  -0.866  1.00  0.00    -0.044 A 
ATOM      7  C   UNL     1       7.675  -0.391  -2.253  1.00  0.00     0.008 A 
ATOM      8  C   UNL     1       7.922  -1.278  -0.049  1.00  0.00     0.054 A 
ATOM      9  C   UNL     1       8.026  -1.630  -2.756  1.00  0.00     0.051 A 
ATOM     10  C   UNL     1       8.278  -2.528  -0.563  1.00  0.00     0.166 A 
ATOM     11  C   UNL     1       8.330  -2.706  -1.928  1.00  0.00     0.165 A 
ATOM     12  O   UNL     1       8.616  -3.726   0.030  1.00  0.00    -0.454 OA
ATOM     13  O   UNL     1       8.704  -4.022  -2.147  1.00  0.00    -0.454 OA
ATOM     14  C   UNL     1       8.984  -4.680  -0.934  1.00  0.00     0.468 C 
ENDBRANCH   5   6
ENDBRANCH   1   5
TORSDOF 3
ENDMDL
