@<TRIPOS>MOLECULE
/home/cewinharhar/GITHUB/reincatalyze/data/processed/docking_pred/2023-May-22-1531_sub9_nm5_bs15_s42_ex16_mel10_mts1000_k50_ec02_g099_lra9e-4_lrc1e-3/c2bbe2b0b698b4c34a14c6b9d782c5d04fb4e97c_ligand_9.pdbqt
 14 15 0 0 0
SMALL
GASTEIGER

@<TRIPOS>ATOM
      1  C          5.5180    1.9050    1.2700 C.3     1  UNL1        0.0800
      2  C          5.0730    0.6840    1.9990 C.2     1  UNL1        0.1300
      3  C          5.9610   -0.4990    2.1550 C.3     1  UNL1        0.0870
      4  O          3.9590    0.6200    2.4920 O.2     1  UNL1       -0.3000
      5  C          5.3940    1.7250   -0.2310 C.3     1  UNL1        0.0430
      6  C          6.5630    1.0290   -0.7960 C.2     1  UNL1       -0.0440
      7  C          7.8690    1.4710   -0.5510 C.2     1  UNL1        0.0080
      8  C          6.3790   -0.0850   -1.5830 C.2     1  UNL1        0.0540
      9  C          8.9280    0.7770   -1.1080 C.2     1  UNL1        0.0510
     10  C          7.4530   -0.7840   -2.1430 C.2     1  UNL1        0.1660
     11  C          8.7380   -0.3490   -1.9030 C.2     1  UNL1        0.1650
     12  O          7.5310   -1.9010   -2.9470 O.2     1  UNL1       -0.4540
     13  O          9.5860   -1.2170   -2.5720 O.2     1  UNL1       -0.4540
     14  C          8.8680   -2.2690   -3.1720 C.3     1  UNL1        0.4680
@<TRIPOS>BOND
     1    14    12    1
     2    14    13    1
     3    12    10    1
     4    13    11    1
     5    10    11    2
     6    10     8    1
     7    11     9    1
     8     8     6    2
     9     9     7    2
    10     6     7    1
    11     6     5    1
    12     5     1    1
    13     1     2    1
    14     2     3    1
    15     2     4    2
