MODEL 1
REMARK VINA RESULT:      -7.9      0.000      0.000
REMARK SMILES CC(=O)CCc1ccc2c(c1)OCO2
REMARK SMILES IDX 4 1 2 2 1 3 3 4 5 5 6 6 7 7 11 8 8 9 10 10 9 11 12 12 14 13
REMARK SMILES IDX 13 14
REMARK H PARENT
REMARK Flexibility Score: inf
ROOT
ATOM      1  C   UNL     1       5.456   2.907   0.141  1.00  0.00     0.080 C 
ENDROOT
BRANCH   1   2
ATOM      2  C   UNL     1       6.262   3.823   0.996  1.00  0.00     0.130 C 
ATOM      3  C   UNL     1       7.244   4.775   0.410  1.00  0.00     0.087 C 
ATOM      4  O   UNL     1       6.139   3.818   2.210  1.00  0.00    -0.300 OA
ENDBRANCH   1   2
BRANCH   1   5
ATOM      5  C   UNL     1       5.177   1.597   0.850  1.00  0.00     0.043 C 
BRANCH   5   6
ATOM      6  C   UNL     1       6.025   0.506   0.336  1.00  0.00    -0.044 A 
ATOM      7  C   UNL     1       6.402  -0.572   1.145  1.00  0.00     0.008 A 
ATOM      8  C   UNL     1       6.459   0.537  -0.969  1.00  0.00     0.054 A 
ATOM      9  C   UNL     1       7.199  -1.567   0.608  1.00  0.00     0.051 A 
ATOM     10  C   UNL     1       7.264  -0.472  -1.508  1.00  0.00     0.166 A 
ATOM     11  C   UNL     1       7.637  -1.532  -0.713  1.00  0.00     0.165 A 
ATOM     12  O   UNL     1       7.817  -0.666  -2.755  1.00  0.00    -0.454 OA
ATOM     13  O   UNL     1       8.419  -2.365  -1.497  1.00  0.00    -0.454 OA
ATOM     14  C   UNL     1       8.484  -1.901  -2.824  1.00  0.00     0.468 C 
ENDBRANCH   5   6
ENDBRANCH   1   5
TORSDOF 3
ENDMDL
MODEL 2
REMARK VINA RESULT:      -7.6      1.890      2.633
REMARK SMILES CC(=O)CCc1ccc2c(c1)OCO2
REMARK SMILES IDX 4 1 2 2 1 3 3 4 5 5 6 6 7 7 11 8 8 9 10 10 9 11 12 12 14 13
REMARK SMILES IDX 13 14
REMARK H PARENT
REMARK Flexibility Score: inf
ROOT
ATOM      1  C   UNL     1       5.518   1.905   1.270  1.00  0.00     0.080 C 
ENDROOT
BRANCH   1   2
ATOM      2  C   UNL     1       5.073   0.684   1.999  1.00  0.00     0.130 C 
ATOM      3  C   UNL     1       5.961  -0.499   2.155  1.00  0.00     0.087 C 
ATOM      4  O   UNL     1       3.959   0.620   2.492  1.00  0.00    -0.300 OA
ENDBRANCH   1   2
BRANCH   1   5
ATOM      5  C   UNL     1       5.394   1.725  -0.231  1.00  0.00     0.043 C 
BRANCH   5   6
ATOM      6  C   UNL     1       6.563   1.029  -0.796  1.00  0.00    -0.044 A 
ATOM      7  C   UNL     1       7.869   1.471  -0.551  1.00  0.00     0.008 A 
ATOM      8  C   UNL     1       6.379  -0.085  -1.583  1.00  0.00     0.054 A 
ATOM      9  C   UNL     1       8.928   0.777  -1.108  1.00  0.00     0.051 A 
ATOM     10  C   UNL     1       7.453  -0.784  -2.143  1.00  0.00     0.166 A 
ATOM     11  C   UNL     1       8.738  -0.349  -1.903  1.00  0.00     0.165 A 
ATOM     12  O   UNL     1       7.531  -1.901  -2.947  1.00  0.00    -0.454 OA
ATOM     13  O   UNL     1       9.586  -1.217  -2.572  1.00  0.00    -0.454 OA
ATOM     14  C   UNL     1       8.868  -2.269  -3.172  1.00  0.00     0.468 C 
ENDBRANCH   5   6
ENDBRANCH   1   5
TORSDOF 3
ENDMDL
MODEL 3
REMARK VINA RESULT:      -7.5      1.948      3.022
REMARK SMILES CC(=O)CCc1ccc2c(c1)OCO2
REMARK SMILES IDX 4 1 2 2 1 3 3 4 5 5 6 6 7 7 11 8 8 9 10 10 9 11 12 12 14 13
REMARK SMILES IDX 13 14
REMARK H PARENT
REMARK Flexibility Score: inf
ROOT
ATOM      1  C   UNL     1       5.735   1.295  -0.310  1.00  0.00     0.080 C 
ENDROOT
BRANCH   1   2
ATOM      2  C   UNL     1       5.167   1.281   1.067  1.00  0.00     0.130 C 
ATOM      3  C   UNL     1       5.323   0.105   1.964  1.00  0.00     0.087 C 
ATOM      4  O   UNL     1       4.551   2.242   1.501  1.00  0.00    -0.300 OA
ENDBRANCH   1   2
BRANCH   1   5
ATOM      5  C   UNL     1       7.235   1.082  -0.288  1.00  0.00     0.043 C 
BRANCH   5   6
ATOM      6  C   UNL     1       7.612  -0.211  -0.888  1.00  0.00    -0.044 A 
ATOM      7  C   UNL     1       7.691  -0.381  -2.275  1.00  0.00     0.008 A 
ATOM      8  C   UNL     1       7.898  -1.283  -0.073  1.00  0.00     0.054 A 
ATOM      9  C   UNL     1       8.051  -1.617  -2.780  1.00  0.00     0.051 A 
ATOM     10  C   UNL     1       8.261  -2.531  -0.589  1.00  0.00     0.166 A 
ATOM     11  C   UNL     1       8.338  -2.699  -1.953  1.00  0.00     0.165 A 
ATOM     12  O   UNL     1       8.587  -3.733   0.002  1.00  0.00    -0.454 OA
ATOM     13  O   UNL     1       8.715  -4.014  -2.174  1.00  0.00    -0.454 OA
ATOM     14  C   UNL     1       8.972  -4.680  -0.961  1.00  0.00     0.468 C 
ENDBRANCH   5   6
ENDBRANCH   1   5
TORSDOF 3
ENDMDL
