@<TRIPOS>MOLECULE
/home/cewinharhar/GITHUB/reincatalyze/data/processed/docking_pred/2023-May-22-1531_sub9_nm5_bs15_s42_ex16_mel10_mts1000_k50_ec02_g099_lra9e-4_lrc1e-3/c2bbe2b0b698b4c34a14c6b9d782c5d04fb4e97c_ligand_9.pdbqt
 14 15 0 0 0
SMALL
GASTEIGER

@<TRIPOS>ATOM
      1  C          5.7350    1.2950   -0.3100 C.3     1  UNL1        0.0800
      2  C          5.1670    1.2810    1.0670 C.2     1  UNL1        0.1300
      3  C          5.3230    0.1050    1.9640 C.3     1  UNL1        0.0870
      4  O          4.5510    2.2420    1.5010 O.2     1  UNL1       -0.3000
      5  C          7.2350    1.0820   -0.2880 C.3     1  UNL1        0.0430
      6  C          7.6120   -0.2110   -0.8880 C.2     1  UNL1       -0.0440
      7  C          7.6910   -0.3810   -2.2750 C.2     1  UNL1        0.0080
      8  C          7.8980   -1.2830   -0.0730 C.2     1  UNL1        0.0540
      9  C          8.0510   -1.6170   -2.7800 C.2     1  UNL1        0.0510
     10  C          8.2610   -2.5310   -0.5890 C.2     1  UNL1        0.1660
     11  C          8.3380   -2.6990   -1.9530 C.2     1  UNL1        0.1650
     12  O          8.5870   -3.7330    0.0020 O.2     1  UNL1       -0.4540
     13  O          8.7150   -4.0140   -2.1740 O.2     1  UNL1       -0.4540
     14  C          8.9720   -4.6800   -0.9610 C.3     1  UNL1        0.4680
@<TRIPOS>BOND
     1     9     7    1
     2     9    11    2
     3     7     6    2
     4    13    11    1
     5    13    14    1
     6    11    10    1
     7    14    12    1
     8     6     5    1
     9     6     8    1
    10    10     8    2
    11    10    12    1
    12     1     5    1
    13     1     2    1
    14     2     4    2
    15     2     3    1
