@<TRIPOS>MOLECULE
/home/cewinharhar/GITHUB/reincatalyze/data/processed/docking_pred/2023-May-22-1531_sub9_nm5_bs15_s42_ex16_mel10_mts1000_k50_ec02_g099_lra9e-4_lrc1e-3/c2bbe2b0b698b4c34a14c6b9d782c5d04fb4e97c_ligand_9.pdbqt
 14 15 0 0 0
SMALL
GASTEIGER

@<TRIPOS>ATOM
      1  C          5.4560    2.9070    0.1410 C.3     1  UNL1        0.0800
      2  C          6.2620    3.8230    0.9960 C.2     1  UNL1        0.1300
      3  C          7.2440    4.7750    0.4100 C.3     1  UNL1        0.0870
      4  O          6.1390    3.8180    2.2100 O.2     1  UNL1       -0.3000
      5  C          5.1770    1.5970    0.8500 C.3     1  UNL1        0.0430
      6  C          6.0250    0.5060    0.3360 C.2     1  UNL1       -0.0440
      7  C          6.4020   -0.5720    1.1450 C.2     1  UNL1        0.0080
      8  C          6.4590    0.5370   -0.9690 C.2     1  UNL1        0.0540
      9  C          7.1990   -1.5670    0.6080 C.2     1  UNL1        0.0510
     10  C          7.2640   -0.4720   -1.5080 C.2     1  UNL1        0.1660
     11  C          7.6370   -1.5320   -0.7130 C.2     1  UNL1        0.1650
     12  O          7.8170   -0.6660   -2.7550 O.2     1  UNL1       -0.4540
     13  O          8.4190   -2.3650   -1.4970 O.2     1  UNL1       -0.4540
     14  C          8.4840   -1.9010   -2.8240 C.3     1  UNL1        0.4680
@<TRIPOS>BOND
     1    14    12    1
     2    14    13    1
     3    12    10    1
     4    10     8    1
     5    10    11    2
     6    13    11    1
     7     8     6    2
     8    11     9    1
     9     1     5    1
    10     1     2    1
    11     6     5    1
    12     6     7    1
    13     3     2    1
    14     9     7    2
    15     2     4    2
