MODEL 1
REMARK VINA RESULT:      -7.9      0.000      0.000
REMARK SMILES CC(=O)CCc1ccc2c(c1)OCO2
REMARK SMILES IDX 4 1 2 2 1 3 3 4 5 5 6 6 7 7 11 8 8 9 10 10 9 11 12 12 14 13
REMARK SMILES IDX 13 14
REMARK H PARENT
REMARK Flexibility Score: inf
ROOT
ATOM      1  C   UNL     1       5.459   2.895   0.094  1.00  0.00     0.080 C 
ENDROOT
BRANCH   1   2
ATOM      2  C   UNL     1       6.277   3.814   0.933  1.00  0.00     0.130 C 
ATOM      3  C   UNL     1       7.242   4.772   0.330  1.00  0.00     0.087 C 
ATOM      4  O   UNL     1       6.178   3.807   2.149  1.00  0.00    -0.300 OA
ENDBRANCH   1   2
BRANCH   1   5
ATOM      5  C   UNL     1       5.190   1.587   0.812  1.00  0.00     0.043 C 
BRANCH   5   6
ATOM      6  C   UNL     1       6.017   0.490   0.278  1.00  0.00    -0.044 A 
ATOM      7  C   UNL     1       6.328  -0.635   1.049  1.00  0.00     0.008 A 
ATOM      8  C   UNL     1       6.496   0.562  -1.010  1.00  0.00     0.054 A 
ATOM      9  C   UNL     1       7.108  -1.634   0.495  1.00  0.00     0.051 A 
ATOM     10  C   UNL     1       7.283  -0.451  -1.567  1.00  0.00     0.166 A 
ATOM     11  C   UNL     1       7.592  -1.558  -0.808  1.00  0.00     0.165 A 
ATOM     12  O   UNL     1       7.872  -0.611  -2.803  1.00  0.00    -0.454 OA
ATOM     13  O   UNL     1       8.371  -2.384  -1.602  1.00  0.00    -0.454 OA
ATOM     14  C   UNL     1       8.498  -1.865  -2.905  1.00  0.00     0.468 C 
ENDBRANCH   5   6
ENDBRANCH   1   5
TORSDOF 3
ENDMDL
MODEL 2
REMARK VINA RESULT:      -7.7      1.891      2.646
REMARK SMILES CC(=O)CCc1ccc2c(c1)OCO2
REMARK SMILES IDX 4 1 2 2 1 3 3 4 5 5 6 6 7 7 11 8 8 9 10 10 9 11 12 12 14 13
REMARK SMILES IDX 13 14
REMARK H PARENT
REMARK Flexibility Score: inf
ROOT
ATOM      1  C   UNL     1       5.513   1.896   1.279  1.00  0.00     0.080 C 
ENDROOT
BRANCH   1   2
ATOM      2  C   UNL     1       5.067   0.675   2.007  1.00  0.00     0.130 C 
ATOM      3  C   UNL     1       5.950  -0.513   2.153  1.00  0.00     0.087 C 
ATOM      4  O   UNL     1       3.956   0.614   2.507  1.00  0.00    -0.300 OA
ENDBRANCH   1   2
BRANCH   1   5
ATOM      5  C   UNL     1       5.389   1.718  -0.221  1.00  0.00     0.043 C 
BRANCH   5   6
ATOM      6  C   UNL     1       6.559   1.024  -0.788  1.00  0.00    -0.044 A 
ATOM      7  C   UNL     1       7.864   1.470  -0.546  1.00  0.00     0.008 A 
ATOM      8  C   UNL     1       6.376  -0.091  -1.574  1.00  0.00     0.054 A 
ATOM      9  C   UNL     1       8.923   0.778  -1.105  1.00  0.00     0.051 A 
ATOM     10  C   UNL     1       7.451  -0.787  -2.135  1.00  0.00     0.166 A 
ATOM     11  C   UNL     1       8.735  -0.349  -1.899  1.00  0.00     0.165 A 
ATOM     12  O   UNL     1       7.529  -1.905  -2.939  1.00  0.00    -0.454 OA
ATOM     13  O   UNL     1       9.584  -1.216  -2.568  1.00  0.00    -0.454 OA
ATOM     14  C   UNL     1       8.866  -2.270  -3.166  1.00  0.00     0.468 C 
ENDBRANCH   5   6
ENDBRANCH   1   5
TORSDOF 3
ENDMDL
MODEL 3
REMARK VINA RESULT:      -7.5      1.959      3.014
REMARK SMILES CC(=O)CCc1ccc2c(c1)OCO2
REMARK SMILES IDX 4 1 2 2 1 3 3 4 5 5 6 6 7 7 11 8 8 9 10 10 9 11 12 12 14 13
REMARK SMILES IDX 13 14
REMARK H PARENT
REMARK Flexibility Score: inf
ROOT
ATOM      1  C   UNL     1       5.740   1.322  -0.363  1.00  0.00     0.080 C 
ENDROOT
BRANCH   1   2
ATOM      2  C   UNL     1       5.142   1.302   1.001  1.00  0.00     0.130 C 
ATOM      3  C   UNL     1       5.383   0.176   1.943  1.00  0.00     0.087 C 
ATOM      4  O   UNL     1       4.433   2.216   1.388  1.00  0.00    -0.300 OA
ENDBRANCH   1   2
BRANCH   1   5
ATOM      5  C   UNL     1       7.239   1.101  -0.311  1.00  0.00     0.043 C 
BRANCH   5   6
ATOM      6  C   UNL     1       7.621  -0.194  -0.902  1.00  0.00    -0.044 A 
ATOM      7  C   UNL     1       7.724  -0.365  -2.288  1.00  0.00     0.008 A 
ATOM      8  C   UNL     1       7.887  -1.267  -0.082  1.00  0.00     0.054 A 
ATOM      9  C   UNL     1       8.087  -1.603  -2.786  1.00  0.00     0.051 A 
ATOM     10  C   UNL     1       8.255  -2.516  -0.591  1.00  0.00     0.166 A 
ATOM     11  C   UNL     1       8.356  -2.686  -1.954  1.00  0.00     0.165 A 
ATOM     12  O   UNL     1       8.566  -3.719   0.007  1.00  0.00    -0.454 OA
ATOM     13  O   UNL     1       8.731  -4.003  -2.167  1.00  0.00    -0.454 OA
ATOM     14  C   UNL     1       8.963  -4.669  -0.949  1.00  0.00     0.468 C 
ENDBRANCH   5   6
ENDBRANCH   1   5
TORSDOF 3
ENDMDL
