@<TRIPOS>MOLECULE
/home/cewinharhar/GITHUB/reincatalyze/data/processed/docking_pred/2023-May-22-1531_sub9_nm5_bs15_s42_ex16_mel10_mts1000_k50_ec02_g099_lra9e-4_lrc1e-3/c584487daa348165e33ca71579c90fd99cb4babd_ligand_9.pdbqt
 14 15 0 0 0
SMALL
GASTEIGER

@<TRIPOS>ATOM
      1  C          5.4590    2.8950    0.0940 C.3     1  UNL1        0.0800
      2  C          6.2770    3.8140    0.9330 C.2     1  UNL1        0.1300
      3  C          7.2420    4.7720    0.3300 C.3     1  UNL1        0.0870
      4  O          6.1780    3.8070    2.1490 O.2     1  UNL1       -0.3000
      5  C          5.1900    1.5870    0.8120 C.3     1  UNL1        0.0430
      6  C          6.0170    0.4900    0.2780 C.2     1  UNL1       -0.0440
      7  C          6.3280   -0.6350    1.0490 C.2     1  UNL1        0.0080
      8  C          6.4960    0.5620   -1.0100 C.2     1  UNL1        0.0540
      9  C          7.1080   -1.6340    0.4950 C.2     1  UNL1        0.0510
     10  C          7.2830   -0.4510   -1.5670 C.2     1  UNL1        0.1660
     11  C          7.5920   -1.5580   -0.8080 C.2     1  UNL1        0.1650
     12  O          7.8720   -0.6110   -2.8030 O.2     1  UNL1       -0.4540
     13  O          8.3710   -2.3840   -1.6020 O.2     1  UNL1       -0.4540
     14  C          8.4980   -1.8650   -2.9050 C.3     1  UNL1        0.4680
@<TRIPOS>BOND
     1    14    12    1
     2    14    13    1
     3    12    10    1
     4    13    11    1
     5    10     8    1
     6    10    11    2
     7     8     6    2
     8    11     9    1
     9     1     5    1
    10     1     2    1
    11     6     5    1
    12     6     7    1
    13     3     2    1
    14     9     7    2
    15     2     4    2
