@<TRIPOS>MOLECULE
/home/cewinharhar/GITHUB/reincatalyze/data/processed/docking_pred/2023-May-22-1531_sub9_nm5_bs15_s42_ex16_mel10_mts1000_k50_ec02_g099_lra9e-4_lrc1e-3/c584487daa348165e33ca71579c90fd99cb4babd_ligand_9.pdbqt
 14 15 0 0 0
SMALL
GASTEIGER

@<TRIPOS>ATOM
      1  C          5.5130    1.8960    1.2790 C.3     1  UNL1        0.0800
      2  C          5.0670    0.6750    2.0070 C.2     1  UNL1        0.1300
      3  C          5.9500   -0.5130    2.1530 C.3     1  UNL1        0.0870
      4  O          3.9560    0.6140    2.5070 O.2     1  UNL1       -0.3000
      5  C          5.3890    1.7180   -0.2210 C.3     1  UNL1        0.0430
      6  C          6.5590    1.0240   -0.7880 C.2     1  UNL1       -0.0440
      7  C          7.8640    1.4700   -0.5460 C.2     1  UNL1        0.0080
      8  C          6.3760   -0.0910   -1.5740 C.2     1  UNL1        0.0540
      9  C          8.9230    0.7780   -1.1050 C.2     1  UNL1        0.0510
     10  C          7.4510   -0.7870   -2.1350 C.2     1  UNL1        0.1660
     11  C          8.7350   -0.3490   -1.8990 C.2     1  UNL1        0.1650
     12  O          7.5290   -1.9050   -2.9390 O.2     1  UNL1       -0.4540
     13  O          9.5840   -1.2160   -2.5680 O.2     1  UNL1       -0.4540
     14  C          8.8660   -2.2700   -3.1660 C.3     1  UNL1        0.4680
@<TRIPOS>BOND
     1    14    12    1
     2    14    13    1
     3    12    10    1
     4    13    11    1
     5    10    11    2
     6    10     8    1
     7    11     9    1
     8     8     6    2
     9     9     7    2
    10     6     7    1
    11     6     5    1
    12     5     1    1
    13     1     2    1
    14     2     3    1
    15     2     4    2
