@<TRIPOS>MOLECULE
/home/cewinharhar/GITHUB/reincatalyze/data/processed/docking_pred/2023-May-22-1531_sub9_nm5_bs15_s42_ex16_mel10_mts1000_k50_ec02_g099_lra9e-4_lrc1e-3/c5f7f675b3df69e676e62d17e40489667b0e6a6f_ligand_9.pdbqt
 14 15 0 0 0
SMALL
GASTEIGER

@<TRIPOS>ATOM
      1  C          5.4890    2.2300    1.2370 C.3     1  UNL1        0.0800
      2  C          4.8170    1.1700    2.0390 C.2     1  UNL1        0.1300
      3  C          5.4090   -0.1850    2.1940 C.3     1  UNL1        0.0870
      4  O          3.7520    1.3850    2.5940 O.2     1  UNL1       -0.3000
      5  C          5.3560    1.9640   -0.2500 C.3     1  UNL1        0.0430
      6  C          6.5100    1.2140   -0.7760 C.2     1  UNL1       -0.0440
      7  C          7.8250    1.5850   -0.4730 C.2     1  UNL1        0.0080
      8  C          6.3010    0.1190   -1.5830 C.2     1  UNL1        0.0540
      9  C          8.8690    0.8420   -0.9940 C.2     1  UNL1        0.0510
     10  C          7.3600   -0.6290   -2.1070 C.2     1  UNL1        0.1660
     11  C          8.6540   -0.2640   -1.8110 C.2     1  UNL1        0.1650
     12  O          7.4130   -1.7400   -2.9220 O.2     1  UNL1       -0.4540
     13  O          9.4840   -1.1690   -2.4550 O.2     1  UNL1       -0.4540
     14  C          8.7370   -2.1750   -3.0970 C.3     1  UNL1        0.4680
@<TRIPOS>BOND
     1    14    12    1
     2    14    13    1
     3    12    10    1
     4    13    11    1
     5    10    11    2
     6    10     8    1
     7    11     9    1
     8     8     6    2
     9     9     7    2
    10     6     7    1
    11     6     5    1
    12     5     1    1
    13     1     2    1
    14     2     3    1
    15     2     4    2
