MODEL 1
REMARK VINA RESULT:      -7.9      0.000      0.000
REMARK SMILES CC(=O)CCc1ccc2c(c1)OCO2
REMARK SMILES IDX 4 1 2 2 1 3 3 4 5 5 6 6 7 7 11 8 8 9 10 10 9 11 12 12 14 13
REMARK SMILES IDX 13 14
REMARK H PARENT
REMARK Flexibility Score: inf
ROOT
ATOM      1  C   UNL     1       5.489   2.230   1.237  1.00  0.00     0.080 C 
ENDROOT
BRANCH   1   2
ATOM      2  C   UNL     1       4.817   1.170   2.039  1.00  0.00     0.130 C 
ATOM      3  C   UNL     1       5.409  -0.185   2.194  1.00  0.00     0.087 C 
ATOM      4  O   UNL     1       3.752   1.385   2.594  1.00  0.00    -0.300 OA
ENDBRANCH   1   2
BRANCH   1   5
ATOM      5  C   UNL     1       5.356   1.964  -0.250  1.00  0.00     0.043 C 
BRANCH   5   6
ATOM      6  C   UNL     1       6.510   1.214  -0.776  1.00  0.00    -0.044 A 
ATOM      7  C   UNL     1       7.825   1.585  -0.473  1.00  0.00     0.008 A 
ATOM      8  C   UNL     1       6.301   0.119  -1.583  1.00  0.00     0.054 A 
ATOM      9  C   UNL     1       8.869   0.842  -0.994  1.00  0.00     0.051 A 
ATOM     10  C   UNL     1       7.360  -0.629  -2.107  1.00  0.00     0.166 A 
ATOM     11  C   UNL     1       8.654  -0.264  -1.811  1.00  0.00     0.165 A 
ATOM     12  O   UNL     1       7.413  -1.740  -2.922  1.00  0.00    -0.454 OA
ATOM     13  O   UNL     1       9.484  -1.169  -2.455  1.00  0.00    -0.454 OA
ATOM     14  C   UNL     1       8.737  -2.175  -3.097  1.00  0.00     0.468 C 
ENDBRANCH   5   6
ENDBRANCH   1   5
TORSDOF 3
ENDMDL
MODEL 2
REMARK VINA RESULT:      -7.5      2.337      2.909
REMARK SMILES CC(=O)CCc1ccc2c(c1)OCO2
REMARK SMILES IDX 4 1 2 2 1 3 3 4 5 5 6 6 7 7 11 8 8 9 10 10 9 11 12 12 14 13
REMARK SMILES IDX 13 14
REMARK H PARENT
REMARK Flexibility Score: inf
ROOT
ATOM      1  C   UNL     1       5.346   2.969   0.219  1.00  0.00     0.080 C 
ENDROOT
BRANCH   1   2
ATOM      2  C   UNL     1       6.263   3.780   1.067  1.00  0.00     0.130 C 
ATOM      3  C   UNL     1       7.199   4.775   0.477  1.00  0.00     0.087 C 
ATOM      4  O   UNL     1       6.273   3.650   2.281  1.00  0.00    -0.300 OA
ENDBRANCH   1   2
BRANCH   1   5
ATOM      5  C   UNL     1       5.081   1.611   0.837  1.00  0.00     0.043 C 
BRANCH   5   6
ATOM      6  C   UNL     1       5.951   0.569   0.263  1.00  0.00    -0.044 A 
ATOM      7  C   UNL     1       6.387   0.629  -1.066  1.00  0.00     0.008 A 
ATOM      8  C   UNL     1       6.353  -0.491   1.043  1.00  0.00     0.054 A 
ATOM      9  C   UNL     1       7.203  -0.377  -1.550  1.00  0.00     0.051 A 
ATOM     10  C   UNL     1       7.179  -1.505   0.549  1.00  0.00     0.166 A 
ATOM     11  C   UNL     1       7.607  -1.448  -0.758  1.00  0.00     0.165 A 
ATOM     12  O   UNL     1       7.707  -2.646   1.115  1.00  0.00    -0.454 OA
ATOM     13  O   UNL     1       8.399  -2.566  -0.970  1.00  0.00    -0.454 OA
ATOM     14  C   UNL     1       8.563  -3.304   0.217  1.00  0.00     0.468 C 
ENDBRANCH   5   6
ENDBRANCH   1   5
TORSDOF 3
ENDMDL
MODEL 3
REMARK VINA RESULT:      -7.4      2.137      2.648
REMARK SMILES CC(=O)CCc1ccc2c(c1)OCO2
REMARK SMILES IDX 4 1 2 2 1 3 3 4 5 5 6 6 7 7 11 8 8 9 10 10 9 11 12 12 14 13
REMARK SMILES IDX 13 14
REMARK H PARENT
REMARK Flexibility Score: inf
ROOT
ATOM      1  C   UNL     1       5.430   0.033   2.087  1.00  0.00     0.080 C 
ENDROOT
BRANCH   1   2
ATOM      2  C   UNL     1       4.605   1.249   1.844  1.00  0.00     0.130 C 
ATOM      3  C   UNL     1       4.891   2.174   0.715  1.00  0.00     0.087 C 
ATOM      4  O   UNL     1       3.663   1.523   2.570  1.00  0.00    -0.300 OA
ENDBRANCH   1   2
BRANCH   1   5
ATOM      5  C   UNL     1       6.872   0.256   1.675  1.00  0.00     0.043 C 
BRANCH   5   6
ATOM      6  C   UNL     1       7.280  -0.664   0.598  1.00  0.00    -0.044 A 
ATOM      7  C   UNL     1       7.143  -0.319  -0.751  1.00  0.00     0.008 A 
ATOM      8  C   UNL     1       7.813  -1.893   0.916  1.00  0.00     0.054 A 
ATOM      9  C   UNL     1       7.545  -1.222  -1.718  1.00  0.00     0.051 A 
ATOM     10  C   UNL     1       8.218  -2.802  -0.066  1.00  0.00     0.166 A 
ATOM     11  C   UNL     1       8.082  -2.464  -1.394  1.00  0.00     0.165 A 
ATOM     12  O   UNL     1       8.766  -4.066  -0.007  1.00  0.00    -0.454 OA
ATOM     13  O   UNL     1       8.557  -3.538  -2.131  1.00  0.00    -0.454 OA
ATOM     14  C   UNL     1       9.084  -4.537  -1.292  1.00  0.00     0.468 C 
ENDBRANCH   5   6
ENDBRANCH   1   5
TORSDOF 3
ENDMDL
