@<TRIPOS>MOLECULE
/home/cewinharhar/GITHUB/reincatalyze/data/processed/docking_pred/2023-May-22-1531_sub9_nm5_bs15_s42_ex16_mel10_mts1000_k50_ec02_g099_lra9e-4_lrc1e-3/c5f7f675b3df69e676e62d17e40489667b0e6a6f_ligand_9.pdbqt
 14 15 0 0 0
SMALL
GASTEIGER

@<TRIPOS>ATOM
      1  C          5.4300    0.0330    2.0870 C.3     1  UNL1        0.0800
      2  C          4.6050    1.2490    1.8440 C.2     1  UNL1        0.1300
      3  C          4.8910    2.1740    0.7150 C.3     1  UNL1        0.0870
      4  O          3.6630    1.5230    2.5700 O.2     1  UNL1       -0.3000
      5  C          6.8720    0.2560    1.6750 C.3     1  UNL1        0.0430
      6  C          7.2800   -0.6640    0.5980 C.2     1  UNL1       -0.0440
      7  C          7.1430   -0.3190   -0.7510 C.2     1  UNL1        0.0080
      8  C          7.8130   -1.8930    0.9160 C.2     1  UNL1        0.0540
      9  C          7.5450   -1.2220   -1.7180 C.2     1  UNL1        0.0510
     10  C          8.2180   -2.8020   -0.0660 C.2     1  UNL1        0.1660
     11  C          8.0820   -2.4640   -1.3940 C.2     1  UNL1        0.1650
     12  O          8.7660   -4.0660   -0.0070 O.2     1  UNL1       -0.4540
     13  O          8.5570   -3.5380   -2.1310 O.2     1  UNL1       -0.4540
     14  C          9.0840   -4.5370   -1.2920 C.3     1  UNL1        0.4680
@<TRIPOS>BOND
     1    13    11    1
     2    13    14    1
     3     9    11    2
     4     9     7    1
     5    11    10    1
     6    14    12    1
     7     7     6    2
     8    10    12    1
     9    10     8    2
    10     6     8    1
    11     6     5    1
    12     3     2    1
    13     5     1    1
    14     2     1    1
    15     2     4    2
