MODEL 1
REMARK VINA RESULT:      -7.8      0.000      0.000
REMARK SMILES CC(=O)CCc1ccc2c(c1)OCO2
REMARK SMILES IDX 4 1 2 2 1 3 3 4 5 5 6 6 7 7 11 8 8 9 10 10 9 11 12 12 14 13
REMARK SMILES IDX 13 14
REMARK H PARENT
REMARK Flexibility Score: inf
ROOT
ATOM      1  C   UNL     1       5.468   2.893   0.307  1.00  0.00     0.080 C 
ENDROOT
BRANCH   1   2
ATOM      2  C   UNL     1       6.280   3.880   1.071  1.00  0.00     0.130 C 
ATOM      3  C   UNL     1       7.259   4.775   0.398  1.00  0.00     0.087 C 
ATOM      4  O   UNL     1       6.164   3.983   2.282  1.00  0.00    -0.300 OA
ENDBRANCH   1   2
BRANCH   1   5
ATOM      5  C   UNL     1       5.298   1.601   1.082  1.00  0.00     0.043 C 
BRANCH   5   6
ATOM      6  C   UNL     1       6.085   0.503   0.493  1.00  0.00    -0.044 A 
ATOM      7  C   UNL     1       6.478  -0.606   1.252  1.00  0.00     0.008 A 
ATOM      8  C   UNL     1       6.445   0.557  -0.834  1.00  0.00     0.054 A 
ATOM      9  C   UNL     1       7.214  -1.607   0.645  1.00  0.00     0.051 A 
ATOM     10  C   UNL     1       7.189  -0.459  -1.443  1.00  0.00     0.166 A 
ATOM     11  C   UNL     1       7.577  -1.549  -0.697  1.00  0.00     0.165 A 
ATOM     12  O   UNL     1       7.665  -0.635  -2.725  1.00  0.00    -0.454 OA
ATOM     13  O   UNL     1       8.290  -2.382  -1.545  1.00  0.00    -0.454 OA
ATOM     14  C   UNL     1       8.292  -1.884  -2.862  1.00  0.00     0.468 C 
ENDBRANCH   5   6
ENDBRANCH   1   5
TORSDOF 3
ENDMDL
MODEL 2
REMARK VINA RESULT:      -7.7      1.918      2.676
REMARK SMILES CC(=O)CCc1ccc2c(c1)OCO2
REMARK SMILES IDX 4 1 2 2 1 3 3 4 5 5 6 6 7 7 11 8 8 9 10 10 9 11 12 12 14 13
REMARK SMILES IDX 13 14
REMARK H PARENT
REMARK Flexibility Score: inf
ROOT
ATOM      1  C   UNL     1       5.514   1.908   1.269  1.00  0.00     0.080 C 
ENDROOT
BRANCH   1   2
ATOM      2  C   UNL     1       5.067   0.689   2.000  1.00  0.00     0.130 C 
ATOM      3  C   UNL     1       5.951  -0.496   2.155  1.00  0.00     0.087 C 
ATOM      4  O   UNL     1       3.953   0.629   2.496  1.00  0.00    -0.300 OA
ENDBRANCH   1   2
BRANCH   1   5
ATOM      5  C   UNL     1       5.391   1.726  -0.231  1.00  0.00     0.043 C 
BRANCH   5   6
ATOM      6  C   UNL     1       6.559   1.025  -0.794  1.00  0.00    -0.044 A 
ATOM      7  C   UNL     1       7.865   1.463  -0.548  1.00  0.00     0.008 A 
ATOM      8  C   UNL     1       6.372  -0.089  -1.581  1.00  0.00     0.054 A 
ATOM      9  C   UNL     1       8.922   0.765  -1.102  1.00  0.00     0.051 A 
ATOM     10  C   UNL     1       7.445  -0.792  -2.138  1.00  0.00     0.166 A 
ATOM     11  C   UNL     1       8.730  -0.361  -1.897  1.00  0.00     0.165 A 
ATOM     12  O   UNL     1       7.520  -1.909  -2.942  1.00  0.00    -0.454 OA
ATOM     13  O   UNL     1       9.577  -1.233  -2.564  1.00  0.00    -0.454 OA
ATOM     14  C   UNL     1       8.855  -2.282  -3.164  1.00  0.00     0.468 C 
ENDBRANCH   5   6
ENDBRANCH   1   5
TORSDOF 3
ENDMDL
MODEL 3
REMARK VINA RESULT:      -7.7      1.071      2.045
REMARK SMILES CC(=O)CCc1ccc2c(c1)OCO2
REMARK SMILES IDX 4 1 2 2 1 3 3 4 5 5 6 6 7 7 11 8 8 9 10 10 9 11 12 12 14 13
REMARK SMILES IDX 13 14
REMARK H PARENT
REMARK Flexibility Score: inf
ROOT
ATOM      1  C   UNL     1       5.265   3.095   0.245  1.00  0.00     0.080 C 
ENDROOT
BRANCH   1   2
ATOM      2  C   UNL     1       6.308   3.796   1.044  1.00  0.00     0.130 C 
ATOM      3  C   UNL     1       7.257   4.756   0.419  1.00  0.00     0.087 C 
ATOM      4  O   UNL     1       6.414   3.602   2.244  1.00  0.00    -0.300 OA
ENDBRANCH   1   2
BRANCH   1   5
ATOM      5  C   UNL     1       4.936   1.739   0.839  1.00  0.00     0.043 C 
BRANCH   5   6
ATOM      6  C   UNL     1       5.851   0.692   0.351  1.00  0.00    -0.044 A 
ATOM      7  C   UNL     1       6.368   0.718  -0.950  1.00  0.00     0.008 A 
ATOM      8  C   UNL     1       6.216  -0.339   1.187  1.00  0.00     0.054 A 
ATOM      9  C   UNL     1       7.223  -0.292  -1.352  1.00  0.00     0.051 A 
ATOM     10  C   UNL     1       7.082  -1.356   0.776  1.00  0.00     0.166 A 
ATOM     11  C   UNL     1       7.589  -1.333  -0.504  1.00  0.00     0.165 A 
ATOM     12  O   UNL     1       7.587  -2.473   1.408  1.00  0.00    -0.454 OA
ATOM     13  O   UNL     1       8.405  -2.446  -0.632  1.00  0.00    -0.454 OA
ATOM     14  C   UNL     1       8.504  -3.147   0.585  1.00  0.00     0.468 C 
ENDBRANCH   5   6
ENDBRANCH   1   5
TORSDOF 3
ENDMDL
