@<TRIPOS>MOLECULE
/home/cewinharhar/GITHUB/reincatalyze/data/processed/docking_pred/2023-May-22-1531_sub9_nm5_bs15_s42_ex16_mel10_mts1000_k50_ec02_g099_lra9e-4_lrc1e-3/c8a10dea28a77dd5a54e6b3bff917c6d12aef46d_ligand_9.pdbqt
 14 15 0 0 0
SMALL
GASTEIGER

@<TRIPOS>ATOM
      1  C          5.5140    1.9080    1.2690 C.3     1  UNL1        0.0800
      2  C          5.0670    0.6890    2.0000 C.2     1  UNL1        0.1300
      3  C          5.9510   -0.4960    2.1550 C.3     1  UNL1        0.0870
      4  O          3.9530    0.6290    2.4960 O.2     1  UNL1       -0.3000
      5  C          5.3910    1.7260   -0.2310 C.3     1  UNL1        0.0430
      6  C          6.5590    1.0250   -0.7940 C.2     1  UNL1       -0.0440
      7  C          7.8650    1.4630   -0.5480 C.2     1  UNL1        0.0080
      8  C          6.3720   -0.0890   -1.5810 C.2     1  UNL1        0.0540
      9  C          8.9220    0.7650   -1.1020 C.2     1  UNL1        0.0510
     10  C          7.4450   -0.7920   -2.1380 C.2     1  UNL1        0.1660
     11  C          8.7300   -0.3610   -1.8970 C.2     1  UNL1        0.1650
     12  O          7.5200   -1.9090   -2.9420 O.2     1  UNL1       -0.4540
     13  O          9.5770   -1.2330   -2.5640 O.2     1  UNL1       -0.4540
     14  C          8.8550   -2.2820   -3.1640 C.3     1  UNL1        0.4680
@<TRIPOS>BOND
     1    14    12    1
     2    14    13    1
     3    12    10    1
     4    13    11    1
     5    10    11    2
     6    10     8    1
     7    11     9    1
     8     8     6    2
     9     9     7    2
    10     6     7    1
    11     6     5    1
    12     5     1    1
    13     1     2    1
    14     2     3    1
    15     2     4    2
