@<TRIPOS>MOLECULE
/home/cewinharhar/GITHUB/reincatalyze/data/processed/docking_pred/2023-May-22-1531_sub9_nm5_bs15_s42_ex16_mel10_mts1000_k50_ec02_g099_lra9e-4_lrc1e-3/c8a10dea28a77dd5a54e6b3bff917c6d12aef46d_ligand_9.pdbqt
 14 15 0 0 0
SMALL
GASTEIGER

@<TRIPOS>ATOM
      1  C          5.2650    3.0950    0.2450 C.3     1  UNL1        0.0800
      2  C          6.3080    3.7960    1.0440 C.2     1  UNL1        0.1300
      3  C          7.2570    4.7560    0.4190 C.3     1  UNL1        0.0870
      4  O          6.4140    3.6020    2.2440 O.2     1  UNL1       -0.3000
      5  C          4.9360    1.7390    0.8390 C.3     1  UNL1        0.0430
      6  C          5.8510    0.6920    0.3510 C.2     1  UNL1       -0.0440
      7  C          6.3680    0.7180   -0.9500 C.2     1  UNL1        0.0080
      8  C          6.2160   -0.3390    1.1870 C.2     1  UNL1        0.0540
      9  C          7.2230   -0.2920   -1.3520 C.2     1  UNL1        0.0510
     10  C          7.0820   -1.3560    0.7760 C.2     1  UNL1        0.1660
     11  C          7.5890   -1.3330   -0.5040 C.2     1  UNL1        0.1650
     12  O          7.5870   -2.4730    1.4080 O.2     1  UNL1       -0.4540
     13  O          8.4050   -2.4460   -0.6320 O.2     1  UNL1       -0.4540
     14  C          8.5040   -3.1470    0.5850 C.3     1  UNL1        0.4680
@<TRIPOS>BOND
     1     9     7    1
     2     9    11    2
     3     7     6    2
     4    13    11    1
     5    13    14    1
     6    11    10    1
     7     1     5    1
     8     1     2    1
     9     6     5    1
    10     6     8    1
    11     3     2    1
    12    14    12    1
    13    10     8    2
    14    10    12    1
    15     2     4    2
