@<TRIPOS>MOLECULE
/home/cewinharhar/GITHUB/reincatalyze/data/processed/docking_pred/2023-May-22-1531_sub9_nm5_bs15_s42_ex16_mel10_mts1000_k50_ec02_g099_lra9e-4_lrc1e-3/c8a10dea28a77dd5a54e6b3bff917c6d12aef46d_ligand_9.pdbqt
 14 15 0 0 0
SMALL
GASTEIGER

@<TRIPOS>ATOM
      1  C          5.4680    2.8930    0.3070 C.3     1  UNL1        0.0800
      2  C          6.2800    3.8800    1.0710 C.2     1  UNL1        0.1300
      3  C          7.2590    4.7750    0.3980 C.3     1  UNL1        0.0870
      4  O          6.1640    3.9830    2.2820 O.2     1  UNL1       -0.3000
      5  C          5.2980    1.6010    1.0820 C.3     1  UNL1        0.0430
      6  C          6.0850    0.5030    0.4930 C.2     1  UNL1       -0.0440
      7  C          6.4780   -0.6060    1.2520 C.2     1  UNL1        0.0080
      8  C          6.4450    0.5570   -0.8340 C.2     1  UNL1        0.0540
      9  C          7.2140   -1.6070    0.6450 C.2     1  UNL1        0.0510
     10  C          7.1890   -0.4590   -1.4430 C.2     1  UNL1        0.1660
     11  C          7.5770   -1.5490   -0.6970 C.2     1  UNL1        0.1650
     12  O          7.6650   -0.6350   -2.7250 O.2     1  UNL1       -0.4540
     13  O          8.2900   -2.3820   -1.5450 O.2     1  UNL1       -0.4540
     14  C          8.2920   -1.8840   -2.8620 C.3     1  UNL1        0.4680
@<TRIPOS>BOND
     1    14    12    1
     2    14    13    1
     3    12    10    1
     4    13    11    1
     5    10     8    1
     6    10    11    2
     7     8     6    2
     8    11     9    1
     9     1     2    1
    10     1     5    1
    11     3     2    1
    12     6     5    1
    13     6     7    1
    14     9     7    2
    15     2     4    2
