MODEL 1
REMARK VINA RESULT:      -7.9      0.000      0.000
REMARK SMILES CC(=O)CCc1ccc2c(c1)OCO2
REMARK SMILES IDX 4 1 2 2 1 3 3 4 5 5 6 6 7 7 11 8 8 9 10 10 9 11 12 12 14 13
REMARK SMILES IDX 13 14
REMARK H PARENT
REMARK Flexibility Score: inf
ROOT
ATOM      1  C   UNL     1       5.460   2.901   0.186  1.00  0.00     0.080 C 
ENDROOT
BRANCH   1   2
ATOM      2  C   UNL     1       6.294   3.843   0.983  1.00  0.00     0.130 C 
ATOM      3  C   UNL     1       7.256   4.774   0.335  1.00  0.00     0.087 C 
ATOM      4  O   UNL     1       6.212   3.876   2.200  1.00  0.00    -0.300 OA
ENDBRANCH   1   2
BRANCH   1   5
ATOM      5  C   UNL     1       5.222   1.606   0.936  1.00  0.00     0.043 C 
BRANCH   5   6
ATOM      6  C   UNL     1       6.043   0.505   0.401  1.00  0.00    -0.044 A 
ATOM      7  C   UNL     1       6.425  -0.579   1.199  1.00  0.00     0.008 A 
ATOM      8  C   UNL     1       6.446   0.532  -0.915  1.00  0.00     0.054 A 
ATOM      9  C   UNL     1       7.195  -1.584   0.642  1.00  0.00     0.051 A 
ATOM     10  C   UNL     1       7.224  -0.486  -1.474  1.00  0.00     0.166 A 
ATOM     11  C   UNL     1       7.602  -1.553  -0.689  1.00  0.00     0.165 A 
ATOM     12  O   UNL     1       7.745  -0.686  -2.734  1.00  0.00    -0.454 OA
ATOM     13  O   UNL     1       8.354  -2.395  -1.492  1.00  0.00    -0.454 OA
ATOM     14  C   UNL     1       8.394  -1.929  -2.820  1.00  0.00     0.468 C 
ENDBRANCH   5   6
ENDBRANCH   1   5
TORSDOF 3
ENDMDL
MODEL 2
REMARK VINA RESULT:      -7.6      1.898      2.646
REMARK SMILES CC(=O)CCc1ccc2c(c1)OCO2
REMARK SMILES IDX 4 1 2 2 1 3 3 4 5 5 6 6 7 7 11 8 8 9 10 10 9 11 12 12 14 13
REMARK SMILES IDX 13 14
REMARK H PARENT
REMARK Flexibility Score: inf
ROOT
ATOM      1  C   UNL     1       5.551   1.927   1.265  1.00  0.00     0.080 C 
ENDROOT
BRANCH   1   2
ATOM      2  C   UNL     1       5.127   0.709   2.009  1.00  0.00     0.130 C 
ATOM      3  C   UNL     1       6.041  -0.450   2.196  1.00  0.00     0.087 C 
ATOM      4  O   UNL     1       4.008   0.626   2.490  1.00  0.00    -0.300 OA
ENDBRANCH   1   2
BRANCH   1   5
ATOM      5  C   UNL     1       5.421   1.731  -0.232  1.00  0.00     0.043 C 
BRANCH   5   6
ATOM      6  C   UNL     1       6.587   1.026  -0.794  1.00  0.00    -0.044 A 
ATOM      7  C   UNL     1       7.895   1.452  -0.536  1.00  0.00     0.008 A 
ATOM      8  C   UNL     1       6.397  -0.081  -1.590  1.00  0.00     0.054 A 
ATOM      9  C   UNL     1       8.951   0.750  -1.090  1.00  0.00     0.051 A 
ATOM     10  C   UNL     1       7.467  -0.787  -2.147  1.00  0.00     0.166 A 
ATOM     11  C   UNL     1       8.755  -0.368  -1.895  1.00  0.00     0.165 A 
ATOM     12  O   UNL     1       7.539  -1.899  -2.959  1.00  0.00    -0.454 OA
ATOM     13  O   UNL     1       9.599  -1.241  -2.563  1.00  0.00    -0.454 OA
ATOM     14  C   UNL     1       8.873  -2.280  -3.176  1.00  0.00     0.468 C 
ENDBRANCH   5   6
ENDBRANCH   1   5
TORSDOF 3
ENDMDL
MODEL 3
REMARK VINA RESULT:      -7.5      1.952      3.035
REMARK SMILES CC(=O)CCc1ccc2c(c1)OCO2
REMARK SMILES IDX 4 1 2 2 1 3 3 4 5 5 6 6 7 7 11 8 8 9 10 10 9 11 12 12 14 13
REMARK SMILES IDX 13 14
REMARK H PARENT
REMARK Flexibility Score: inf
ROOT
ATOM      1  C   UNL     1       5.728   1.289  -0.316  1.00  0.00     0.080 C 
ENDROOT
BRANCH   1   2
ATOM      2  C   UNL     1       5.173   1.289   1.066  1.00  0.00     0.130 C 
ATOM      3  C   UNL     1       5.324   0.115   1.968  1.00  0.00     0.087 C 
ATOM      4  O   UNL     1       4.573   2.259   1.501  1.00  0.00    -0.300 OA
ENDBRANCH   1   2
BRANCH   1   5
ATOM      5  C   UNL     1       7.230   1.087  -0.306  1.00  0.00     0.043 C 
BRANCH   5   6
ATOM      6  C   UNL     1       7.611  -0.206  -0.901  1.00  0.00    -0.044 A 
ATOM      7  C   UNL     1       7.700  -0.378  -2.287  1.00  0.00     0.008 A 
ATOM      8  C   UNL     1       7.891  -1.277  -0.083  1.00  0.00     0.054 A 
ATOM      9  C   UNL     1       8.064  -1.614  -2.789  1.00  0.00     0.051 A 
ATOM     10  C   UNL     1       8.259  -2.525  -0.595  1.00  0.00     0.166 A 
ATOM     11  C   UNL     1       8.346  -2.695  -1.959  1.00  0.00     0.165 A 
ATOM     12  O   UNL     1       8.582  -3.727  -0.001  1.00  0.00    -0.454 OA
ATOM     13  O   UNL     1       8.725  -4.011  -2.176  1.00  0.00    -0.454 OA
ATOM     14  C   UNL     1       8.973  -4.675  -0.960  1.00  0.00     0.468 C 
ENDBRANCH   5   6
ENDBRANCH   1   5
TORSDOF 3
ENDMDL
