@<TRIPOS>MOLECULE
/home/cewinharhar/GITHUB/reincatalyze/data/processed/docking_pred/2023-May-22-1531_sub9_nm5_bs15_s42_ex16_mel10_mts1000_k50_ec02_g099_lra9e-4_lrc1e-3/cc4a81c85f0f72a0e9860fd8246284f5ccc1e781_ligand_9.pdbqt
 14 15 0 0 0
SMALL
GASTEIGER

@<TRIPOS>ATOM
      1  C          5.7280    1.2890   -0.3160 C.3     1  UNL1        0.0800
      2  C          5.1730    1.2890    1.0660 C.2     1  UNL1        0.1300
      3  C          5.3240    0.1150    1.9680 C.3     1  UNL1        0.0870
      4  O          4.5730    2.2590    1.5010 O.2     1  UNL1       -0.3000
      5  C          7.2300    1.0870   -0.3060 C.3     1  UNL1        0.0430
      6  C          7.6110   -0.2060   -0.9010 C.2     1  UNL1       -0.0440
      7  C          7.7000   -0.3780   -2.2870 C.2     1  UNL1        0.0080
      8  C          7.8910   -1.2770   -0.0830 C.2     1  UNL1        0.0540
      9  C          8.0640   -1.6140   -2.7890 C.2     1  UNL1        0.0510
     10  C          8.2590   -2.5250   -0.5950 C.2     1  UNL1        0.1660
     11  C          8.3460   -2.6950   -1.9590 C.2     1  UNL1        0.1650
     12  O          8.5820   -3.7270   -0.0010 O.2     1  UNL1       -0.4540
     13  O          8.7250   -4.0110   -2.1760 O.2     1  UNL1       -0.4540
     14  C          8.9730   -4.6750   -0.9600 C.3     1  UNL1        0.4680
@<TRIPOS>BOND
     1     9     7    1
     2     9    11    2
     3     7     6    2
     4    13    11    1
     5    13    14    1
     6    11    10    1
     7    14    12    1
     8     6     5    1
     9     6     8    1
    10    10     8    2
    11    10    12    1
    12     1     5    1
    13     1     2    1
    14     2     4    2
    15     2     3    1
