@<TRIPOS>MOLECULE
/home/cewinharhar/GITHUB/reincatalyze/data/processed/docking_pred/2023-May-22-1531_sub9_nm5_bs15_s42_ex16_mel10_mts1000_k50_ec02_g099_lra9e-4_lrc1e-3/cc4a81c85f0f72a0e9860fd8246284f5ccc1e781_ligand_9.pdbqt
 14 15 0 0 0
SMALL
GASTEIGER

@<TRIPOS>ATOM
      1  C          5.4600    2.9010    0.1860 C.3     1  UNL1        0.0800
      2  C          6.2940    3.8430    0.9830 C.2     1  UNL1        0.1300
      3  C          7.2560    4.7740    0.3350 C.3     1  UNL1        0.0870
      4  O          6.2120    3.8760    2.2000 O.2     1  UNL1       -0.3000
      5  C          5.2220    1.6060    0.9360 C.3     1  UNL1        0.0430
      6  C          6.0430    0.5050    0.4010 C.2     1  UNL1       -0.0440
      7  C          6.4250   -0.5790    1.1990 C.2     1  UNL1        0.0080
      8  C          6.4460    0.5320   -0.9150 C.2     1  UNL1        0.0540
      9  C          7.1950   -1.5840    0.6420 C.2     1  UNL1        0.0510
     10  C          7.2240   -0.4860   -1.4740 C.2     1  UNL1        0.1660
     11  C          7.6020   -1.5530   -0.6890 C.2     1  UNL1        0.1650
     12  O          7.7450   -0.6860   -2.7340 O.2     1  UNL1       -0.4540
     13  O          8.3540   -2.3950   -1.4920 O.2     1  UNL1       -0.4540
     14  C          8.3940   -1.9290   -2.8200 C.3     1  UNL1        0.4680
@<TRIPOS>BOND
     1    14    12    1
     2    14    13    1
     3    12    10    1
     4    13    11    1
     5    10     8    1
     6    10    11    2
     7     8     6    2
     8    11     9    1
     9     1     5    1
    10     1     2    1
    11     3     2    1
    12     6     5    1
    13     6     7    1
    14     9     7    2
    15     2     4    2
