@<TRIPOS>MOLECULE
/home/cewinharhar/GITHUB/reincatalyze/data/processed/docking_pred/2023-May-22-1531_sub9_nm5_bs15_s42_ex16_mel10_mts1000_k50_ec02_g099_lra9e-4_lrc1e-3/cc4a81c85f0f72a0e9860fd8246284f5ccc1e781_ligand_9.pdbqt
 14 15 0 0 0
SMALL
GASTEIGER

@<TRIPOS>ATOM
      1  C          5.5510    1.9270    1.2650 C.3     1  UNL1        0.0800
      2  C          5.1270    0.7090    2.0090 C.2     1  UNL1        0.1300
      3  C          6.0410   -0.4500    2.1960 C.3     1  UNL1        0.0870
      4  O          4.0080    0.6260    2.4900 O.2     1  UNL1       -0.3000
      5  C          5.4210    1.7310   -0.2320 C.3     1  UNL1        0.0430
      6  C          6.5870    1.0260   -0.7940 C.2     1  UNL1       -0.0440
      7  C          7.8950    1.4520   -0.5360 C.2     1  UNL1        0.0080
      8  C          6.3970   -0.0810   -1.5900 C.2     1  UNL1        0.0540
      9  C          8.9510    0.7500   -1.0900 C.2     1  UNL1        0.0510
     10  C          7.4670   -0.7870   -2.1470 C.2     1  UNL1        0.1660
     11  C          8.7550   -0.3680   -1.8950 C.2     1  UNL1        0.1650
     12  O          7.5390   -1.8990   -2.9590 O.2     1  UNL1       -0.4540
     13  O          9.5990   -1.2410   -2.5630 O.2     1  UNL1       -0.4540
     14  C          8.8730   -2.2800   -3.1760 C.3     1  UNL1        0.4680
@<TRIPOS>BOND
     1    14    12    1
     2    14    13    1
     3    12    10    1
     4    13    11    1
     5    10    11    2
     6    10     8    1
     7    11     9    1
     8     8     6    2
     9     9     7    2
    10     6     7    1
    11     6     5    1
    12     5     1    1
    13     1     2    1
    14     2     3    1
    15     2     4    2
