@<TRIPOS>MOLECULE
/home/cewinharhar/GITHUB/reincatalyze/data/processed/docking_pred/2023-May-22-1531_sub9_nm5_bs15_s42_ex16_mel10_mts1000_k50_ec02_g099_lra9e-4_lrc1e-3/cf36f354a35629e8f67fe5763b2daf9f978d0e2b_ligand_9.pdbqt
 14 15 0 0 0
SMALL
GASTEIGER

@<TRIPOS>ATOM
      1  C          5.5040    1.8960    1.2660 C.3     1  UNL1        0.0800
      2  C          5.0420    0.6740    1.9800 C.2     1  UNL1        0.1300
      3  C          5.9160   -0.5200    2.1300 C.3     1  UNL1        0.0870
      4  O          3.9240    0.6170    2.4670 O.2     1  UNL1       -0.3000
      5  C          5.3890    1.7320   -0.2370 C.3     1  UNL1        0.0430
      6  C          6.5570    1.0320   -0.8010 C.2     1  UNL1       -0.0440
      7  C          7.8630    1.4720   -0.5580 C.2     1  UNL1        0.0080
      8  C          6.3700   -0.0830   -1.5870 C.2     1  UNL1        0.0540
      9  C          8.9200    0.7740   -1.1130 C.2     1  UNL1        0.0510
     10  C          7.4420   -0.7840   -2.1460 C.2     1  UNL1        0.1660
     11  C          8.7280   -0.3520   -1.9070 C.2     1  UNL1        0.1650
     12  O          7.5170   -1.9030   -2.9480 O.2     1  UNL1       -0.4540
     13  O          9.5740   -1.2240   -2.5750 O.2     1  UNL1       -0.4540
     14  C          8.8530   -2.2740   -3.1730 C.3     1  UNL1        0.4680
@<TRIPOS>BOND
     1    14    12    1
     2    14    13    1
     3    12    10    1
     4    13    11    1
     5    10    11    2
     6    10     8    1
     7    11     9    1
     8     8     6    2
     9     9     7    2
    10     6     7    1
    11     6     5    1
    12     5     1    1
    13     1     2    1
    14     2     3    1
    15     2     4    2
