MODEL 1
REMARK VINA RESULT:      -7.6      0.000      0.000
REMARK SMILES CC(=O)CCc1ccc2c(c1)OCO2
REMARK SMILES IDX 4 1 2 2 1 3 3 4 5 5 6 6 7 7 11 8 8 9 10 10 9 11 12 12 14 13
REMARK SMILES IDX 13 14
REMARK H PARENT
REMARK Flexibility Score: inf
ROOT
ATOM      1  C   UNL     1       5.504   1.896   1.266  1.00  0.00     0.080 C 
ENDROOT
BRANCH   1   2
ATOM      2  C   UNL     1       5.042   0.674   1.980  1.00  0.00     0.130 C 
ATOM      3  C   UNL     1       5.916  -0.520   2.130  1.00  0.00     0.087 C 
ATOM      4  O   UNL     1       3.924   0.617   2.467  1.00  0.00    -0.300 OA
ENDBRANCH   1   2
BRANCH   1   5
ATOM      5  C   UNL     1       5.389   1.732  -0.237  1.00  0.00     0.043 C 
BRANCH   5   6
ATOM      6  C   UNL     1       6.557   1.032  -0.801  1.00  0.00    -0.044 A 
ATOM      7  C   UNL     1       7.863   1.472  -0.558  1.00  0.00     0.008 A 
ATOM      8  C   UNL     1       6.370  -0.083  -1.587  1.00  0.00     0.054 A 
ATOM      9  C   UNL     1       8.920   0.774  -1.113  1.00  0.00     0.051 A 
ATOM     10  C   UNL     1       7.442  -0.784  -2.146  1.00  0.00     0.166 A 
ATOM     11  C   UNL     1       8.728  -0.352  -1.907  1.00  0.00     0.165 A 
ATOM     12  O   UNL     1       7.517  -1.903  -2.948  1.00  0.00    -0.454 OA
ATOM     13  O   UNL     1       9.574  -1.224  -2.575  1.00  0.00    -0.454 OA
ATOM     14  C   UNL     1       8.853  -2.274  -3.173  1.00  0.00     0.468 C 
ENDBRANCH   5   6
ENDBRANCH   1   5
TORSDOF 3
ENDMDL
MODEL 2
REMARK VINA RESULT:      -7.5      1.928      2.403
REMARK SMILES CC(=O)CCc1ccc2c(c1)OCO2
REMARK SMILES IDX 4 1 2 2 1 3 3 4 5 5 6 6 7 7 11 8 8 9 10 10 9 11 12 12 14 13
REMARK SMILES IDX 13 14
REMARK H PARENT
REMARK Flexibility Score: inf
ROOT
ATOM      1  C   UNL     1       5.747   1.328  -0.312  1.00  0.00     0.080 C 
ENDROOT
BRANCH   1   2
ATOM      2  C   UNL     1       5.173   1.297   1.062  1.00  0.00     0.130 C 
ATOM      3  C   UNL     1       5.352   0.121   1.956  1.00  0.00     0.087 C 
ATOM      4  O   UNL     1       4.534   2.241   1.496  1.00  0.00    -0.300 OA
ENDBRANCH   1   2
BRANCH   1   5
ATOM      5  C   UNL     1       7.246   1.106  -0.288  1.00  0.00     0.043 C 
BRANCH   5   6
ATOM      6  C   UNL     1       7.616  -0.189  -0.888  1.00  0.00    -0.044 A 
ATOM      7  C   UNL     1       7.682  -0.361  -2.275  1.00  0.00     0.008 A 
ATOM      8  C   UNL     1       7.909  -1.259  -0.074  1.00  0.00     0.054 A 
ATOM      9  C   UNL     1       8.036  -1.599  -2.781  1.00  0.00     0.051 A 
ATOM     10  C   UNL     1       8.267  -2.508  -0.590  1.00  0.00     0.166 A 
ATOM     11  C   UNL     1       8.331  -2.679  -1.955  1.00  0.00     0.165 A 
ATOM     12  O   UNL     1       8.597  -3.709  -0.000  1.00  0.00    -0.454 OA
ATOM     13  O   UNL     1       8.704  -3.995  -2.177  1.00  0.00    -0.454 OA
ATOM     14  C   UNL     1       8.972  -4.659  -0.965  1.00  0.00     0.468 C 
ENDBRANCH   5   6
ENDBRANCH   1   5
TORSDOF 3
ENDMDL
MODEL 3
REMARK VINA RESULT:      -7.3      2.182      2.803
REMARK SMILES CC(=O)CCc1ccc2c(c1)OCO2
REMARK SMILES IDX 4 1 2 2 1 3 3 4 5 5 6 6 7 7 11 8 8 9 10 10 9 11 12 12 14 13
REMARK SMILES IDX 13 14
REMARK H PARENT
REMARK Flexibility Score: inf
ROOT
ATOM      1  C   UNL     1       6.882   2.125  -0.157  1.00  0.00     0.080 C 
ENDROOT
BRANCH   1   2
ATOM      2  C   UNL     1       6.082   2.923   0.814  1.00  0.00     0.130 C 
ATOM      3  C   UNL     1       6.539   4.255   1.295  1.00  0.00     0.087 C 
ATOM      4  O   UNL     1       5.020   2.504   1.246  1.00  0.00    -0.300 OA
ENDBRANCH   1   2
BRANCH   1   5
ATOM      5  C   UNL     1       6.100   0.929  -0.662  1.00  0.00     0.043 C 
BRANCH   5   6
ATOM      6  C   UNL     1       6.790  -0.339  -0.366  1.00  0.00    -0.044 A 
ATOM      7  C   UNL     1       6.972  -0.786   0.947  1.00  0.00     0.008 A 
ATOM      8  C   UNL     1       7.269  -1.112  -1.400  1.00  0.00     0.054 A 
ATOM      9  C   UNL     1       7.627  -1.984   1.164  1.00  0.00     0.051 A 
ATOM     10  C   UNL     1       7.929  -2.324  -1.175  1.00  0.00     0.166 A 
ATOM     11  C   UNL     1       8.110  -2.763   0.117  1.00  0.00     0.165 A 
ATOM     12  O   UNL     1       8.489  -3.259  -2.019  1.00  0.00    -0.454 OA
ATOM     13  O   UNL     1       8.784  -3.972   0.039  1.00  0.00    -0.454 OA
ATOM     14  C   UNL     1       8.964  -4.368  -1.300  1.00  0.00     0.468 C 
ENDBRANCH   5   6
ENDBRANCH   1   5
TORSDOF 3
ENDMDL
