@<TRIPOS>MOLECULE
/home/cewinharhar/GITHUB/reincatalyze/data/processed/docking_pred/2023-May-22-1531_sub9_nm5_bs15_s42_ex16_mel10_mts1000_k50_ec02_g099_lra9e-4_lrc1e-3/cf36f354a35629e8f67fe5763b2daf9f978d0e2b_ligand_9.pdbqt
 14 15 0 0 0
SMALL
GASTEIGER

@<TRIPOS>ATOM
      1  C          5.7470    1.3280   -0.3120 C.3     1  UNL1        0.0800
      2  C          5.1730    1.2970    1.0620 C.2     1  UNL1        0.1300
      3  C          5.3520    0.1210    1.9560 C.3     1  UNL1        0.0870
      4  O          4.5340    2.2410    1.4960 O.2     1  UNL1       -0.3000
      5  C          7.2460    1.1060   -0.2880 C.3     1  UNL1        0.0430
      6  C          7.6160   -0.1890   -0.8880 C.2     1  UNL1       -0.0440
      7  C          7.6820   -0.3610   -2.2750 C.2     1  UNL1        0.0080
      8  C          7.9090   -1.2590   -0.0740 C.2     1  UNL1        0.0540
      9  C          8.0360   -1.5990   -2.7810 C.2     1  UNL1        0.0510
     10  C          8.2670   -2.5080   -0.5900 C.2     1  UNL1        0.1660
     11  C          8.3310   -2.6790   -1.9550 C.2     1  UNL1        0.1650
     12  O          8.5970   -3.7090   -0.0000 O.2     1  UNL1       -0.4540
     13  O          8.7040   -3.9950   -2.1770 O.2     1  UNL1       -0.4540
     14  C          8.9720   -4.6590   -0.9650 C.3     1  UNL1        0.4680
@<TRIPOS>BOND
     1     9     7    1
     2     9    11    2
     3     7     6    2
     4    13    11    1
     5    13    14    1
     6    11    10    1
     7    14    12    1
     8     6     5    1
     9     6     8    1
    10    10     8    2
    11    10    12    1
    12     1     5    1
    13     1     2    1
    14     2     4    2
    15     2     3    1
