@<TRIPOS>MOLECULE
/home/cewinharhar/GITHUB/reincatalyze/data/processed/docking_pred/2023-May-22-1531_sub9_nm5_bs15_s42_ex16_mel10_mts1000_k50_ec02_g099_lra9e-4_lrc1e-3/cf36f354a35629e8f67fe5763b2daf9f978d0e2b_ligand_9.pdbqt
 14 15 0 0 0
SMALL
GASTEIGER

@<TRIPOS>ATOM
      1  C          6.8820    2.1250   -0.1570 C.3     1  UNL1        0.0800
      2  C          6.0820    2.9230    0.8140 C.2     1  UNL1        0.1300
      3  C          6.5390    4.2550    1.2950 C.3     1  UNL1        0.0870
      4  O          5.0200    2.5040    1.2460 O.2     1  UNL1       -0.3000
      5  C          6.1000    0.9290   -0.6620 C.3     1  UNL1        0.0430
      6  C          6.7900   -0.3390   -0.3660 C.2     1  UNL1       -0.0440
      7  C          6.9720   -0.7860    0.9470 C.2     1  UNL1        0.0080
      8  C          7.2690   -1.1120   -1.4000 C.2     1  UNL1        0.0540
      9  C          7.6270   -1.9840    1.1640 C.2     1  UNL1        0.0510
     10  C          7.9290   -2.3240   -1.1750 C.2     1  UNL1        0.1660
     11  C          8.1100   -2.7630    0.1170 C.2     1  UNL1        0.1650
     12  O          8.4890   -3.2590   -2.0190 O.2     1  UNL1       -0.4540
     13  O          8.7840   -3.9720    0.0390 O.2     1  UNL1       -0.4540
     14  C          8.9640   -4.3680   -1.3000 C.3     1  UNL1        0.4680
@<TRIPOS>BOND
     1    12    14    1
     2    12    10    1
     3     8    10    1
     4     8     6    2
     5    14    13    1
     6    10    11    2
     7     5     6    1
     8     5     1    1
     9     6     7    1
    10     1     2    1
    11    13    11    1
    12    11     9    1
    13     2     4    2
    14     2     3    1
    15     7     9    2
