@<TRIPOS>MOLECULE
/home/cewinharhar/GITHUB/reincatalyze/data/processed/docking_pred/2023-May-22-1531_sub9_nm5_bs15_s42_ex16_mel10_mts1000_k50_ec02_g099_lra9e-4_lrc1e-3/d0b377ce7413ba2d0a06352180e6db5bf746794c_ligand_9.pdbqt
 14 15 0 0 0
SMALL
GASTEIGER

@<TRIPOS>ATOM
      1  C          5.4460    2.8920    0.3040 C.3     1  UNL1        0.0800
      2  C          6.3790    3.7600    1.0750 C.2     1  UNL1        0.1300
      3  C          7.2440    4.7660    0.4030 C.3     1  UNL1        0.0870
      4  O          6.4600    3.6700    2.2890 O.2     1  UNL1       -0.3000
      5  C          5.2100    1.5730    1.0120 C.3     1  UNL1        0.0430
      6  C          6.0460    0.4950    0.4530 C.2     1  UNL1       -0.0440
      7  C          6.4240   -0.6120    1.2210 C.2     1  UNL1        0.0080
      8  C          6.4680    0.5680   -0.8550 C.2     1  UNL1        0.0540
      9  C          7.2090   -1.5930    0.6430 C.2     1  UNL1        0.0510
     10  C          7.2600   -0.4270   -1.4350 C.2     1  UNL1        0.1660
     11  C          7.6340   -1.5160   -0.6800 C.2     1  UNL1        0.1650
     12  O          7.8010   -0.5820   -2.6940 O.2     1  UNL1       -0.4540
     13  O          8.4030   -2.3270   -1.5000 O.2     1  UNL1       -0.4540
     14  C          8.4590   -1.8180   -2.8110 C.3     1  UNL1        0.4680
@<TRIPOS>BOND
     1    14    12    1
     2    14    13    1
     3    12    10    1
     4    13    11    1
     5    10     8    1
     6    10    11    2
     7     8     6    2
     8    11     9    1
     9     1     5    1
    10     1     2    1
    11     3     2    1
    12     6     5    1
    13     6     7    1
    14     9     7    2
    15     2     4    2
