@<TRIPOS>MOLECULE
/home/cewinharhar/GITHUB/reincatalyze/data/processed/docking_pred/2023-May-22-1531_sub9_nm5_bs15_s42_ex16_mel10_mts1000_k50_ec02_g099_lra9e-4_lrc1e-3/d0b377ce7413ba2d0a06352180e6db5bf746794c_ligand_9.pdbqt
 14 15 0 0 0
SMALL
GASTEIGER

@<TRIPOS>ATOM
      1  C          5.5440    1.9150    1.2700 C.3     1  UNL1        0.0800
      2  C          5.1080    0.6950    2.0060 C.2     1  UNL1        0.1300
      3  C          6.0120   -0.4720    2.1880 C.3     1  UNL1        0.0870
      4  O          3.9880    0.6180    2.4840 O.2     1  UNL1       -0.3000
      5  C          5.4150    1.7290   -0.2290 C.3     1  UNL1        0.0430
      6  C          6.5790    1.0240   -0.7940 C.2     1  UNL1       -0.0440
      7  C          7.8880    1.4550   -0.5470 C.2     1  UNL1        0.0080
      8  C          6.3870   -0.0870   -1.5830 C.2     1  UNL1        0.0540
      9  C          8.9410    0.7530   -1.1040 C.2     1  UNL1        0.0510
     10  C          7.4560   -0.7940   -2.1430 C.2     1  UNL1        0.1660
     11  C          8.7430   -0.3690   -1.9020 C.2     1  UNL1        0.1650
     12  O          7.5250   -1.9100   -2.9490 O.2     1  UNL1       -0.4540
     13  O          9.5850   -1.2440   -2.5710 O.2     1  UNL1       -0.4540
     14  C          8.8590   -2.2880   -3.1730 C.3     1  UNL1        0.4680
@<TRIPOS>BOND
     1    14    12    1
     2    14    13    1
     3    12    10    1
     4    13    11    1
     5    10    11    2
     6    10     8    1
     7    11     9    1
     8     8     6    2
     9     9     7    2
    10     6     7    1
    11     6     5    1
    12     5     1    1
    13     1     2    1
    14     2     3    1
    15     2     4    2
