@<TRIPOS>MOLECULE
/home/cewinharhar/GITHUB/reincatalyze/data/processed/docking_pred/2023-May-22-1531_sub9_nm5_bs15_s42_ex16_mel10_mts1000_k50_ec02_g099_lra9e-4_lrc1e-3/d0b377ce7413ba2d0a06352180e6db5bf746794c_ligand_9.pdbqt
 14 15 0 0 0
SMALL
GASTEIGER

@<TRIPOS>ATOM
      1  C          5.6840    2.8910   -0.1530 C.3     1  UNL1        0.0800
      2  C          6.3400    3.7850    0.8410 C.2     1  UNL1        0.1300
      3  C          7.3750    4.7750    0.4380 C.3     1  UNL1        0.0870
      4  O          6.0460    3.7300    2.0240 O.2     1  UNL1       -0.3000
      5  C          5.3010    1.5630    0.4700 C.3     1  UNL1        0.0430
      6  C          6.1430    0.4620   -0.0310 C.2     1  UNL1       -0.0440
      7  C          6.5830    0.4210   -1.3590 C.2     1  UNL1        0.0080
      8  C          6.5140   -0.5540    0.8200 C.2     1  UNL1        0.0540
      9  C          7.3720   -0.6370   -1.7720 C.2     1  UNL1        0.0510
     10  C          7.3130   -1.6210    0.3980 C.2     1  UNL1        0.1660
     11  C          7.7450   -1.6630   -0.9090 C.2     1  UNL1        0.1650
     12  O          7.8090   -2.7360    1.0410 O.2     1  UNL1       -0.4540
     13  O          8.5060   -2.8140   -1.0430 O.2     1  UNL1       -0.4540
     14  C          8.6480   -3.4760    0.1920 C.3     1  UNL1        0.4680
@<TRIPOS>BOND
     1     9     7    1
     2     9    11    2
     3     7     6    2
     4    13    11    1
     5    13    14    1
     6    11    10    1
     7     1     5    1
     8     1     2    1
     9     6     5    1
    10     6     8    1
    11    14    12    1
    12    10     8    2
    13    10    12    1
    14     3     2    1
    15     2     4    2
