MODEL 1
REMARK VINA RESULT:      -7.8      0.000      0.000
REMARK SMILES CC(=O)CCc1ccc2c(c1)OCO2
REMARK SMILES IDX 4 1 2 2 1 3 3 4 5 5 6 6 7 7 11 8 8 9 10 10 9 11 12 12 14 13
REMARK SMILES IDX 13 14
REMARK H PARENT
REMARK Flexibility Score: inf
ROOT
ATOM      1  C   UNL     1       5.446   2.892   0.304  1.00  0.00     0.080 C 
ENDROOT
BRANCH   1   2
ATOM      2  C   UNL     1       6.379   3.760   1.075  1.00  0.00     0.130 C 
ATOM      3  C   UNL     1       7.244   4.766   0.403  1.00  0.00     0.087 C 
ATOM      4  O   UNL     1       6.460   3.670   2.289  1.00  0.00    -0.300 OA
ENDBRANCH   1   2
BRANCH   1   5
ATOM      5  C   UNL     1       5.210   1.573   1.012  1.00  0.00     0.043 C 
BRANCH   5   6
ATOM      6  C   UNL     1       6.046   0.495   0.453  1.00  0.00    -0.044 A 
ATOM      7  C   UNL     1       6.424  -0.612   1.221  1.00  0.00     0.008 A 
ATOM      8  C   UNL     1       6.468   0.568  -0.855  1.00  0.00     0.054 A 
ATOM      9  C   UNL     1       7.209  -1.593   0.643  1.00  0.00     0.051 A 
ATOM     10  C   UNL     1       7.260  -0.427  -1.435  1.00  0.00     0.166 A 
ATOM     11  C   UNL     1       7.634  -1.516  -0.680  1.00  0.00     0.165 A 
ATOM     12  O   UNL     1       7.801  -0.582  -2.694  1.00  0.00    -0.454 OA
ATOM     13  O   UNL     1       8.403  -2.327  -1.500  1.00  0.00    -0.454 OA
ATOM     14  C   UNL     1       8.459  -1.818  -2.811  1.00  0.00     0.468 C 
ENDBRANCH   5   6
ENDBRANCH   1   5
TORSDOF 3
ENDMDL
MODEL 2
REMARK VINA RESULT:      -7.6      1.034      1.990
REMARK SMILES CC(=O)CCc1ccc2c(c1)OCO2
REMARK SMILES IDX 4 1 2 2 1 3 3 4 5 5 6 6 7 7 11 8 8 9 10 10 9 11 12 12 14 13
REMARK SMILES IDX 13 14
REMARK H PARENT
REMARK Flexibility Score: inf
ROOT
ATOM      1  C   UNL     1       5.684   2.891  -0.153  1.00  0.00     0.080 C 
ENDROOT
BRANCH   1   2
ATOM      2  C   UNL     1       6.340   3.785   0.841  1.00  0.00     0.130 C 
ATOM      3  C   UNL     1       7.375   4.775   0.438  1.00  0.00     0.087 C 
ATOM      4  O   UNL     1       6.046   3.730   2.024  1.00  0.00    -0.300 OA
ENDBRANCH   1   2
BRANCH   1   5
ATOM      5  C   UNL     1       5.301   1.563   0.470  1.00  0.00     0.043 C 
BRANCH   5   6
ATOM      6  C   UNL     1       6.143   0.462  -0.031  1.00  0.00    -0.044 A 
ATOM      7  C   UNL     1       6.583   0.421  -1.359  1.00  0.00     0.008 A 
ATOM      8  C   UNL     1       6.514  -0.554   0.820  1.00  0.00     0.054 A 
ATOM      9  C   UNL     1       7.372  -0.637  -1.772  1.00  0.00     0.051 A 
ATOM     10  C   UNL     1       7.313  -1.621   0.398  1.00  0.00     0.166 A 
ATOM     11  C   UNL     1       7.745  -1.663  -0.909  1.00  0.00     0.165 A 
ATOM     12  O   UNL     1       7.809  -2.736   1.041  1.00  0.00    -0.454 OA
ATOM     13  O   UNL     1       8.506  -2.814  -1.043  1.00  0.00    -0.454 OA
ATOM     14  C   UNL     1       8.648  -3.476   0.192  1.00  0.00     0.468 C 
ENDBRANCH   5   6
ENDBRANCH   1   5
TORSDOF 3
ENDMDL
MODEL 3
REMARK VINA RESULT:      -7.6      1.903      2.646
REMARK SMILES CC(=O)CCc1ccc2c(c1)OCO2
REMARK SMILES IDX 4 1 2 2 1 3 3 4 5 5 6 6 7 7 11 8 8 9 10 10 9 11 12 12 14 13
REMARK SMILES IDX 13 14
REMARK H PARENT
REMARK Flexibility Score: inf
ROOT
ATOM      1  C   UNL     1       5.544   1.915   1.270  1.00  0.00     0.080 C 
ENDROOT
BRANCH   1   2
ATOM      2  C   UNL     1       5.108   0.695   2.006  1.00  0.00     0.130 C 
ATOM      3  C   UNL     1       6.012  -0.472   2.188  1.00  0.00     0.087 C 
ATOM      4  O   UNL     1       3.988   0.618   2.484  1.00  0.00    -0.300 OA
ENDBRANCH   1   2
BRANCH   1   5
ATOM      5  C   UNL     1       5.415   1.729  -0.229  1.00  0.00     0.043 C 
BRANCH   5   6
ATOM      6  C   UNL     1       6.579   1.024  -0.794  1.00  0.00    -0.044 A 
ATOM      7  C   UNL     1       7.888   1.455  -0.547  1.00  0.00     0.008 A 
ATOM      8  C   UNL     1       6.387  -0.087  -1.583  1.00  0.00     0.054 A 
ATOM      9  C   UNL     1       8.941   0.753  -1.104  1.00  0.00     0.051 A 
ATOM     10  C   UNL     1       7.456  -0.794  -2.143  1.00  0.00     0.166 A 
ATOM     11  C   UNL     1       8.743  -0.369  -1.902  1.00  0.00     0.165 A 
ATOM     12  O   UNL     1       7.525  -1.910  -2.949  1.00  0.00    -0.454 OA
ATOM     13  O   UNL     1       9.585  -1.244  -2.571  1.00  0.00    -0.454 OA
ATOM     14  C   UNL     1       8.859  -2.288  -3.173  1.00  0.00     0.468 C 
ENDBRANCH   5   6
ENDBRANCH   1   5
TORSDOF 3
ENDMDL
