@<TRIPOS>MOLECULE
/home/cewinharhar/GITHUB/reincatalyze/data/processed/docking_pred/2023-May-22-1531_sub9_nm5_bs15_s42_ex16_mel10_mts1000_k50_ec02_g099_lra9e-4_lrc1e-3/d27e6afc186b75c76b7fe435f4b9560b42cd14a2_ligand_9.pdbqt
 14 15 0 0 0
SMALL
GASTEIGER

@<TRIPOS>ATOM
      1  C          5.7190    1.2840   -0.3440 C.3     1  UNL1        0.0800
      2  C          5.1820    1.2990    1.0450 C.2     1  UNL1        0.1300
      3  C          5.3570    0.1410    1.9620 C.3     1  UNL1        0.0870
      4  O          4.5790    2.2700    1.4730 O.2     1  UNL1       -0.3000
      5  C          7.2220    1.0910   -0.3510 C.3     1  UNL1        0.0430
      6  C          7.6030   -0.2110   -0.9270 C.2     1  UNL1       -0.0440
      7  C          7.6820   -0.4070   -2.3100 C.2     1  UNL1        0.0080
      8  C          7.8940   -1.2670   -0.0930 C.2     1  UNL1        0.0540
      9  C          8.0450   -1.6510   -2.7930 C.2     1  UNL1        0.0510
     10  C          8.2620   -2.5220   -0.5850 C.2     1  UNL1        0.1660
     11  C          8.3380   -2.7160   -1.9470 C.2     1  UNL1        0.1650
     12  O          8.5930   -3.7120    0.0280 O.2     1  UNL1       -0.4540
     13  O          8.7190   -4.0340   -2.1430 O.2     1  UNL1       -0.4540
     14  C          8.9800   -4.6760   -0.9180 C.3     1  UNL1        0.4680
@<TRIPOS>BOND
     1     9     7    1
     2     9    11    2
     3     7     6    2
     4    13    11    1
     5    13    14    1
     6    11    10    1
     7     6     5    1
     8     6     8    1
     9    14    12    1
    10    10     8    2
    11    10    12    1
    12     5     1    1
    13     1     2    1
    14     2     4    2
    15     2     3    1
