@<TRIPOS>MOLECULE
/home/cewinharhar/GITHUB/reincatalyze/data/processed/docking_pred/2023-May-22-1531_sub9_nm5_bs15_s42_ex16_mel10_mts1000_k50_ec02_g099_lra9e-4_lrc1e-3/d27e6afc186b75c76b7fe435f4b9560b42cd14a2_ligand_9.pdbqt
 14 15 0 0 0
SMALL
GASTEIGER

@<TRIPOS>ATOM
      1  C          5.5010    1.9260    1.2600 C.3     1  UNL1        0.0800
      2  C          5.0510    0.7110    1.9950 C.2     1  UNL1        0.1300
      3  C          5.9260   -0.4830    2.1400 C.3     1  UNL1        0.0870
      4  O          3.9420    0.6610    2.5030 O.2     1  UNL1       -0.3000
      5  C          5.3810    1.7380   -0.2390 C.3     1  UNL1        0.0430
      6  C          6.5510    1.0370   -0.7980 C.2     1  UNL1       -0.0440
      7  C          7.8570    1.4710   -0.5410 C.2     1  UNL1        0.0080
      8  C          6.3680   -0.0740   -1.5890 C.2     1  UNL1        0.0540
      9  C          8.9170    0.7730   -1.0920 C.2     1  UNL1        0.0510
     10  C          7.4420   -0.7770   -2.1430 C.2     1  UNL1        0.1660
     11  C          8.7270   -0.3490   -1.8920 C.2     1  UNL1        0.1650
     12  O          7.5200   -1.8910   -2.9500 O.2     1  UNL1       -0.4540
     13  O          9.5760   -1.2200   -2.5570 O.2     1  UNL1       -0.4540
     14  C          8.8570   -2.2660   -3.1650 C.3     1  UNL1        0.4680
@<TRIPOS>BOND
     1    14    12    1
     2    14    13    1
     3    12    10    1
     4    13    11    1
     5    10    11    2
     6    10     8    1
     7    11     9    1
     8     8     6    2
     9     9     7    2
    10     6     7    1
    11     6     5    1
    12     5     1    1
    13     1     2    1
    14     2     3    1
    15     2     4    2
