MODEL 1
REMARK VINA RESULT:      -7.9      0.000      0.000
REMARK SMILES CC(=O)CCc1ccc2c(c1)OCO2
REMARK SMILES IDX 4 1 2 2 1 3 3 4 5 5 6 6 7 7 11 8 8 9 10 10 9 11 12 12 14 13
REMARK SMILES IDX 13 14
REMARK H PARENT
REMARK Flexibility Score: inf
ROOT
ATOM      1  C   UNL     1       5.417   2.944   0.204  1.00  0.00     0.080 C 
ENDROOT
BRANCH   1   2
ATOM      2  C   UNL     1       6.382   3.716   1.036  1.00  0.00     0.130 C 
ATOM      3  C   UNL     1       7.246   4.775   0.450  1.00  0.00     0.087 C 
ATOM      4  O   UNL     1       6.492   3.499   2.232  1.00  0.00    -0.300 OA
ENDBRANCH   1   2
BRANCH   1   5
ATOM      5  C   UNL     1       5.081   1.612   0.845  1.00  0.00     0.043 C 
BRANCH   5   6
ATOM      6  C   UNL     1       5.940   0.528   0.335  1.00  0.00    -0.044 A 
ATOM      7  C   UNL     1       6.312  -0.553   1.142  1.00  0.00     0.008 A 
ATOM      8  C   UNL     1       6.390   0.568  -0.965  1.00  0.00     0.054 A 
ATOM      9  C   UNL     1       7.120  -1.541   0.610  1.00  0.00     0.051 A 
ATOM     10  C   UNL     1       7.205  -0.434  -1.499  1.00  0.00     0.166 A 
ATOM     11  C   UNL     1       7.574  -1.497  -0.705  1.00  0.00     0.165 A 
ATOM     12  O   UNL     1       7.775  -0.619  -2.741  1.00  0.00    -0.454 OA
ATOM     13  O   UNL     1       8.369  -2.322  -1.484  1.00  0.00    -0.454 OA
ATOM     14  C   UNL     1       8.448  -1.850  -2.808  1.00  0.00     0.468 C 
ENDBRANCH   5   6
ENDBRANCH   1   5
TORSDOF 3
ENDMDL
MODEL 2
REMARK VINA RESULT:      -7.6      1.875      2.621
REMARK SMILES CC(=O)CCc1ccc2c(c1)OCO2
REMARK SMILES IDX 4 1 2 2 1 3 3 4 5 5 6 6 7 7 11 8 8 9 10 10 9 11 12 12 14 13
REMARK SMILES IDX 13 14
REMARK H PARENT
REMARK Flexibility Score: inf
ROOT
ATOM      1  C   UNL     1       5.501   1.926   1.260  1.00  0.00     0.080 C 
ENDROOT
BRANCH   1   2
ATOM      2  C   UNL     1       5.051   0.711   1.995  1.00  0.00     0.130 C 
ATOM      3  C   UNL     1       5.926  -0.483   2.140  1.00  0.00     0.087 C 
ATOM      4  O   UNL     1       3.942   0.661   2.503  1.00  0.00    -0.300 OA
ENDBRANCH   1   2
BRANCH   1   5
ATOM      5  C   UNL     1       5.381   1.738  -0.239  1.00  0.00     0.043 C 
BRANCH   5   6
ATOM      6  C   UNL     1       6.551   1.037  -0.798  1.00  0.00    -0.044 A 
ATOM      7  C   UNL     1       7.857   1.471  -0.541  1.00  0.00     0.008 A 
ATOM      8  C   UNL     1       6.368  -0.074  -1.589  1.00  0.00     0.054 A 
ATOM      9  C   UNL     1       8.917   0.773  -1.092  1.00  0.00     0.051 A 
ATOM     10  C   UNL     1       7.442  -0.777  -2.143  1.00  0.00     0.166 A 
ATOM     11  C   UNL     1       8.727  -0.349  -1.892  1.00  0.00     0.165 A 
ATOM     12  O   UNL     1       7.520  -1.891  -2.950  1.00  0.00    -0.454 OA
ATOM     13  O   UNL     1       9.576  -1.220  -2.557  1.00  0.00    -0.454 OA
ATOM     14  C   UNL     1       8.857  -2.266  -3.165  1.00  0.00     0.468 C 
ENDBRANCH   5   6
ENDBRANCH   1   5
TORSDOF 3
ENDMDL
MODEL 3
REMARK VINA RESULT:      -7.5      1.961      3.053
REMARK SMILES CC(=O)CCc1ccc2c(c1)OCO2
REMARK SMILES IDX 4 1 2 2 1 3 3 4 5 5 6 6 7 7 11 8 8 9 10 10 9 11 12 12 14 13
REMARK SMILES IDX 13 14
REMARK H PARENT
REMARK Flexibility Score: inf
ROOT
ATOM      1  C   UNL     1       5.719   1.284  -0.344  1.00  0.00     0.080 C 
ENDROOT
BRANCH   1   2
ATOM      2  C   UNL     1       5.182   1.299   1.045  1.00  0.00     0.130 C 
ATOM      3  C   UNL     1       5.357   0.141   1.962  1.00  0.00     0.087 C 
ATOM      4  O   UNL     1       4.579   2.270   1.473  1.00  0.00    -0.300 OA
ENDBRANCH   1   2
BRANCH   1   5
ATOM      5  C   UNL     1       7.222   1.091  -0.351  1.00  0.00     0.043 C 
BRANCH   5   6
ATOM      6  C   UNL     1       7.603  -0.211  -0.927  1.00  0.00    -0.044 A 
ATOM      7  C   UNL     1       7.682  -0.407  -2.310  1.00  0.00     0.008 A 
ATOM      8  C   UNL     1       7.894  -1.267  -0.093  1.00  0.00     0.054 A 
ATOM      9  C   UNL     1       8.045  -1.651  -2.793  1.00  0.00     0.051 A 
ATOM     10  C   UNL     1       8.262  -2.522  -0.585  1.00  0.00     0.166 A 
ATOM     11  C   UNL     1       8.338  -2.716  -1.947  1.00  0.00     0.165 A 
ATOM     12  O   UNL     1       8.593  -3.712   0.028  1.00  0.00    -0.454 OA
ATOM     13  O   UNL     1       8.719  -4.034  -2.143  1.00  0.00    -0.454 OA
ATOM     14  C   UNL     1       8.980  -4.676  -0.918  1.00  0.00     0.468 C 
ENDBRANCH   5   6
ENDBRANCH   1   5
TORSDOF 3
ENDMDL
