@<TRIPOS>MOLECULE
/home/cewinharhar/GITHUB/reincatalyze/data/processed/docking_pred/2023-May-22-1531_sub9_nm5_bs15_s42_ex16_mel10_mts1000_k50_ec02_g099_lra9e-4_lrc1e-3/d29de17412cd01c0ee6022e9d720ef028927a1a9_ligand_9.pdbqt
 14 15 0 0 0
SMALL
GASTEIGER

@<TRIPOS>ATOM
      1  C          5.4260    2.9470    0.2080 C.3     1  UNL1        0.0800
      2  C          6.2980    3.8600    1.0000 C.2     1  UNL1        0.1300
      3  C          7.2710    4.7740    0.3440 C.3     1  UNL1        0.0870
      4  O          6.2390    3.8820    2.2180 O.2     1  UNL1       -0.3000
      5  C          5.1900    1.6410    0.9390 C.3     1  UNL1        0.0430
      6  C          6.0100    0.5480    0.3860 C.2     1  UNL1       -0.0440
      7  C          6.3770   -0.5580    1.1610 C.2     1  UNL1        0.0080
      8  C          6.4280    0.6060   -0.9240 C.2     1  UNL1        0.0540
      9  C          7.1470   -1.5530    0.5870 C.2     1  UNL1        0.0510
     10  C          7.2060   -0.4030   -1.5000 C.2     1  UNL1        0.1660
     11  C          7.5690   -1.4910   -0.7380 C.2     1  UNL1        0.1650
     12  O          7.7400   -0.5750   -2.7590 O.2     1  UNL1       -0.4540
     13  O          8.3250   -2.3180   -1.5540 O.2     1  UNL1       -0.4540
     14  C          8.3820   -1.8200   -2.8690 C.3     1  UNL1        0.4680
@<TRIPOS>BOND
     1    14    12    1
     2    14    13    1
     3    12    10    1
     4    13    11    1
     5    10     8    1
     6    10    11    2
     7     8     6    2
     8    11     9    1
     9     1     5    1
    10     1     2    1
    11     3     2    1
    12     6     5    1
    13     6     7    1
    14     9     7    2
    15     2     4    2
