MODEL 1
REMARK VINA RESULT:      -7.9      0.000      0.000
REMARK SMILES CC(=O)CCc1ccc2c(c1)OCO2
REMARK SMILES IDX 4 1 2 2 1 3 3 4 5 5 6 6 7 7 11 8 8 9 10 10 9 11 12 12 14 13
REMARK SMILES IDX 13 14
REMARK H PARENT
REMARK Flexibility Score: inf
ROOT
ATOM      1  C   UNL     1       5.426   2.947   0.208  1.00  0.00     0.080 C 
ENDROOT
BRANCH   1   2
ATOM      2  C   UNL     1       6.298   3.860   1.000  1.00  0.00     0.130 C 
ATOM      3  C   UNL     1       7.271   4.774   0.344  1.00  0.00     0.087 C 
ATOM      4  O   UNL     1       6.239   3.882   2.218  1.00  0.00    -0.300 OA
ENDBRANCH   1   2
BRANCH   1   5
ATOM      5  C   UNL     1       5.190   1.641   0.939  1.00  0.00     0.043 C 
BRANCH   5   6
ATOM      6  C   UNL     1       6.010   0.548   0.386  1.00  0.00    -0.044 A 
ATOM      7  C   UNL     1       6.377  -0.558   1.161  1.00  0.00     0.008 A 
ATOM      8  C   UNL     1       6.428   0.606  -0.924  1.00  0.00     0.054 A 
ATOM      9  C   UNL     1       7.147  -1.553   0.587  1.00  0.00     0.051 A 
ATOM     10  C   UNL     1       7.206  -0.403  -1.500  1.00  0.00     0.166 A 
ATOM     11  C   UNL     1       7.569  -1.491  -0.738  1.00  0.00     0.165 A 
ATOM     12  O   UNL     1       7.740  -0.575  -2.759  1.00  0.00    -0.454 OA
ATOM     13  O   UNL     1       8.325  -2.318  -1.554  1.00  0.00    -0.454 OA
ATOM     14  C   UNL     1       8.382  -1.820  -2.869  1.00  0.00     0.468 C 
ENDBRANCH   5   6
ENDBRANCH   1   5
TORSDOF 3
ENDMDL
MODEL 2
REMARK VINA RESULT:      -7.8      0.984      1.975
REMARK SMILES CC(=O)CCc1ccc2c(c1)OCO2
REMARK SMILES IDX 4 1 2 2 1 3 3 4 5 5 6 6 7 7 11 8 8 9 10 10 9 11 12 12 14 13
REMARK SMILES IDX 13 14
REMARK H PARENT
REMARK Flexibility Score: inf
ROOT
ATOM      1  C   UNL     1       5.399   2.970   0.125  1.00  0.00     0.080 C 
ENDROOT
BRANCH   1   2
ATOM      2  C   UNL     1       6.219   3.906   0.944  1.00  0.00     0.130 C 
ATOM      3  C   UNL     1       7.261   4.772   0.331  1.00  0.00     0.087 C 
ATOM      4  O   UNL     1       6.057   3.989   2.151  1.00  0.00    -0.300 OA
ENDBRANCH   1   2
BRANCH   1   5
ATOM      5  C   UNL     1       5.191   1.650   0.840  1.00  0.00     0.043 C 
BRANCH   5   6
ATOM      6  C   UNL     1       6.021   0.579   0.261  1.00  0.00    -0.044 A 
ATOM      7  C   UNL     1       6.405   0.595  -1.084  1.00  0.00     0.008 A 
ATOM      8  C   UNL     1       6.437  -0.467   1.055  1.00  0.00     0.054 A 
ATOM      9  C   UNL     1       7.186  -0.438  -1.572  1.00  0.00     0.051 A 
ATOM     10  C   UNL     1       7.227  -1.508   0.557  1.00  0.00     0.166 A 
ATOM     11  C   UNL     1       7.604  -1.493  -0.767  1.00  0.00     0.165 A 
ATOM     12  O   UNL     1       7.759  -2.641   1.133  1.00  0.00    -0.454 OA
ATOM     13  O   UNL     1       8.369  -2.629  -0.979  1.00  0.00    -0.454 OA
ATOM     14  C   UNL     1       8.568  -3.338   0.221  1.00  0.00     0.468 C 
ENDBRANCH   5   6
ENDBRANCH   1   5
TORSDOF 3
ENDMDL
MODEL 3
REMARK VINA RESULT:      -7.7      1.906      2.654
REMARK SMILES CC(=O)CCc1ccc2c(c1)OCO2
REMARK SMILES IDX 4 1 2 2 1 3 3 4 5 5 6 6 7 7 11 8 8 9 10 10 9 11 12 12 14 13
REMARK SMILES IDX 13 14
REMARK H PARENT
REMARK Flexibility Score: inf
ROOT
ATOM      1  C   UNL     1       5.542   1.916   1.270  1.00  0.00     0.080 C 
ENDROOT
BRANCH   1   2
ATOM      2  C   UNL     1       5.107   0.696   2.006  1.00  0.00     0.130 C 
ATOM      3  C   UNL     1       6.010  -0.472   2.186  1.00  0.00     0.087 C 
ATOM      4  O   UNL     1       3.987   0.620   2.485  1.00  0.00    -0.300 OA
ENDBRANCH   1   2
BRANCH   1   5
ATOM      5  C   UNL     1       5.414   1.729  -0.229  1.00  0.00     0.043 C 
BRANCH   5   6
ATOM      6  C   UNL     1       6.578   1.025  -0.794  1.00  0.00    -0.044 A 
ATOM      7  C   UNL     1       7.887   1.454  -0.545  1.00  0.00     0.008 A 
ATOM      8  C   UNL     1       6.387  -0.086  -1.585  1.00  0.00     0.054 A 
ATOM      9  C   UNL     1       8.941   0.753  -1.101  1.00  0.00     0.051 A 
ATOM     10  C   UNL     1       7.456  -0.792  -2.144  1.00  0.00     0.166 A 
ATOM     11  C   UNL     1       8.743  -0.369  -1.901  1.00  0.00     0.165 A 
ATOM     12  O   UNL     1       7.525  -1.907  -2.952  1.00  0.00    -0.454 OA
ATOM     13  O   UNL     1       9.586  -1.242  -2.570  1.00  0.00    -0.454 OA
ATOM     14  C   UNL     1       8.859  -2.286  -3.175  1.00  0.00     0.468 C 
ENDBRANCH   5   6
ENDBRANCH   1   5
TORSDOF 3
ENDMDL
