@<TRIPOS>MOLECULE
/home/cewinharhar/GITHUB/reincatalyze/data/processed/docking_pred/2023-May-22-1531_sub9_nm5_bs15_s42_ex16_mel10_mts1000_k50_ec02_g099_lra9e-4_lrc1e-3/d29de17412cd01c0ee6022e9d720ef028927a1a9_ligand_9.pdbqt
 14 15 0 0 0
SMALL
GASTEIGER

@<TRIPOS>ATOM
      1  C          5.3990    2.9700    0.1250 C.3     1  UNL1        0.0800
      2  C          6.2190    3.9060    0.9440 C.2     1  UNL1        0.1300
      3  C          7.2610    4.7720    0.3310 C.3     1  UNL1        0.0870
      4  O          6.0570    3.9890    2.1510 O.2     1  UNL1       -0.3000
      5  C          5.1910    1.6500    0.8400 C.3     1  UNL1        0.0430
      6  C          6.0210    0.5790    0.2610 C.2     1  UNL1       -0.0440
      7  C          6.4050    0.5950   -1.0840 C.2     1  UNL1        0.0080
      8  C          6.4370   -0.4670    1.0550 C.2     1  UNL1        0.0540
      9  C          7.1860   -0.4380   -1.5720 C.2     1  UNL1        0.0510
     10  C          7.2270   -1.5080    0.5570 C.2     1  UNL1        0.1660
     11  C          7.6040   -1.4930   -0.7670 C.2     1  UNL1        0.1650
     12  O          7.7590   -2.6410    1.1330 O.2     1  UNL1       -0.4540
     13  O          8.3690   -2.6290   -0.9790 O.2     1  UNL1       -0.4540
     14  C          8.5680   -3.3380    0.2210 C.3     1  UNL1        0.4680
@<TRIPOS>BOND
     1     9     7    1
     2     9    11    2
     3     7     6    2
     4    13    11    1
     5    13    14    1
     6    11    10    1
     7     1     5    1
     8     1     2    1
     9    14    12    1
    10     6     5    1
    11     6     8    1
    12     3     2    1
    13    10     8    2
    14    10    12    1
    15     2     4    2
