@<TRIPOS>MOLECULE
/home/cewinharhar/GITHUB/reincatalyze/data/processed/docking_pred/2023-May-22-1531_sub9_nm5_bs15_s42_ex16_mel10_mts1000_k50_ec02_g099_lra9e-4_lrc1e-3/d32515ef85c53a65d829162c3cbbbf13c46f52f9_ligand_9.pdbqt
 14 15 0 0 0
SMALL
GASTEIGER

@<TRIPOS>ATOM
      1  C          5.8010    1.3950   -0.3450 C.3     1  UNL1        0.0800
      2  C          5.1420    1.3310    0.9890 C.2     1  UNL1        0.1300
      3  C          5.4090    0.2170    1.9390 C.3     1  UNL1        0.0870
      4  O          4.3580    2.1960    1.3430 O.2     1  UNL1       -0.3000
      5  C          7.2870    1.1170   -0.2390 C.3     1  UNL1        0.0430
      6  C          7.6460   -0.1770   -0.8470 C.2     1  UNL1       -0.0440
      7  C          7.7100   -0.3430   -2.2350 C.2     1  UNL1        0.0080
      8  C          7.9280   -1.2550   -0.0390 C.2     1  UNL1        0.0540
      9  C          8.0520   -1.5800   -2.7490 C.2     1  UNL1        0.0510
     10  C          8.2750   -2.5040   -0.5630 C.2     1  UNL1        0.1660
     11  C          8.3370   -2.6680   -1.9290 C.2     1  UNL1        0.1650
     12  O          8.5950   -3.7120    0.0200 O.2     1  UNL1       -0.4540
     13  O          8.6990   -3.9870   -2.1590 O.2     1  UNL1       -0.4540
     14  C          8.9610   -4.6600   -0.9500 C.3     1  UNL1        0.4680
@<TRIPOS>BOND
     1     9     7    1
     2     9    11    2
     3     7     6    2
     4    13    11    1
     5    13    14    1
     6    11    10    1
     7    14    12    1
     8     6     5    1
     9     6     8    1
    10    10     8    2
    11    10    12    1
    12     1     5    1
    13     1     2    1
    14     2     4    2
    15     2     3    1
