@<TRIPOS>MOLECULE
/home/cewinharhar/GITHUB/reincatalyze/data/processed/docking_pred/2023-May-22-1531_sub9_nm5_bs15_s42_ex16_mel10_mts1000_k50_ec02_g099_lra9e-4_lrc1e-3/d32515ef85c53a65d829162c3cbbbf13c46f52f9_ligand_9.pdbqt
 14 15 0 0 0
SMALL
GASTEIGER

@<TRIPOS>ATOM
      1  C          5.4880    2.8730    0.3200 C.3     1  UNL1        0.0800
      2  C          6.2930    3.8920    1.0490 C.2     1  UNL1        0.1300
      3  C          7.2600    4.7750    0.3420 C.3     1  UNL1        0.0870
      4  O          6.1830    4.0330    2.2560 O.2     1  UNL1       -0.3000
      5  C          5.3510    1.5980    1.1300 C.3     1  UNL1        0.0430
      6  C          6.1360    0.4950    0.5490 C.2     1  UNL1       -0.0440
      7  C          6.5510   -0.5960    1.3220 C.2     1  UNL1        0.0080
      8  C          6.4720    0.5250   -0.7860 C.2     1  UNL1        0.0540
      9  C          7.2850   -1.6030    0.7220 C.2     1  UNL1        0.0510
     10  C          7.2130   -0.4960   -1.3870 C.2     1  UNL1        0.1660
     11  C          7.6240   -1.5680   -0.6270 C.2     1  UNL1        0.1650
     12  O          7.6680   -0.6940   -2.6740 O.2     1  UNL1       -0.4540
     13  O          8.3280   -2.4120   -1.4720 O.2     1  UNL1       -0.4540
     14  C          8.3030   -1.9410   -2.7980 C.3     1  UNL1        0.4680
@<TRIPOS>BOND
     1    14    12    1
     2    14    13    1
     3    12    10    1
     4    13    11    1
     5    10     8    1
     6    10    11    2
     7     8     6    2
     8    11     9    1
     9     1     2    1
    10     1     5    1
    11     3     2    1
    12     6     5    1
    13     6     7    1
    14     9     7    2
    15     2     4    2
