@<TRIPOS>MOLECULE
/home/cewinharhar/GITHUB/reincatalyze/data/processed/docking_pred/2023-May-22-1531_sub9_nm5_bs15_s42_ex16_mel10_mts1000_k50_ec02_g099_lra9e-4_lrc1e-3/d32515ef85c53a65d829162c3cbbbf13c46f52f9_ligand_9.pdbqt
 14 15 0 0 0
SMALL
GASTEIGER

@<TRIPOS>ATOM
      1  C          5.5110    1.8980    1.2790 C.3     1  UNL1        0.0800
      2  C          5.0670    0.6780    2.0090 C.2     1  UNL1        0.1300
      3  C          5.9490   -0.5110    2.1520 C.3     1  UNL1        0.0870
      4  O          3.9580    0.6200    2.5150 O.2     1  UNL1       -0.3000
      5  C          5.3850    1.7170   -0.2210 C.3     1  UNL1        0.0430
      6  C          6.5550    1.0230   -0.7880 C.2     1  UNL1       -0.0440
      7  C          7.8600    1.4690   -0.5470 C.2     1  UNL1        0.0080
      8  C          6.3730   -0.0930   -1.5720 C.2     1  UNL1        0.0540
      9  C          8.9200    0.7770   -1.1040 C.2     1  UNL1        0.0510
     10  C          7.4470   -0.7900   -2.1330 C.2     1  UNL1        0.1660
     11  C          8.7310   -0.3510   -1.8970 C.2     1  UNL1        0.1650
     12  O          7.5260   -1.9080   -2.9350 O.2     1  UNL1       -0.4540
     13  O          9.5810   -1.2190   -2.5660 O.2     1  UNL1       -0.4540
     14  C          8.8630   -2.2730   -3.1620 C.3     1  UNL1        0.4680
@<TRIPOS>BOND
     1    14    12    1
     2    14    13    1
     3    12    10    1
     4    13    11    1
     5    10    11    2
     6    10     8    1
     7    11     9    1
     8     8     6    2
     9     9     7    2
    10     6     7    1
    11     6     5    1
    12     5     1    1
    13     1     2    1
    14     2     3    1
    15     2     4    2
