MODEL 1
REMARK VINA RESULT:      -7.8      0.000      0.000
REMARK SMILES CC(=O)CCc1ccc2c(c1)OCO2
REMARK SMILES IDX 4 1 2 2 1 3 3 4 5 5 6 6 7 7 11 8 8 9 10 10 9 11 12 12 14 13
REMARK SMILES IDX 13 14
REMARK H PARENT
REMARK Flexibility Score: inf
ROOT
ATOM      1  C   UNL     1       5.488   2.873   0.320  1.00  0.00     0.080 C 
ENDROOT
BRANCH   1   2
ATOM      2  C   UNL     1       6.293   3.892   1.049  1.00  0.00     0.130 C 
ATOM      3  C   UNL     1       7.260   4.775   0.342  1.00  0.00     0.087 C 
ATOM      4  O   UNL     1       6.183   4.033   2.256  1.00  0.00    -0.300 OA
ENDBRANCH   1   2
BRANCH   1   5
ATOM      5  C   UNL     1       5.351   1.598   1.130  1.00  0.00     0.043 C 
BRANCH   5   6
ATOM      6  C   UNL     1       6.136   0.495   0.549  1.00  0.00    -0.044 A 
ATOM      7  C   UNL     1       6.551  -0.596   1.322  1.00  0.00     0.008 A 
ATOM      8  C   UNL     1       6.472   0.525  -0.786  1.00  0.00     0.054 A 
ATOM      9  C   UNL     1       7.285  -1.603   0.722  1.00  0.00     0.051 A 
ATOM     10  C   UNL     1       7.213  -0.496  -1.387  1.00  0.00     0.166 A 
ATOM     11  C   UNL     1       7.624  -1.568  -0.627  1.00  0.00     0.165 A 
ATOM     12  O   UNL     1       7.668  -0.694  -2.674  1.00  0.00    -0.454 OA
ATOM     13  O   UNL     1       8.328  -2.412  -1.472  1.00  0.00    -0.454 OA
ATOM     14  C   UNL     1       8.303  -1.941  -2.798  1.00  0.00     0.468 C 
ENDBRANCH   5   6
ENDBRANCH   1   5
TORSDOF 3
ENDMDL
MODEL 2
REMARK VINA RESULT:      -7.7      1.936      2.696
REMARK SMILES CC(=O)CCc1ccc2c(c1)OCO2
REMARK SMILES IDX 4 1 2 2 1 3 3 4 5 5 6 6 7 7 11 8 8 9 10 10 9 11 12 12 14 13
REMARK SMILES IDX 13 14
REMARK H PARENT
REMARK Flexibility Score: inf
ROOT
ATOM      1  C   UNL     1       5.511   1.898   1.279  1.00  0.00     0.080 C 
ENDROOT
BRANCH   1   2
ATOM      2  C   UNL     1       5.067   0.678   2.009  1.00  0.00     0.130 C 
ATOM      3  C   UNL     1       5.949  -0.511   2.152  1.00  0.00     0.087 C 
ATOM      4  O   UNL     1       3.958   0.620   2.515  1.00  0.00    -0.300 OA
ENDBRANCH   1   2
BRANCH   1   5
ATOM      5  C   UNL     1       5.385   1.717  -0.221  1.00  0.00     0.043 C 
BRANCH   5   6
ATOM      6  C   UNL     1       6.555   1.023  -0.788  1.00  0.00    -0.044 A 
ATOM      7  C   UNL     1       7.860   1.469  -0.547  1.00  0.00     0.008 A 
ATOM      8  C   UNL     1       6.373  -0.093  -1.572  1.00  0.00     0.054 A 
ATOM      9  C   UNL     1       8.920   0.777  -1.104  1.00  0.00     0.051 A 
ATOM     10  C   UNL     1       7.447  -0.790  -2.133  1.00  0.00     0.166 A 
ATOM     11  C   UNL     1       8.731  -0.351  -1.897  1.00  0.00     0.165 A 
ATOM     12  O   UNL     1       7.526  -1.908  -2.935  1.00  0.00    -0.454 OA
ATOM     13  O   UNL     1       9.581  -1.219  -2.566  1.00  0.00    -0.454 OA
ATOM     14  C   UNL     1       8.863  -2.273  -3.162  1.00  0.00     0.468 C 
ENDBRANCH   5   6
ENDBRANCH   1   5
TORSDOF 3
ENDMDL
MODEL 3
REMARK VINA RESULT:      -7.5      1.983      3.033
REMARK SMILES CC(=O)CCc1ccc2c(c1)OCO2
REMARK SMILES IDX 4 1 2 2 1 3 3 4 5 5 6 6 7 7 11 8 8 9 10 10 9 11 12 12 14 13
REMARK SMILES IDX 13 14
REMARK H PARENT
REMARK Flexibility Score: inf
ROOT
ATOM      1  C   UNL     1       5.801   1.395  -0.345  1.00  0.00     0.080 C 
ENDROOT
BRANCH   1   2
ATOM      2  C   UNL     1       5.142   1.331   0.989  1.00  0.00     0.130 C 
ATOM      3  C   UNL     1       5.409   0.217   1.939  1.00  0.00     0.087 C 
ATOM      4  O   UNL     1       4.358   2.196   1.343  1.00  0.00    -0.300 OA
ENDBRANCH   1   2
BRANCH   1   5
ATOM      5  C   UNL     1       7.287   1.117  -0.239  1.00  0.00     0.043 C 
BRANCH   5   6
ATOM      6  C   UNL     1       7.646  -0.177  -0.847  1.00  0.00    -0.044 A 
ATOM      7  C   UNL     1       7.710  -0.343  -2.235  1.00  0.00     0.008 A 
ATOM      8  C   UNL     1       7.928  -1.255  -0.039  1.00  0.00     0.054 A 
ATOM      9  C   UNL     1       8.052  -1.580  -2.749  1.00  0.00     0.051 A 
ATOM     10  C   UNL     1       8.275  -2.504  -0.563  1.00  0.00     0.166 A 
ATOM     11  C   UNL     1       8.337  -2.668  -1.929  1.00  0.00     0.165 A 
ATOM     12  O   UNL     1       8.595  -3.712   0.020  1.00  0.00    -0.454 OA
ATOM     13  O   UNL     1       8.699  -3.987  -2.159  1.00  0.00    -0.454 OA
ATOM     14  C   UNL     1       8.961  -4.660  -0.950  1.00  0.00     0.468 C 
ENDBRANCH   5   6
ENDBRANCH   1   5
TORSDOF 3
ENDMDL
