MODEL 1
REMARK VINA RESULT:      -7.5      0.000      0.000
REMARK SMILES CC(=O)CCc1ccc2c(c1)OCO2
REMARK SMILES IDX 4 1 2 2 1 3 3 4 5 5 6 6 7 7 11 8 8 9 10 10 9 11 12 12 14 13
REMARK SMILES IDX 13 14
REMARK H PARENT
REMARK Flexibility Score: inf
ROOT
ATOM      1  C   UNL     1       5.542   1.918   1.281  1.00  0.00     0.080 C 
ENDROOT
BRANCH   1   2
ATOM      2  C   UNL     1       5.093   0.700   2.013  1.00  0.00     0.130 C 
ATOM      3  C   UNL     1       5.982  -0.479   2.184  1.00  0.00     0.087 C 
ATOM      4  O   UNL     1       3.974   0.636   2.496  1.00  0.00    -0.300 OA
ENDBRANCH   1   2
BRANCH   1   5
ATOM      5  C   UNL     1       5.410   1.738  -0.218  1.00  0.00     0.043 C 
BRANCH   5   6
ATOM      6  C   UNL     1       6.574   1.036  -0.788  1.00  0.00    -0.044 A 
ATOM      7  C   UNL     1       7.882   1.472  -0.551  1.00  0.00     0.008 A 
ATOM      8  C   UNL     1       6.381  -0.079  -1.573  1.00  0.00     0.054 A 
ATOM      9  C   UNL     1       8.935   0.772  -1.111  1.00  0.00     0.051 A 
ATOM     10  C   UNL     1       7.449  -0.783  -2.137  1.00  0.00     0.166 A 
ATOM     11  C   UNL     1       8.736  -0.354  -1.904  1.00  0.00     0.165 A 
ATOM     12  O   UNL     1       7.517  -1.902  -2.940  1.00  0.00    -0.454 OA
ATOM     13  O   UNL     1       9.578  -1.227  -2.576  1.00  0.00    -0.454 OA
ATOM     14  C   UNL     1       8.851  -2.276  -3.171  1.00  0.00     0.468 C 
ENDBRANCH   5   6
ENDBRANCH   1   5
TORSDOF 3
ENDMDL
MODEL 2
REMARK VINA RESULT:      -7.4      1.930      2.431
REMARK SMILES CC(=O)CCc1ccc2c(c1)OCO2
REMARK SMILES IDX 4 1 2 2 1 3 3 4 5 5 6 6 7 7 11 8 8 9 10 10 9 11 12 12 14 13
REMARK SMILES IDX 13 14
REMARK H PARENT
REMARK Flexibility Score: inf
ROOT
ATOM      1  C   UNL     1       5.780   1.350  -0.368  1.00  0.00     0.080 C 
ENDROOT
BRANCH   1   2
ATOM      2  C   UNL     1       5.145   1.320   0.979  1.00  0.00     0.130 C 
ATOM      3  C   UNL     1       5.386   0.204   1.931  1.00  0.00     0.087 C 
ATOM      4  O   UNL     1       4.401   2.218   1.341  1.00  0.00    -0.300 OA
ENDBRANCH   1   2
BRANCH   1   5
ATOM      5  C   UNL     1       7.268   1.070  -0.281  1.00  0.00     0.043 C 
BRANCH   5   6
ATOM      6  C   UNL     1       7.616  -0.226  -0.890  1.00  0.00    -0.044 A 
ATOM      7  C   UNL     1       7.648  -0.399  -2.278  1.00  0.00     0.008 A 
ATOM      8  C   UNL     1       7.921  -1.299  -0.083  1.00  0.00     0.054 A 
ATOM      9  C   UNL     1       7.982  -1.638  -2.792  1.00  0.00     0.051 A 
ATOM     10  C   UNL     1       8.260  -2.549  -0.608  1.00  0.00     0.166 A 
ATOM     11  C   UNL     1       8.290  -2.721  -1.974  1.00  0.00     0.165 A 
ATOM     12  O   UNL     1       8.598  -3.753  -0.026  1.00  0.00    -0.454 OA
ATOM     13  O   UNL     1       8.651  -4.039  -2.204  1.00  0.00    -0.454 OA
ATOM     14  C   UNL     1       8.944  -4.704  -0.999  1.00  0.00     0.468 C 
ENDBRANCH   5   6
ENDBRANCH   1   5
TORSDOF 3
ENDMDL
MODEL 3
REMARK VINA RESULT:      -7.1      2.034      2.614
REMARK SMILES CC(=O)CCc1ccc2c(c1)OCO2
REMARK SMILES IDX 4 1 2 2 1 3 3 4 5 5 6 6 7 7 11 8 8 9 10 10 9 11 12 12 14 13
REMARK SMILES IDX 13 14
REMARK H PARENT
REMARK Flexibility Score: inf
ROOT
ATOM      1  C   UNL     1       5.772   2.561   1.320  1.00  0.00     0.080 C 
ENDROOT
BRANCH   1   2
ATOM      2  C   UNL     1       6.402   3.896   1.126  1.00  0.00     0.130 C 
ATOM      3  C   UNL     1       6.896   4.701   2.275  1.00  0.00     0.087 C 
ATOM      4  O   UNL     1       6.532   4.372   0.009  1.00  0.00    -0.300 OA
ENDBRANCH   1   2
BRANCH   1   5
ATOM      5  C   UNL     1       5.379   1.940  -0.006  1.00  0.00     0.043 C 
BRANCH   5   6
ATOM      6  C   UNL     1       6.144   0.710  -0.282  1.00  0.00    -0.044 A 
ATOM      7  C   UNL     1       6.357  -0.257   0.707  1.00  0.00     0.008 A 
ATOM      8  C   UNL     1       6.663   0.497  -1.538  1.00  0.00     0.054 A 
ATOM      9  C   UNL     1       7.081  -1.392   0.390  1.00  0.00     0.051 A 
ATOM     10  C   UNL     1       7.395  -0.652  -1.853  1.00  0.00     0.166 A 
ATOM     11  C   UNL     1       7.606  -1.604  -0.881  1.00  0.00     0.165 A 
ATOM     12  O   UNL     1       8.006  -1.089  -3.009  1.00  0.00    -0.454 OA
ATOM     13  O   UNL     1       8.349  -2.617  -1.466  1.00  0.00    -0.454 OA
ATOM     14  C   UNL     1       8.547  -2.374  -2.839  1.00  0.00     0.468 C 
ENDBRANCH   5   6
ENDBRANCH   1   5
TORSDOF 3
ENDMDL
