@<TRIPOS>MOLECULE
/home/cewinharhar/GITHUB/reincatalyze/data/processed/docking_pred/2023-May-22-1531_sub9_nm5_bs15_s42_ex16_mel10_mts1000_k50_ec02_g099_lra9e-4_lrc1e-3/d4292dbdc665c4d20b6271b363b9823f318ec372_ligand_9.pdbqt
 14 15 0 0 0
SMALL
GASTEIGER

@<TRIPOS>ATOM
      1  C          5.7800    1.3500   -0.3680 C.3     1  UNL1        0.0800
      2  C          5.1450    1.3200    0.9790 C.2     1  UNL1        0.1300
      3  C          5.3860    0.2040    1.9310 C.3     1  UNL1        0.0870
      4  O          4.4010    2.2180    1.3410 O.2     1  UNL1       -0.3000
      5  C          7.2680    1.0700   -0.2810 C.3     1  UNL1        0.0430
      6  C          7.6160   -0.2260   -0.8900 C.2     1  UNL1       -0.0440
      7  C          7.6480   -0.3990   -2.2780 C.2     1  UNL1        0.0080
      8  C          7.9210   -1.2990   -0.0830 C.2     1  UNL1        0.0540
      9  C          7.9820   -1.6380   -2.7920 C.2     1  UNL1        0.0510
     10  C          8.2600   -2.5490   -0.6080 C.2     1  UNL1        0.1660
     11  C          8.2900   -2.7210   -1.9740 C.2     1  UNL1        0.1650
     12  O          8.5980   -3.7530   -0.0260 O.2     1  UNL1       -0.4540
     13  O          8.6510   -4.0390   -2.2040 O.2     1  UNL1       -0.4540
     14  C          8.9440   -4.7040   -0.9990 C.3     1  UNL1        0.4680
@<TRIPOS>BOND
     1     9     7    1
     2     9    11    2
     3     7     6    2
     4    13    11    1
     5    13    14    1
     6    11    10    1
     7    14    12    1
     8     6     5    1
     9     6     8    1
    10    10     8    2
    11    10    12    1
    12     1     5    1
    13     1     2    1
    14     2     4    2
    15     2     3    1
