@<TRIPOS>MOLECULE
/home/cewinharhar/GITHUB/reincatalyze/data/processed/docking_pred/2023-May-22-1531_sub9_nm5_bs15_s42_ex16_mel10_mts1000_k50_ec02_g099_lra9e-4_lrc1e-3/d4292dbdc665c4d20b6271b363b9823f318ec372_ligand_9.pdbqt
 14 15 0 0 0
SMALL
GASTEIGER

@<TRIPOS>ATOM
      1  C          5.7720    2.5610    1.3200 C.3     1  UNL1        0.0800
      2  C          6.4020    3.8960    1.1260 C.2     1  UNL1        0.1300
      3  C          6.8960    4.7010    2.2750 C.3     1  UNL1        0.0870
      4  O          6.5320    4.3720    0.0090 O.2     1  UNL1       -0.3000
      5  C          5.3790    1.9400   -0.0060 C.3     1  UNL1        0.0430
      6  C          6.1440    0.7100   -0.2820 C.2     1  UNL1       -0.0440
      7  C          6.3570   -0.2570    0.7070 C.2     1  UNL1        0.0080
      8  C          6.6630    0.4970   -1.5380 C.2     1  UNL1        0.0540
      9  C          7.0810   -1.3920    0.3900 C.2     1  UNL1        0.0510
     10  C          7.3950   -0.6520   -1.8530 C.2     1  UNL1        0.1660
     11  C          7.6060   -1.6040   -0.8810 C.2     1  UNL1        0.1650
     12  O          8.0060   -1.0890   -3.0090 O.2     1  UNL1       -0.4540
     13  O          8.3490   -2.6170   -1.4660 O.2     1  UNL1       -0.4540
     14  C          8.5470   -2.3740   -2.8390 C.3     1  UNL1        0.4680
@<TRIPOS>BOND
     1    12    14    1
     2    12    10    1
     3    14    13    1
     4    10     8    1
     5    10    11    2
     6     8     6    2
     7    13    11    1
     8    11     9    1
     9     6     5    1
    10     6     7    1
    11     5     1    1
    12     4     2    2
    13     9     7    2
    14     2     1    1
    15     2     3    1
