@<TRIPOS>MOLECULE
/home/cewinharhar/GITHUB/reincatalyze/data/processed/docking_pred/2023-May-22-1531_sub9_nm5_bs15_s42_ex16_mel10_mts1000_k50_ec02_g099_lra9e-4_lrc1e-3/d475abeaf77d1f7cad9c775310647ad941a1fd31_ligand_9.pdbqt
 14 15 0 0 0
SMALL
GASTEIGER

@<TRIPOS>ATOM
      1  C          6.1110    1.0700   -0.2010 C.3     1  UNL1        0.0800
      2  C          5.5360    2.2060    0.5740 C.2     1  UNL1        0.1300
      3  C          6.1710    3.5510    0.5740 C.3     1  UNL1        0.0870
      4  O          4.5210    2.0630    1.2360 O.2     1  UNL1       -0.3000
      5  C          7.6140    1.2020   -0.3390 C.3     1  UNL1        0.0430
      6  C          8.1880    0.1090   -1.1440 C.2     1  UNL1       -0.0440
      7  C          7.6670   -0.2280   -2.3990 C.2     1  UNL1        0.0080
      8  C          9.2620   -0.6020   -0.6610 C.2     1  UNL1        0.0540
      9  C          8.2470   -1.2630   -3.1100 C.2     1  UNL1        0.0510
     10  C          9.8450   -1.6470   -1.3840 C.2     1  UNL1        0.1660
     11  C          9.3330   -1.9810   -2.6180 C.2     1  UNL1        0.1650
     12  O         10.9030   -2.4940   -1.1260 O.2     1  UNL1       -0.4540
     13  O         10.0950   -3.0350   -3.0970 O.2     1  UNL1       -0.4540
     14  C         11.1580   -3.3320   -2.2230 C.3     1  UNL1        0.4680
@<TRIPOS>BOND
     1     9    11    2
     2     9     7    1
     3    13    11    1
     4    13    14    1
     5    11    10    1
     6     7     6    2
     7    14    12    1
     8    10    12    1
     9    10     8    2
    10     6     8    1
    11     6     5    1
    12     5     1    1
    13     1     2    1
    14     2     3    1
    15     2     4    2
