@<TRIPOS>MOLECULE
/home/cewinharhar/GITHUB/reincatalyze/data/processed/docking_pred/2023-May-22-1531_sub9_nm5_bs15_s42_ex16_mel10_mts1000_k50_ec02_g099_lra9e-4_lrc1e-3/d475abeaf77d1f7cad9c775310647ad941a1fd31_ligand_9.pdbqt
 14 15 0 0 0
SMALL
GASTEIGER

@<TRIPOS>ATOM
      1  C          5.8410    1.6110    0.8760 C.3     1  UNL1        0.0800
      2  C          5.3930    0.5950    1.8700 C.2     1  UNL1        0.1300
      3  C          6.2390   -0.5760    2.2240 C.3     1  UNL1        0.0870
      4  O          4.3110    0.6960    2.4240 O.2     1  UNL1       -0.3000
      5  C          5.7530    1.0730   -0.5380 C.3     1  UNL1        0.0430
      6  C          7.0050    0.4160   -0.9520 C.2     1  UNL1       -0.0440
      7  C          8.2510    1.0190   -0.7500 C.2     1  UNL1        0.0080
      8  C          6.9590   -0.8230   -1.5510 C.2     1  UNL1        0.0540
      9  C          9.3930    0.3540   -1.1580 C.2     1  UNL1        0.0510
     10  C          8.1170   -1.4910   -1.9620 C.2     1  UNL1        0.1660
     11  C          9.3430   -0.8980   -1.7640 C.2     1  UNL1        0.1650
     12  O          8.3320   -2.7090   -2.5710 O.2     1  UNL1       -0.4540
     13  O         10.2970   -1.7740   -2.2600 O.2     1  UNL1       -0.4540
     14  C          9.7060   -2.9740   -2.6980 C.3     1  UNL1        0.4680
@<TRIPOS>BOND
     1    14    12    1
     2    14    13    1
     3    12    10    1
     4    13    11    1
     5    10    11    2
     6    10     8    1
     7    11     9    1
     8     8     6    2
     9     9     7    2
    10     6     7    1
    11     6     5    1
    12     5     1    1
    13     1     2    1
    14     2     3    1
    15     2     4    2
