@<TRIPOS>MOLECULE
/home/cewinharhar/GITHUB/reincatalyze/data/processed/docking_pred/2023-May-22-1531_sub9_nm5_bs15_s42_ex16_mel10_mts1000_k50_ec02_g099_lra9e-4_lrc1e-3/d475abeaf77d1f7cad9c775310647ad941a1fd31_ligand_9.pdbqt
 14 15 0 0 0
SMALL
GASTEIGER

@<TRIPOS>ATOM
      1  C          5.6660    1.1780   -0.3580 C.3     1  UNL1        0.0800
      2  C          5.3050    2.2900    0.5640 C.2     1  UNL1        0.1300
      3  C          6.0970    3.5480    0.6190 C.3     1  UNL1        0.0870
      4  O          4.3420    2.2000    1.3080 O.2     1  UNL1       -0.3000
      5  C          6.3450    0.0450    0.3850 C.3     1  UNL1        0.0430
      6  C          7.7750   -0.0540    0.0430 C.2     1  UNL1       -0.0440
      7  C          8.3890    0.8650   -0.8160 C.2     1  UNL1        0.0080
      8  C          8.5350   -1.0700    0.5760 C.2     1  UNL1        0.0540
      9  C          9.7350    0.7220   -1.1010 C.2     1  UNL1        0.0510
     10  C          9.8960   -1.2100    0.2860 C.2     1  UNL1        0.1660
     11  C         10.5000   -0.3060   -0.5600 C.2     1  UNL1        0.1650
     12  O         10.8530   -2.1190    0.6830 O.2     1  UNL1       -0.4540
     13  O         11.8300   -0.6830   -0.6650 O.2     1  UNL1       -0.4540
     14  C         12.1170   -1.7740    0.1780 C.3     1  UNL1        0.4680
@<TRIPOS>BOND
     1     9     7    1
     2     9    11    2
     3     7     6    2
     4    13    11    1
     5    13    14    1
     6    11    10    1
     7     1     5    1
     8     1     2    1
     9     6     5    1
    10     6     8    1
    11    14    12    1
    12    10     8    2
    13    10    12    1
    14     2     3    1
    15     2     4    2
