@<TRIPOS>MOLECULE
/home/cewinharhar/GITHUB/reincatalyze/data/processed/docking_pred/2023-May-22-1531_sub9_nm5_bs15_s42_ex16_mel10_mts1000_k50_ec02_g099_lra9e-4_lrc1e-3/d4c602a3745b48528a2ec664cc6a2c0711254731_ligand_9.pdbqt
 14 15 0 0 0
SMALL
GASTEIGER

@<TRIPOS>ATOM
      1  C          5.7930    1.3670   -0.3720 C.3     1  UNL1        0.0800
      2  C          5.1470    1.3320    0.9700 C.2     1  UNL1        0.1300
      3  C          5.3940    0.2200    1.9260 C.3     1  UNL1        0.0870
      4  O          4.3900    2.2210    1.3240 O.2     1  UNL1       -0.3000
      5  C          7.2780    1.0760   -0.2760 C.3     1  UNL1        0.0430
      6  C          7.6200   -0.2220   -0.8840 C.2     1  UNL1       -0.0440
      7  C          7.6410   -0.3980   -2.2720 C.2     1  UNL1        0.0080
      8  C          7.9310   -1.2930   -0.0770 C.2     1  UNL1        0.0540
      9  C          7.9710   -1.6390   -2.7870 C.2     1  UNL1        0.0510
     10  C          8.2640   -2.5460   -0.6020 C.2     1  UNL1        0.1660
     11  C          8.2840   -2.7200   -1.9680 C.2     1  UNL1        0.1650
     12  O          8.6050   -3.7480   -0.0200 O.2     1  UNL1       -0.4540
     13  O          8.6410   -4.0390   -2.1980 O.2     1  UNL1       -0.4540
     14  C          8.9420   -4.7020   -0.9930 C.3     1  UNL1        0.4680
@<TRIPOS>BOND
     1     9     7    1
     2     9    11    2
     3     7     6    2
     4    13    11    1
     5    13    14    1
     6    11    10    1
     7    14    12    1
     8     6     5    1
     9     6     8    1
    10    10     8    2
    11    10    12    1
    12     1     5    1
    13     1     2    1
    14     2     4    2
    15     2     3    1
