MODEL 1
REMARK VINA RESULT:      -7.8      0.000      0.000
REMARK SMILES CC(=O)CCc1ccc2c(c1)OCO2
REMARK SMILES IDX 4 1 2 2 1 3 3 4 5 5 6 6 7 7 11 8 8 9 10 10 9 11 12 12 14 13
REMARK SMILES IDX 13 14
REMARK H PARENT
REMARK Flexibility Score: inf
ROOT
ATOM      1  C   UNL     1       5.373   3.008   0.108  1.00  0.00     0.080 C 
ENDROOT
BRANCH   1   2
ATOM      2  C   UNL     1       6.290   3.781   0.992  1.00  0.00     0.130 C 
ATOM      3  C   UNL     1       7.250   4.775   0.443  1.00  0.00     0.087 C 
ATOM      4  O   UNL     1       6.279   3.618   2.202  1.00  0.00    -0.300 OA
ENDBRANCH   1   2
BRANCH   1   5
ATOM      5  C   UNL     1       5.035   1.659   0.710  1.00  0.00     0.043 C 
BRANCH   5   6
ATOM      6  C   UNL     1       5.916   0.595   0.196  1.00  0.00    -0.044 A 
ATOM      7  C   UNL     1       6.384   0.605  -1.123  1.00  0.00     0.008 A 
ATOM      8  C   UNL     1       6.297  -0.436   1.025  1.00  0.00     0.054 A 
ATOM      9  C   UNL     1       7.210  -0.420  -1.549  1.00  0.00     0.051 A 
ATOM     10  C   UNL     1       7.132  -1.469   0.589  1.00  0.00     0.166 A 
ATOM     11  C   UNL     1       7.592  -1.461  -0.709  1.00  0.00     0.165 A 
ATOM     12  O   UNL     1       7.644  -2.588   1.210  1.00  0.00    -0.454 OA
ATOM     13  O   UNL     1       8.386  -2.587  -0.859  1.00  0.00    -0.454 OA
ATOM     14  C   UNL     1       8.520  -3.281   0.358  1.00  0.00     0.468 C 
ENDBRANCH   5   6
ENDBRANCH   1   5
TORSDOF 3
ENDMDL
MODEL 2
REMARK VINA RESULT:      -7.6      2.404      3.028
REMARK SMILES CC(=O)CCc1ccc2c(c1)OCO2
REMARK SMILES IDX 4 1 2 2 1 3 3 4 5 5 6 6 7 7 11 8 8 9 10 10 9 11 12 12 14 13
REMARK SMILES IDX 13 14
REMARK H PARENT
REMARK Flexibility Score: inf
ROOT
ATOM      1  C   UNL     1       5.508   1.901   1.274  1.00  0.00     0.080 C 
ENDROOT
BRANCH   1   2
ATOM      2  C   UNL     1       5.064   0.681   2.005  1.00  0.00     0.130 C 
ATOM      3  C   UNL     1       5.946  -0.508   2.148  1.00  0.00     0.087 C 
ATOM      4  O   UNL     1       3.955   0.622   2.510  1.00  0.00    -0.300 OA
ENDBRANCH   1   2
BRANCH   1   5
ATOM      5  C   UNL     1       5.385   1.719  -0.226  1.00  0.00     0.043 C 
BRANCH   5   6
ATOM      6  C   UNL     1       6.555   1.024  -0.790  1.00  0.00    -0.044 A 
ATOM      7  C   UNL     1       7.860   1.468  -0.545  1.00  0.00     0.008 A 
ATOM      8  C   UNL     1       6.373  -0.091  -1.576  1.00  0.00     0.054 A 
ATOM      9  C   UNL     1       8.920   0.775  -1.100  1.00  0.00     0.051 A 
ATOM     10  C   UNL     1       7.449  -0.788  -2.135  1.00  0.00     0.166 A 
ATOM     11  C   UNL     1       8.732  -0.351  -1.895  1.00  0.00     0.165 A 
ATOM     12  O   UNL     1       7.528  -1.905  -2.939  1.00  0.00    -0.454 OA
ATOM     13  O   UNL     1       9.582  -1.219  -2.563  1.00  0.00    -0.454 OA
ATOM     14  C   UNL     1       8.866  -2.272  -3.162  1.00  0.00     0.468 C 
ENDBRANCH   5   6
ENDBRANCH   1   5
TORSDOF 3
ENDMDL
MODEL 3
REMARK VINA RESULT:      -7.5      1.798      2.472
REMARK SMILES CC(=O)CCc1ccc2c(c1)OCO2
REMARK SMILES IDX 4 1 2 2 1 3 3 4 5 5 6 6 7 7 11 8 8 9 10 10 9 11 12 12 14 13
REMARK SMILES IDX 13 14
REMARK H PARENT
REMARK Flexibility Score: inf
ROOT
ATOM      1  C   UNL     1       5.793   1.367  -0.372  1.00  0.00     0.080 C 
ENDROOT
BRANCH   1   2
ATOM      2  C   UNL     1       5.147   1.332   0.970  1.00  0.00     0.130 C 
ATOM      3  C   UNL     1       5.394   0.220   1.926  1.00  0.00     0.087 C 
ATOM      4  O   UNL     1       4.390   2.221   1.324  1.00  0.00    -0.300 OA
ENDBRANCH   1   2
BRANCH   1   5
ATOM      5  C   UNL     1       7.278   1.076  -0.276  1.00  0.00     0.043 C 
BRANCH   5   6
ATOM      6  C   UNL     1       7.620  -0.222  -0.884  1.00  0.00    -0.044 A 
ATOM      7  C   UNL     1       7.641  -0.398  -2.272  1.00  0.00     0.008 A 
ATOM      8  C   UNL     1       7.931  -1.293  -0.077  1.00  0.00     0.054 A 
ATOM      9  C   UNL     1       7.971  -1.639  -2.787  1.00  0.00     0.051 A 
ATOM     10  C   UNL     1       8.264  -2.546  -0.602  1.00  0.00     0.166 A 
ATOM     11  C   UNL     1       8.284  -2.720  -1.968  1.00  0.00     0.165 A 
ATOM     12  O   UNL     1       8.605  -3.748  -0.020  1.00  0.00    -0.454 OA
ATOM     13  O   UNL     1       8.641  -4.039  -2.198  1.00  0.00    -0.454 OA
ATOM     14  C   UNL     1       8.942  -4.702  -0.993  1.00  0.00     0.468 C 
ENDBRANCH   5   6
ENDBRANCH   1   5
TORSDOF 3
ENDMDL
