@<TRIPOS>MOLECULE
/home/cewinharhar/GITHUB/reincatalyze/data/processed/docking_pred/2023-May-22-1531_sub9_nm5_bs15_s42_ex16_mel10_mts1000_k50_ec02_g099_lra9e-4_lrc1e-3/d4c602a3745b48528a2ec664cc6a2c0711254731_ligand_9.pdbqt
 14 15 0 0 0
SMALL
GASTEIGER

@<TRIPOS>ATOM
      1  C          5.3730    3.0080    0.1080 C.3     1  UNL1        0.0800
      2  C          6.2900    3.7810    0.9920 C.2     1  UNL1        0.1300
      3  C          7.2500    4.7750    0.4430 C.3     1  UNL1        0.0870
      4  O          6.2790    3.6180    2.2020 O.2     1  UNL1       -0.3000
      5  C          5.0350    1.6590    0.7100 C.3     1  UNL1        0.0430
      6  C          5.9160    0.5950    0.1960 C.2     1  UNL1       -0.0440
      7  C          6.3840    0.6050   -1.1230 C.2     1  UNL1        0.0080
      8  C          6.2970   -0.4360    1.0250 C.2     1  UNL1        0.0540
      9  C          7.2100   -0.4200   -1.5490 C.2     1  UNL1        0.0510
     10  C          7.1320   -1.4690    0.5890 C.2     1  UNL1        0.1660
     11  C          7.5920   -1.4610   -0.7090 C.2     1  UNL1        0.1650
     12  O          7.6440   -2.5880    1.2100 O.2     1  UNL1       -0.4540
     13  O          8.3860   -2.5870   -0.8590 O.2     1  UNL1       -0.4540
     14  C          8.5200   -3.2810    0.3580 C.3     1  UNL1        0.4680
@<TRIPOS>BOND
     1     9     7    1
     2     9    11    2
     3     7     6    2
     4    13    11    1
     5    13    14    1
     6    11    10    1
     7     1     5    1
     8     1     2    1
     9     6     5    1
    10     6     8    1
    11    14    12    1
    12     3     2    1
    13    10     8    2
    14    10    12    1
    15     2     4    2
