MODEL 1
REMARK VINA RESULT:      -7.8      0.000      0.000
REMARK SMILES CC(=O)CCc1ccc2c(c1)OCO2
REMARK SMILES IDX 4 1 2 2 1 3 3 4 5 5 6 6 7 7 11 8 8 9 10 10 9 11 12 12 14 13
REMARK SMILES IDX 13 14
REMARK H PARENT
REMARK Flexibility Score: inf
ROOT
ATOM      1  C   UNL     1       5.439   2.924   0.161  1.00  0.00     0.080 C 
ENDROOT
BRANCH   1   2
ATOM      2  C   UNL     1       6.255   3.844   1.001  1.00  0.00     0.130 C 
ATOM      3  C   UNL     1       7.249   4.775   0.400  1.00  0.00     0.087 C 
ATOM      4  O   UNL     1       6.132   3.861   2.215  1.00  0.00    -0.300 OA
ENDBRANCH   1   2
BRANCH   1   5
ATOM      5  C   UNL     1       5.200   1.603   0.866  1.00  0.00     0.043 C 
BRANCH   5   6
ATOM      6  C   UNL     1       6.044   0.528   0.315  1.00  0.00    -0.044 A 
ATOM      7  C   UNL     1       6.378  -0.602   1.069  1.00  0.00     0.008 A 
ATOM      8  C   UNL     1       6.518   0.627  -0.974  1.00  0.00     0.054 A 
ATOM      9  C   UNL     1       7.173  -1.579   0.498  1.00  0.00     0.051 A 
ATOM     10  C   UNL     1       7.320  -0.365  -1.547  1.00  0.00     0.166 A 
ATOM     11  C   UNL     1       7.651  -1.476  -0.804  1.00  0.00     0.165 A 
ATOM     12  O   UNL     1       7.908  -0.497  -2.787  1.00  0.00    -0.454 OA
ATOM     13  O   UNL     1       8.442  -2.278  -1.613  1.00  0.00    -0.454 OA
ATOM     14  C   UNL     1       8.555  -1.738  -2.908  1.00  0.00     0.468 C 
ENDBRANCH   5   6
ENDBRANCH   1   5
TORSDOF 3
ENDMDL
MODEL 2
REMARK VINA RESULT:      -7.8      1.030      2.017
REMARK SMILES CC(=O)CCc1ccc2c(c1)OCO2
REMARK SMILES IDX 4 1 2 2 1 3 3 4 5 5 6 6 7 7 11 8 8 9 10 10 9 11 12 12 14 13
REMARK SMILES IDX 13 14
REMARK H PARENT
REMARK Flexibility Score: inf
ROOT
ATOM      1  C   UNL     1       5.316   3.004   0.189  1.00  0.00     0.080 C 
ENDROOT
BRANCH   1   2
ATOM      2  C   UNL     1       6.283   3.804   0.991  1.00  0.00     0.130 C 
ATOM      3  C   UNL     1       7.212   4.775   0.353  1.00  0.00     0.087 C 
ATOM      4  O   UNL     1       6.341   3.684   2.204  1.00  0.00    -0.300 OA
ENDBRANCH   1   2
BRANCH   1   5
ATOM      5  C   UNL     1       5.043   1.661   0.836  1.00  0.00     0.043 C 
BRANCH   5   6
ATOM      6  C   UNL     1       5.909   0.602   0.286  1.00  0.00    -0.044 A 
ATOM      7  C   UNL     1       6.335   0.623  -1.047  1.00  0.00     0.008 A 
ATOM      8  C   UNL     1       6.316  -0.434   1.095  1.00  0.00     0.054 A 
ATOM      9  C   UNL     1       7.148  -0.397  -1.507  1.00  0.00     0.051 A 
ATOM     10  C   UNL     1       7.139  -1.463   0.625  1.00  0.00     0.166 A 
ATOM     11  C   UNL     1       7.558  -1.444  -0.687  1.00  0.00     0.165 A 
ATOM     12  O   UNL     1       7.671  -2.586   1.220  1.00  0.00    -0.454 OA
ATOM     13  O   UNL     1       8.348  -2.568  -0.871  1.00  0.00    -0.454 OA
ATOM     14  C   UNL     1       8.521  -3.271   0.336  1.00  0.00     0.468 C 
ENDBRANCH   5   6
ENDBRANCH   1   5
TORSDOF 3
ENDMDL
MODEL 3
REMARK VINA RESULT:      -7.7      1.900      2.625
REMARK SMILES CC(=O)CCc1ccc2c(c1)OCO2
REMARK SMILES IDX 4 1 2 2 1 3 3 4 5 5 6 6 7 7 11 8 8 9 10 10 9 11 12 12 14 13
REMARK SMILES IDX 13 14
REMARK H PARENT
REMARK Flexibility Score: inf
ROOT
ATOM      1  C   UNL     1       5.534   1.901   1.282  1.00  0.00     0.080 C 
ENDROOT
BRANCH   1   2
ATOM      2  C   UNL     1       5.102   0.677   2.013  1.00  0.00     0.130 C 
ATOM      3  C   UNL     1       6.004  -0.495   2.175  1.00  0.00     0.087 C 
ATOM      4  O   UNL     1       3.987   0.601   2.504  1.00  0.00    -0.300 OA
ENDBRANCH   1   2
BRANCH   1   5
ATOM      5  C   UNL     1       5.406   1.719  -0.218  1.00  0.00     0.043 C 
BRANCH   5   6
ATOM      6  C   UNL     1       6.571   1.018  -0.784  1.00  0.00    -0.044 A 
ATOM      7  C   UNL     1       7.879   1.447  -0.533  1.00  0.00     0.008 A 
ATOM      8  C   UNL     1       6.381  -0.089  -1.580  1.00  0.00     0.054 A 
ATOM      9  C   UNL     1       8.934   0.749  -1.091  1.00  0.00     0.051 A 
ATOM     10  C   UNL     1       7.451  -0.793  -2.141  1.00  0.00     0.166 A 
ATOM     11  C   UNL     1       8.738  -0.370  -1.895  1.00  0.00     0.165 A 
ATOM     12  O   UNL     1       7.521  -1.905  -2.953  1.00  0.00    -0.454 OA
ATOM     13  O   UNL     1       9.581  -1.241  -2.567  1.00  0.00    -0.454 OA
ATOM     14  C   UNL     1       8.856  -2.282  -3.177  1.00  0.00     0.468 C 
ENDBRANCH   5   6
ENDBRANCH   1   5
TORSDOF 3
ENDMDL
