@<TRIPOS>MOLECULE
/home/cewinharhar/GITHUB/reincatalyze/data/processed/docking_pred/2023-May-22-1531_sub9_nm5_bs15_s42_ex16_mel10_mts1000_k50_ec02_g099_lra9e-4_lrc1e-3/d68da6ca94917019a71bc3feefe4e6b6d631e6ad_ligand_9.pdbqt
 14 15 0 0 0
SMALL
GASTEIGER

@<TRIPOS>ATOM
      1  C          5.4390    2.9240    0.1610 C.3     1  UNL1        0.0800
      2  C          6.2550    3.8440    1.0010 C.2     1  UNL1        0.1300
      3  C          7.2490    4.7750    0.4000 C.3     1  UNL1        0.0870
      4  O          6.1320    3.8610    2.2150 O.2     1  UNL1       -0.3000
      5  C          5.2000    1.6030    0.8660 C.3     1  UNL1        0.0430
      6  C          6.0440    0.5280    0.3150 C.2     1  UNL1       -0.0440
      7  C          6.3780   -0.6020    1.0690 C.2     1  UNL1        0.0080
      8  C          6.5180    0.6270   -0.9740 C.2     1  UNL1        0.0540
      9  C          7.1730   -1.5790    0.4980 C.2     1  UNL1        0.0510
     10  C          7.3200   -0.3650   -1.5470 C.2     1  UNL1        0.1660
     11  C          7.6510   -1.4760   -0.8040 C.2     1  UNL1        0.1650
     12  O          7.9080   -0.4970   -2.7870 O.2     1  UNL1       -0.4540
     13  O          8.4420   -2.2780   -1.6130 O.2     1  UNL1       -0.4540
     14  C          8.5550   -1.7380   -2.9080 C.3     1  UNL1        0.4680
@<TRIPOS>BOND
     1    14    12    1
     2    14    13    1
     3    12    10    1
     4    13    11    1
     5    10     8    1
     6    10    11    2
     7     8     6    2
     8    11     9    1
     9     1     5    1
    10     1     2    1
    11     6     5    1
    12     6     7    1
    13     3     2    1
    14     9     7    2
    15     2     4    2
