@<TRIPOS>MOLECULE
/home/cewinharhar/GITHUB/reincatalyze/data/processed/docking_pred/2023-May-22-1531_sub9_nm5_bs15_s42_ex16_mel10_mts1000_k50_ec02_g099_lra9e-4_lrc1e-3/d68da6ca94917019a71bc3feefe4e6b6d631e6ad_ligand_9.pdbqt
 14 15 0 0 0
SMALL
GASTEIGER

@<TRIPOS>ATOM
      1  C          5.3160    3.0040    0.1890 C.3     1  UNL1        0.0800
      2  C          6.2830    3.8040    0.9910 C.2     1  UNL1        0.1300
      3  C          7.2120    4.7750    0.3530 C.3     1  UNL1        0.0870
      4  O          6.3410    3.6840    2.2040 O.2     1  UNL1       -0.3000
      5  C          5.0430    1.6610    0.8360 C.3     1  UNL1        0.0430
      6  C          5.9090    0.6020    0.2860 C.2     1  UNL1       -0.0440
      7  C          6.3350    0.6230   -1.0470 C.2     1  UNL1        0.0080
      8  C          6.3160   -0.4340    1.0950 C.2     1  UNL1        0.0540
      9  C          7.1480   -0.3970   -1.5070 C.2     1  UNL1        0.0510
     10  C          7.1390   -1.4630    0.6250 C.2     1  UNL1        0.1660
     11  C          7.5580   -1.4440   -0.6870 C.2     1  UNL1        0.1650
     12  O          7.6710   -2.5860    1.2200 O.2     1  UNL1       -0.4540
     13  O          8.3480   -2.5680   -0.8710 O.2     1  UNL1       -0.4540
     14  C          8.5210   -3.2710    0.3360 C.3     1  UNL1        0.4680
@<TRIPOS>BOND
     1     9     7    1
     2     9    11    2
     3     7     6    2
     4    13    11    1
     5    13    14    1
     6    11    10    1
     7     1     5    1
     8     1     2    1
     9     6     5    1
    10     6     8    1
    11    14    12    1
    12     3     2    1
    13    10     8    2
    14    10    12    1
    15     2     4    2
