MODEL 1
REMARK VINA RESULT:      -7.6      0.000      0.000
REMARK SMILES CC(=O)CCc1ccc2c(c1)OCO2
REMARK SMILES IDX 4 1 2 2 1 3 3 4 5 5 6 6 7 7 11 8 8 9 10 10 9 11 12 12 14 13
REMARK SMILES IDX 13 14
REMARK H PARENT
REMARK Flexibility Score: inf
ROOT
ATOM      1  C   UNL     1       5.526   1.935   1.269  1.00  0.00     0.080 C 
ENDROOT
BRANCH   1   2
ATOM      2  C   UNL     1       5.095   0.718   2.011  1.00  0.00     0.130 C 
ATOM      3  C   UNL     1       6.000  -0.449   2.190  1.00  0.00     0.087 C 
ATOM      4  O   UNL     1       3.978   0.643   2.496  1.00  0.00    -0.300 OA
ENDBRANCH   1   2
BRANCH   1   5
ATOM      5  C   UNL     1       5.397   1.741  -0.229  1.00  0.00     0.043 C 
BRANCH   5   6
ATOM      6  C   UNL     1       6.565   1.039  -0.792  1.00  0.00    -0.044 A 
ATOM      7  C   UNL     1       7.871   1.473  -0.541  1.00  0.00     0.008 A 
ATOM      8  C   UNL     1       6.377  -0.072  -1.582  1.00  0.00     0.054 A 
ATOM      9  C   UNL     1       8.928   0.774  -1.095  1.00  0.00     0.051 A 
ATOM     10  C   UNL     1       7.449  -0.775  -2.139  1.00  0.00     0.166 A 
ATOM     11  C   UNL     1       8.735  -0.349  -1.894  1.00  0.00     0.165 A 
ATOM     12  O   UNL     1       7.523  -1.891  -2.947  1.00  0.00    -0.454 OA
ATOM     13  O   UNL     1       9.581  -1.221  -2.561  1.00  0.00    -0.454 OA
ATOM     14  C   UNL     1       8.859  -2.266  -3.167  1.00  0.00     0.468 C 
ENDBRANCH   5   6
ENDBRANCH   1   5
TORSDOF 3
ENDMDL
MODEL 2
REMARK VINA RESULT:      -7.5      1.929      2.401
REMARK SMILES CC(=O)CCc1ccc2c(c1)OCO2
REMARK SMILES IDX 4 1 2 2 1 3 3 4 5 5 6 6 7 7 11 8 8 9 10 10 9 11 12 12 14 13
REMARK SMILES IDX 13 14
REMARK H PARENT
REMARK Flexibility Score: inf
ROOT
ATOM      1  C   UNL     1       5.726   1.312  -0.327  1.00  0.00     0.080 C 
ENDROOT
BRANCH   1   2
ATOM      2  C   UNL     1       5.144   1.282   1.043  1.00  0.00     0.130 C 
ATOM      3  C   UNL     1       5.328   0.113   1.944  1.00  0.00     0.087 C 
ATOM      4  O   UNL     1       4.494   2.223   1.469  1.00  0.00    -0.300 OA
ENDBRANCH   1   2
BRANCH   1   5
ATOM      5  C   UNL     1       7.227   1.101  -0.293  1.00  0.00     0.043 C 
BRANCH   5   6
ATOM      6  C   UNL     1       7.611  -0.190  -0.890  1.00  0.00    -0.044 A 
ATOM      7  C   UNL     1       7.711  -0.356  -2.276  1.00  0.00     0.008 A 
ATOM      8  C   UNL     1       7.882  -1.265  -0.075  1.00  0.00     0.054 A 
ATOM      9  C   UNL     1       8.077  -1.591  -2.780  1.00  0.00     0.051 A 
ATOM     10  C   UNL     1       8.252  -2.512  -0.589  1.00  0.00     0.166 A 
ATOM     11  C   UNL     1       8.350  -2.676  -1.953  1.00  0.00     0.165 A 
ATOM     12  O   UNL     1       8.567  -3.717   0.003  1.00  0.00    -0.454 OA
ATOM     13  O   UNL     1       8.728  -3.991  -2.172  1.00  0.00    -0.454 OA
ATOM     14  C   UNL     1       8.964  -4.661  -0.957  1.00  0.00     0.468 C 
ENDBRANCH   5   6
ENDBRANCH   1   5
TORSDOF 3
ENDMDL
MODEL 3
REMARK VINA RESULT:      -7.2      2.191      2.713
REMARK SMILES CC(=O)CCc1ccc2c(c1)OCO2
REMARK SMILES IDX 4 1 2 2 1 3 3 4 5 5 6 6 7 7 11 8 8 9 10 10 9 11 12 12 14 13
REMARK SMILES IDX 13 14
REMARK H PARENT
REMARK Flexibility Score: inf
ROOT
ATOM      1  C   UNL     1       5.611   1.320  -0.548  1.00  0.00     0.080 C 
ENDROOT
BRANCH   1   2
ATOM      2  C   UNL     1       5.337   2.289   0.550  1.00  0.00     0.130 C 
ATOM      3  C   UNL     1       6.086   3.569   0.667  1.00  0.00     0.087 C 
ATOM      4  O   UNL     1       4.483   2.058   1.391  1.00  0.00    -0.300 OA
ENDBRANCH   1   2
BRANCH   1   5
ATOM      5  C   UNL     1       7.101   1.144  -0.766  1.00  0.00     0.043 C 
BRANCH   5   6
ATOM      6  C   UNL     1       7.541  -0.227  -0.450  1.00  0.00    -0.044 A 
ATOM      7  C   UNL     1       7.684  -0.664   0.872  1.00  0.00     0.008 A 
ATOM      8  C   UNL     1       7.819  -1.107  -1.471  1.00  0.00     0.054 A 
ATOM      9  C   UNL     1       8.099  -1.962   1.109  1.00  0.00     0.051 A 
ATOM     10  C   UNL     1       8.238  -2.418  -1.226  1.00  0.00     0.166 A 
ATOM     11  C   UNL     1       8.380  -2.849   0.074  1.00  0.00     0.165 A 
ATOM     12  O   UNL     1       8.572  -3.468  -2.055  1.00  0.00    -0.454 OA
ATOM     13  O   UNL     1       8.801  -4.168   0.016  1.00  0.00    -0.454 OA
ATOM     14  C   UNL     1       8.848  -4.628  -1.314  1.00  0.00     0.468 C 
ENDBRANCH   5   6
ENDBRANCH   1   5
TORSDOF 3
ENDMDL
