@<TRIPOS>MOLECULE
/home/cewinharhar/GITHUB/reincatalyze/data/processed/docking_pred/2023-May-22-1531_sub9_nm5_bs15_s42_ex16_mel10_mts1000_k50_ec02_g099_lra9e-4_lrc1e-3/db02e8dbba2ca978bde564db4603195d7659b46f_ligand_9.pdbqt
 14 15 0 0 0
SMALL
GASTEIGER

@<TRIPOS>ATOM
      1  C          5.7260    1.3120   -0.3270 C.3     1  UNL1        0.0800
      2  C          5.1440    1.2820    1.0430 C.2     1  UNL1        0.1300
      3  C          5.3280    0.1130    1.9440 C.3     1  UNL1        0.0870
      4  O          4.4940    2.2230    1.4690 O.2     1  UNL1       -0.3000
      5  C          7.2270    1.1010   -0.2930 C.3     1  UNL1        0.0430
      6  C          7.6110   -0.1900   -0.8900 C.2     1  UNL1       -0.0440
      7  C          7.7110   -0.3560   -2.2760 C.2     1  UNL1        0.0080
      8  C          7.8820   -1.2650   -0.0750 C.2     1  UNL1        0.0540
      9  C          8.0770   -1.5910   -2.7800 C.2     1  UNL1        0.0510
     10  C          8.2520   -2.5120   -0.5890 C.2     1  UNL1        0.1660
     11  C          8.3500   -2.6760   -1.9530 C.2     1  UNL1        0.1650
     12  O          8.5670   -3.7170    0.0030 O.2     1  UNL1       -0.4540
     13  O          8.7280   -3.9910   -2.1720 O.2     1  UNL1       -0.4540
     14  C          8.9640   -4.6610   -0.9570 C.3     1  UNL1        0.4680
@<TRIPOS>BOND
     1     9     7    1
     2     9    11    2
     3     7     6    2
     4    13    11    1
     5    13    14    1
     6    11    10    1
     7    14    12    1
     8     6     5    1
     9     6     8    1
    10    10     8    2
    11    10    12    1
    12     1     5    1
    13     1     2    1
    14     2     4    2
    15     2     3    1
