@<TRIPOS>MOLECULE
/home/cewinharhar/GITHUB/reincatalyze/data/processed/docking_pred/2023-May-22-1531_sub9_nm5_bs15_s42_ex16_mel10_mts1000_k50_ec02_g099_lra9e-4_lrc1e-3/db02e8dbba2ca978bde564db4603195d7659b46f_ligand_9.pdbqt
 14 15 0 0 0
SMALL
GASTEIGER

@<TRIPOS>ATOM
      1  C          5.6110    1.3200   -0.5480 C.3     1  UNL1        0.0800
      2  C          5.3370    2.2890    0.5500 C.2     1  UNL1        0.1300
      3  C          6.0860    3.5690    0.6670 C.3     1  UNL1        0.0870
      4  O          4.4830    2.0580    1.3910 O.2     1  UNL1       -0.3000
      5  C          7.1010    1.1440   -0.7660 C.3     1  UNL1        0.0430
      6  C          7.5410   -0.2270   -0.4500 C.2     1  UNL1       -0.0440
      7  C          7.6840   -0.6640    0.8720 C.2     1  UNL1        0.0080
      8  C          7.8190   -1.1070   -1.4710 C.2     1  UNL1        0.0540
      9  C          8.0990   -1.9620    1.1090 C.2     1  UNL1        0.0510
     10  C          8.2380   -2.4180   -1.2260 C.2     1  UNL1        0.1660
     11  C          8.3800   -2.8490    0.0740 C.2     1  UNL1        0.1650
     12  O          8.5720   -3.4680   -2.0550 O.2     1  UNL1       -0.4540
     13  O          8.8010   -4.1680    0.0160 O.2     1  UNL1       -0.4540
     14  C          8.8480   -4.6280   -1.3140 C.3     1  UNL1        0.4680
@<TRIPOS>BOND
     1    12    14    1
     2    12    10    1
     3     8    10    1
     4     8     6    2
     5    14    13    1
     6    10    11    2
     7     5     1    1
     8     5     6    1
     9     1     2    1
    10     6     7    1
    11    13    11    1
    12    11     9    1
    13     2     3    1
    14     2     4    2
    15     7     9    2
