@<TRIPOS>MOLECULE
/home/cewinharhar/GITHUB/reincatalyze/data/processed/docking_pred/2023-May-22-1531_sub9_nm5_bs15_s42_ex16_mel10_mts1000_k50_ec02_g099_lra9e-4_lrc1e-3/db57195a81496af8cffcd6b4d9524a1fe0637e4f_ligand_9.pdbqt
 14 15 0 0 0
SMALL
GASTEIGER

@<TRIPOS>ATOM
      1  C          5.5110    1.9190    1.2580 C.3     1  UNL1        0.0800
      2  C          5.0670    0.7050    1.9980 C.2     1  UNL1        0.1300
      3  C          5.9530   -0.4790    2.1590 C.3     1  UNL1        0.0870
      4  O          3.9550    0.6470    2.4970 O.2     1  UNL1       -0.3000
      5  C          5.3880    1.7270   -0.2400 C.3     1  UNL1        0.0430
      6  C          6.5570    1.0250   -0.7990 C.2     1  UNL1       -0.0440
      7  C          7.8630    1.4630   -0.5500 C.2     1  UNL1        0.0080
      8  C          6.3730   -0.0900   -1.5850 C.2     1  UNL1        0.0540
      9  C          8.9220    0.7650   -1.1010 C.2     1  UNL1        0.0510
     10  C          7.4470   -0.7930   -2.1390 C.2     1  UNL1        0.1660
     11  C          8.7320   -0.3620   -1.8950 C.2     1  UNL1        0.1650
     12  O          7.5240   -1.9110   -2.9410 O.2     1  UNL1       -0.4540
     13  O          9.5800   -1.2340   -2.5590 O.2     1  UNL1       -0.4540
     14  C          8.8600   -2.2840   -3.1600 C.3     1  UNL1        0.4680
@<TRIPOS>BOND
     1    14    12    1
     2    14    13    1
     3    12    10    1
     4    13    11    1
     5    10    11    2
     6    10     8    1
     7    11     9    1
     8     8     6    2
     9     9     7    2
    10     6     7    1
    11     6     5    1
    12     5     1    1
    13     1     2    1
    14     2     3    1
    15     2     4    2
