MODEL 1
REMARK VINA RESULT:      -7.6      0.000      0.000
REMARK SMILES CC(=O)CCc1ccc2c(c1)OCO2
REMARK SMILES IDX 4 1 2 2 1 3 3 4 5 5 6 6 7 7 11 8 8 9 10 10 9 11 12 12 14 13
REMARK SMILES IDX 13 14
REMARK H PARENT
REMARK Flexibility Score: inf
ROOT
ATOM      1  C   UNL     1       5.511   1.919   1.258  1.00  0.00     0.080 C 
ENDROOT
BRANCH   1   2
ATOM      2  C   UNL     1       5.067   0.705   1.998  1.00  0.00     0.130 C 
ATOM      3  C   UNL     1       5.953  -0.479   2.159  1.00  0.00     0.087 C 
ATOM      4  O   UNL     1       3.955   0.647   2.497  1.00  0.00    -0.300 OA
ENDBRANCH   1   2
BRANCH   1   5
ATOM      5  C   UNL     1       5.388   1.727  -0.240  1.00  0.00     0.043 C 
BRANCH   5   6
ATOM      6  C   UNL     1       6.557   1.025  -0.799  1.00  0.00    -0.044 A 
ATOM      7  C   UNL     1       7.863   1.463  -0.550  1.00  0.00     0.008 A 
ATOM      8  C   UNL     1       6.373  -0.090  -1.585  1.00  0.00     0.054 A 
ATOM      9  C   UNL     1       8.922   0.765  -1.101  1.00  0.00     0.051 A 
ATOM     10  C   UNL     1       7.447  -0.793  -2.139  1.00  0.00     0.166 A 
ATOM     11  C   UNL     1       8.732  -0.362  -1.895  1.00  0.00     0.165 A 
ATOM     12  O   UNL     1       7.524  -1.911  -2.941  1.00  0.00    -0.454 OA
ATOM     13  O   UNL     1       9.580  -1.234  -2.559  1.00  0.00    -0.454 OA
ATOM     14  C   UNL     1       8.860  -2.284  -3.160  1.00  0.00     0.468 C 
ENDBRANCH   5   6
ENDBRANCH   1   5
TORSDOF 3
ENDMDL
MODEL 2
REMARK VINA RESULT:      -7.5      1.925      2.422
REMARK SMILES CC(=O)CCc1ccc2c(c1)OCO2
REMARK SMILES IDX 4 1 2 2 1 3 3 4 5 5 6 6 7 7 11 8 8 9 10 10 9 11 12 12 14 13
REMARK SMILES IDX 13 14
REMARK H PARENT
REMARK Flexibility Score: inf
ROOT
ATOM      1  C   UNL     1       5.751   1.341  -0.354  1.00  0.00     0.080 C 
ENDROOT
BRANCH   1   2
ATOM      2  C   UNL     1       5.129   1.308   0.999  1.00  0.00     0.130 C 
ATOM      3  C   UNL     1       5.402   0.203   1.957  1.00  0.00     0.087 C 
ATOM      4  O   UNL     1       4.373   2.194   1.363  1.00  0.00    -0.300 OA
ENDBRANCH   1   2
BRANCH   1   5
ATOM      5  C   UNL     1       7.241   1.071  -0.283  1.00  0.00     0.043 C 
BRANCH   5   6
ATOM      6  C   UNL     1       7.591  -0.226  -0.888  1.00  0.00    -0.044 A 
ATOM      7  C   UNL     1       7.608  -0.406  -2.276  1.00  0.00     0.008 A 
ATOM      8  C   UNL     1       7.913  -1.292  -0.079  1.00  0.00     0.054 A 
ATOM      9  C   UNL     1       7.945  -1.646  -2.787  1.00  0.00     0.051 A 
ATOM     10  C   UNL     1       8.254  -2.543  -0.601  1.00  0.00     0.166 A 
ATOM     11  C   UNL     1       8.270  -2.722  -1.966  1.00  0.00     0.165 A 
ATOM     12  O   UNL     1       8.606  -3.741  -0.016  1.00  0.00    -0.454 OA
ATOM     13  O   UNL     1       8.637  -4.039  -2.194  1.00  0.00    -0.454 OA
ATOM     14  C   UNL     1       8.948  -4.695  -0.988  1.00  0.00     0.468 C 
ENDBRANCH   5   6
ENDBRANCH   1   5
TORSDOF 3
ENDMDL
MODEL 3
REMARK VINA RESULT:      -7.3      2.347      2.899
REMARK SMILES CC(=O)CCc1ccc2c(c1)OCO2
REMARK SMILES IDX 4 1 2 2 1 3 3 4 5 5 6 6 7 7 11 8 8 9 10 10 9 11 12 12 14 13
REMARK SMILES IDX 13 14
REMARK H PARENT
REMARK Flexibility Score: inf
ROOT
ATOM      1  C   UNL     1       5.469   2.389   1.092  1.00  0.00     0.080 C 
ENDROOT
BRANCH   1   2
ATOM      2  C   UNL     1       6.185   3.679   1.293  1.00  0.00     0.130 C 
ATOM      3  C   UNL     1       6.976   4.312   0.203  1.00  0.00     0.087 C 
ATOM      4  O   UNL     1       6.144   4.258   2.367  1.00  0.00    -0.300 OA
ENDBRANCH   1   2
BRANCH   1   5
ATOM      5  C   UNL     1       5.441   1.997  -0.372  1.00  0.00     0.043 C 
BRANCH   5   6
ATOM      6  C   UNL     1       6.210   0.765  -0.623  1.00  0.00    -0.044 A 
ATOM      7  C   UNL     1       6.631   0.412  -1.910  1.00  0.00     0.008 A 
ATOM      8  C   UNL     1       6.530  -0.065   0.428  1.00  0.00     0.054 A 
ATOM      9  C   UNL     1       7.350  -0.756  -2.085  1.00  0.00     0.051 A 
ATOM     10  C   UNL     1       7.258  -1.244   0.246  1.00  0.00     0.166 A 
ATOM     11  C   UNL     1       7.671  -1.593  -1.020  1.00  0.00     0.165 A 
ATOM     12  O   UNL     1       7.694  -2.223   1.115  1.00  0.00    -0.454 OA
ATOM     13  O   UNL     1       8.361  -2.789  -0.902  1.00  0.00    -0.454 OA
ATOM     14  C   UNL     1       8.477  -3.178   0.446  1.00  0.00     0.468 C 
ENDBRANCH   5   6
ENDBRANCH   1   5
TORSDOF 3
ENDMDL
