@<TRIPOS>MOLECULE
/home/cewinharhar/GITHUB/reincatalyze/data/processed/docking_pred/2023-May-22-1531_sub9_nm5_bs15_s42_ex16_mel10_mts1000_k50_ec02_g099_lra9e-4_lrc1e-3/db57195a81496af8cffcd6b4d9524a1fe0637e4f_ligand_9.pdbqt
 14 15 0 0 0
SMALL
GASTEIGER

@<TRIPOS>ATOM
      1  C          5.4690    2.3890    1.0920 C.3     1  UNL1        0.0800
      2  C          6.1850    3.6790    1.2930 C.2     1  UNL1        0.1300
      3  C          6.9760    4.3120    0.2030 C.3     1  UNL1        0.0870
      4  O          6.1440    4.2580    2.3670 O.2     1  UNL1       -0.3000
      5  C          5.4410    1.9970   -0.3720 C.3     1  UNL1        0.0430
      6  C          6.2100    0.7650   -0.6230 C.2     1  UNL1       -0.0440
      7  C          6.6310    0.4120   -1.9100 C.2     1  UNL1        0.0080
      8  C          6.5300   -0.0650    0.4280 C.2     1  UNL1        0.0540
      9  C          7.3500   -0.7560   -2.0850 C.2     1  UNL1        0.0510
     10  C          7.2580   -1.2440    0.2460 C.2     1  UNL1        0.1660
     11  C          7.6710   -1.5930   -1.0200 C.2     1  UNL1        0.1650
     12  O          7.6940   -2.2230    1.1150 O.2     1  UNL1       -0.4540
     13  O          8.3610   -2.7890   -0.9020 O.2     1  UNL1       -0.4540
     14  C          8.4770   -3.1780    0.4460 C.3     1  UNL1        0.4680
@<TRIPOS>BOND
     1     9     7    1
     2     9    11    2
     3     7     6    2
     4    11    13    1
     5    11    10    1
     6    13    14    1
     7     6     5    1
     8     6     8    1
     9     5     1    1
    10     3     2    1
    11    10     8    2
    12    10    12    1
    13    14    12    1
    14     1     2    1
    15     2     4    2
