MODEL 1
REMARK VINA RESULT:      -8.0      0.000      0.000
REMARK SMILES CC(=O)CCc1ccc2c(c1)OCO2
REMARK SMILES IDX 4 1 2 2 1 3 3 4 5 5 6 6 7 7 11 8 8 9 10 10 9 11 12 12 14 13
REMARK SMILES IDX 13 14
REMARK H PARENT
REMARK Flexibility Score: inf
ROOT
ATOM      1  C   UNL     1       5.442   2.922   0.102  1.00  0.00     0.080 C 
ENDROOT
BRANCH   1   2
ATOM      2  C   UNL     1       6.296   3.810   0.939  1.00  0.00     0.130 C 
ATOM      3  C   UNL     1       7.254   4.772   0.331  1.00  0.00     0.087 C 
ATOM      4  O   UNL     1       6.232   3.773   2.157  1.00  0.00    -0.300 OA
ENDBRANCH   1   2
BRANCH   1   5
ATOM      5  C   UNL     1       5.136   1.620   0.816  1.00  0.00     0.043 C 
BRANCH   5   6
ATOM      6  C   UNL     1       5.965   0.511   0.310  1.00  0.00    -0.044 A 
ATOM      7  C   UNL     1       6.293  -0.586   1.115  1.00  0.00     0.008 A 
ATOM      8  C   UNL     1       6.432   0.544  -0.985  1.00  0.00     0.054 A 
ATOM      9  C   UNL     1       7.074  -1.597   0.585  1.00  0.00     0.051 A 
ATOM     10  C   UNL     1       7.220  -0.482  -1.516  1.00  0.00     0.166 A 
ATOM     11  C   UNL     1       7.544  -1.561  -0.724  1.00  0.00     0.165 A 
ATOM     12  O   UNL     1       7.798  -0.679  -2.752  1.00  0.00    -0.454 OA
ATOM     13  O   UNL     1       8.321  -2.407  -1.498  1.00  0.00    -0.454 OA
ATOM     14  C   UNL     1       8.431  -1.931  -2.818  1.00  0.00     0.468 C 
ENDBRANCH   5   6
ENDBRANCH   1   5
TORSDOF 3
ENDMDL
MODEL 2
REMARK VINA RESULT:      -7.7      0.951      1.941
REMARK SMILES CC(=O)CCc1ccc2c(c1)OCO2
REMARK SMILES IDX 4 1 2 2 1 3 3 4 5 5 6 6 7 7 11 8 8 9 10 10 9 11 12 12 14 13
REMARK SMILES IDX 13 14
REMARK H PARENT
REMARK Flexibility Score: inf
ROOT
ATOM      1  C   UNL     1       5.384   2.967   0.283  1.00  0.00     0.080 C 
ENDROOT
BRANCH   1   2
ATOM      2  C   UNL     1       6.257   3.902   1.046  1.00  0.00     0.130 C 
ATOM      3  C   UNL     1       7.250   4.775   0.365  1.00  0.00     0.087 C 
ATOM      4  O   UNL     1       6.181   3.978   2.262  1.00  0.00    -0.300 OA
ENDBRANCH   1   2
BRANCH   1   5
ATOM      5  C   UNL     1       5.233   1.642   1.005  1.00  0.00     0.043 C 
BRANCH   5   6
ATOM      6  C   UNL     1       6.032   0.580   0.369  1.00  0.00    -0.044 A 
ATOM      7  C   UNL     1       6.369   0.628  -0.989  1.00  0.00     0.008 A 
ATOM      8  C   UNL     1       6.466  -0.490   1.120  1.00  0.00     0.054 A 
ATOM      9  C   UNL     1       7.122  -0.398  -1.530  1.00  0.00     0.051 A 
ATOM     10  C   UNL     1       7.228  -1.524   0.568  1.00  0.00     0.166 A 
ATOM     11  C   UNL     1       7.558  -1.477  -0.769  1.00  0.00     0.165 A 
ATOM     12  O   UNL     1       7.770  -2.676   1.095  1.00  0.00    -0.454 OA
ATOM     13  O   UNL     1       8.305  -2.614  -1.036  1.00  0.00    -0.454 OA
ATOM     14  C   UNL     1       8.540  -3.356   0.137  1.00  0.00     0.468 C 
ENDBRANCH   5   6
ENDBRANCH   1   5
TORSDOF 3
ENDMDL
MODEL 3
REMARK VINA RESULT:      -7.6      1.886      2.647
REMARK SMILES CC(=O)CCc1ccc2c(c1)OCO2
REMARK SMILES IDX 4 1 2 2 1 3 3 4 5 5 6 6 7 7 11 8 8 9 10 10 9 11 12 12 14 13
REMARK SMILES IDX 13 14
REMARK H PARENT
REMARK Flexibility Score: inf
ROOT
ATOM      1  C   UNL     1       5.538   1.922   1.258  1.00  0.00     0.080 C 
ENDROOT
BRANCH   1   2
ATOM      2  C   UNL     1       5.099   0.711   2.006  1.00  0.00     0.130 C 
ATOM      3  C   UNL     1       5.997  -0.462   2.189  1.00  0.00     0.087 C 
ATOM      4  O   UNL     1       3.982   0.645   2.493  1.00  0.00    -0.300 OA
ENDBRANCH   1   2
BRANCH   1   5
ATOM      5  C   UNL     1       5.406   1.723  -0.238  1.00  0.00     0.043 C 
BRANCH   5   6
ATOM      6  C   UNL     1       6.574   1.022  -0.801  1.00  0.00    -0.044 A 
ATOM      7  C   UNL     1       7.881   1.456  -0.551  1.00  0.00     0.008 A 
ATOM      8  C   UNL     1       6.387  -0.090  -1.592  1.00  0.00     0.054 A 
ATOM      9  C   UNL     1       8.938   0.758  -1.106  1.00  0.00     0.051 A 
ATOM     10  C   UNL     1       7.459  -0.793  -2.149  1.00  0.00     0.166 A 
ATOM     11  C   UNL     1       8.745  -0.365  -1.904  1.00  0.00     0.165 A 
ATOM     12  O   UNL     1       7.533  -1.908  -2.956  1.00  0.00    -0.454 OA
ATOM     13  O   UNL     1       9.591  -1.236  -2.572  1.00  0.00    -0.454 OA
ATOM     14  C   UNL     1       8.869  -2.283  -3.177  1.00  0.00     0.468 C 
ENDBRANCH   5   6
ENDBRANCH   1   5
TORSDOF 3
ENDMDL
