@<TRIPOS>MOLECULE
/home/cewinharhar/GITHUB/reincatalyze/data/processed/docking_pred/2023-May-22-1531_sub9_nm5_bs15_s42_ex16_mel10_mts1000_k50_ec02_g099_lra9e-4_lrc1e-3/db6d960fae65c9d90f474a1e8ae318b6f28ec3f2_ligand_9.pdbqt
 14 15 0 0 0
SMALL
GASTEIGER

@<TRIPOS>ATOM
      1  C          5.4420    2.9220    0.1020 C.3     1  UNL1        0.0800
      2  C          6.2960    3.8100    0.9390 C.2     1  UNL1        0.1300
      3  C          7.2540    4.7720    0.3310 C.3     1  UNL1        0.0870
      4  O          6.2320    3.7730    2.1570 O.2     1  UNL1       -0.3000
      5  C          5.1360    1.6200    0.8160 C.3     1  UNL1        0.0430
      6  C          5.9650    0.5110    0.3100 C.2     1  UNL1       -0.0440
      7  C          6.2930   -0.5860    1.1150 C.2     1  UNL1        0.0080
      8  C          6.4320    0.5440   -0.9850 C.2     1  UNL1        0.0540
      9  C          7.0740   -1.5970    0.5850 C.2     1  UNL1        0.0510
     10  C          7.2200   -0.4820   -1.5160 C.2     1  UNL1        0.1660
     11  C          7.5440   -1.5610   -0.7240 C.2     1  UNL1        0.1650
     12  O          7.7980   -0.6790   -2.7520 O.2     1  UNL1       -0.4540
     13  O          8.3210   -2.4070   -1.4980 O.2     1  UNL1       -0.4540
     14  C          8.4310   -1.9310   -2.8180 C.3     1  UNL1        0.4680
@<TRIPOS>BOND
     1    14    12    1
     2    14    13    1
     3    12    10    1
     4    10     8    1
     5    10    11    2
     6    13    11    1
     7     8     6    2
     8    11     9    1
     9     1     5    1
    10     1     2    1
    11     6     5    1
    12     6     7    1
    13     3     2    1
    14     9     7    2
    15     2     4    2
