@<TRIPOS>MOLECULE
/home/cewinharhar/GITHUB/reincatalyze/data/processed/docking_pred/2023-May-22-1531_sub9_nm5_bs15_s42_ex16_mel10_mts1000_k50_ec02_g099_lra9e-4_lrc1e-3/db6d960fae65c9d90f474a1e8ae318b6f28ec3f2_ligand_9.pdbqt
 14 15 0 0 0
SMALL
GASTEIGER

@<TRIPOS>ATOM
      1  C          5.3840    2.9670    0.2830 C.3     1  UNL1        0.0800
      2  C          6.2570    3.9020    1.0460 C.2     1  UNL1        0.1300
      3  C          7.2500    4.7750    0.3650 C.3     1  UNL1        0.0870
      4  O          6.1810    3.9780    2.2620 O.2     1  UNL1       -0.3000
      5  C          5.2330    1.6420    1.0050 C.3     1  UNL1        0.0430
      6  C          6.0320    0.5800    0.3690 C.2     1  UNL1       -0.0440
      7  C          6.3690    0.6280   -0.9890 C.2     1  UNL1        0.0080
      8  C          6.4660   -0.4900    1.1200 C.2     1  UNL1        0.0540
      9  C          7.1220   -0.3980   -1.5300 C.2     1  UNL1        0.0510
     10  C          7.2280   -1.5240    0.5680 C.2     1  UNL1        0.1660
     11  C          7.5580   -1.4770   -0.7690 C.2     1  UNL1        0.1650
     12  O          7.7700   -2.6760    1.0950 O.2     1  UNL1       -0.4540
     13  O          8.3050   -2.6140   -1.0360 O.2     1  UNL1       -0.4540
     14  C          8.5400   -3.3560    0.1370 C.3     1  UNL1        0.4680
@<TRIPOS>BOND
     1     9     7    1
     2     9    11    2
     3    13    11    1
     4    13    14    1
     5     7     6    2
     6    11    10    1
     7    14    12    1
     8     1     5    1
     9     1     2    1
    10     3     2    1
    11     6     5    1
    12     6     8    1
    13    10    12    1
    14    10     8    2
    15     2     4    2
