MODEL 1
REMARK VINA RESULT:      -7.5      0.000      0.000
REMARK SMILES CC(=O)CCc1ccc2c(c1)OCO2
REMARK SMILES IDX 4 1 2 2 1 3 3 4 5 5 6 6 7 7 11 8 8 9 10 10 9 11 12 12 14 13
REMARK SMILES IDX 13 14
REMARK H PARENT
REMARK Flexibility Score: inf
ROOT
ATOM      1  C   UNL     1       5.526   1.911   1.252  1.00  0.00     0.080 C 
ENDROOT
BRANCH   1   2
ATOM      2  C   UNL     1       5.078   0.704   2.002  1.00  0.00     0.130 C 
ATOM      3  C   UNL     1       5.959  -0.482   2.172  1.00  0.00     0.087 C 
ATOM      4  O   UNL     1       3.965   0.654   2.501  1.00  0.00    -0.300 OA
ENDBRANCH   1   2
BRANCH   1   5
ATOM      5  C   UNL     1       5.396   1.709  -0.244  1.00  0.00     0.043 C 
BRANCH   5   6
ATOM      6  C   UNL     1       6.566   1.012  -0.806  1.00  0.00    -0.044 A 
ATOM      7  C   UNL     1       7.871   1.452  -0.557  1.00  0.00     0.008 A 
ATOM      8  C   UNL     1       6.383  -0.102  -1.593  1.00  0.00     0.054 A 
ATOM      9  C   UNL     1       8.931   0.757  -1.110  1.00  0.00     0.051 A 
ATOM     10  C   UNL     1       7.458  -0.802  -2.150  1.00  0.00     0.166 A 
ATOM     11  C   UNL     1       8.742  -0.369  -1.906  1.00  0.00     0.165 A 
ATOM     12  O   UNL     1       7.537  -1.920  -2.954  1.00  0.00    -0.454 OA
ATOM     13  O   UNL     1       9.592  -1.239  -2.572  1.00  0.00    -0.454 OA
ATOM     14  C   UNL     1       8.874  -2.289  -3.174  1.00  0.00     0.468 C 
ENDBRANCH   5   6
ENDBRANCH   1   5
TORSDOF 3
ENDMDL
MODEL 2
REMARK VINA RESULT:      -7.4      1.929      2.397
REMARK SMILES CC(=O)CCc1ccc2c(c1)OCO2
REMARK SMILES IDX 4 1 2 2 1 3 3 4 5 5 6 6 7 7 11 8 8 9 10 10 9 11 12 12 14 13
REMARK SMILES IDX 13 14
REMARK H PARENT
REMARK Flexibility Score: inf
ROOT
ATOM      1  C   UNL     1       5.727   1.285  -0.310  1.00  0.00     0.080 C 
ENDROOT
BRANCH   1   2
ATOM      2  C   UNL     1       5.170   1.284   1.072  1.00  0.00     0.130 C 
ATOM      3  C   UNL     1       5.313   0.107   1.970  1.00  0.00     0.087 C 
ATOM      4  O   UNL     1       4.576   2.256   1.509  1.00  0.00    -0.300 OA
ENDBRANCH   1   2
BRANCH   1   5
ATOM      5  C   UNL     1       7.229   1.086  -0.298  1.00  0.00     0.043 C 
BRANCH   5   6
ATOM      6  C   UNL     1       7.613  -0.206  -0.894  1.00  0.00    -0.044 A 
ATOM      7  C   UNL     1       7.712  -0.374  -2.280  1.00  0.00     0.008 A 
ATOM      8  C   UNL     1       7.887  -1.280  -0.077  1.00  0.00     0.054 A 
ATOM      9  C   UNL     1       8.078  -1.610  -2.782  1.00  0.00     0.051 A 
ATOM     10  C   UNL     1       8.257  -2.527  -0.590  1.00  0.00     0.166 A 
ATOM     11  C   UNL     1       8.353  -2.693  -1.954  1.00  0.00     0.165 A 
ATOM     12  O   UNL     1       8.574  -3.730   0.004  1.00  0.00    -0.454 OA
ATOM     13  O   UNL     1       8.732  -4.008  -2.171  1.00  0.00    -0.454 OA
ATOM     14  C   UNL     1       8.971  -4.676  -0.955  1.00  0.00     0.468 C 
ENDBRANCH   5   6
ENDBRANCH   1   5
TORSDOF 3
ENDMDL
MODEL 3
REMARK VINA RESULT:      -7.2      2.198      2.730
REMARK SMILES CC(=O)CCc1ccc2c(c1)OCO2
REMARK SMILES IDX 4 1 2 2 1 3 3 4 5 5 6 6 7 7 11 8 8 9 10 10 9 11 12 12 14 13
REMARK SMILES IDX 13 14
REMARK H PARENT
REMARK Flexibility Score: inf
ROOT
ATOM      1  C   UNL     1       5.617   1.290  -0.511  1.00  0.00     0.080 C 
ENDROOT
BRANCH   1   2
ATOM      2  C   UNL     1       5.331   2.300   0.546  1.00  0.00     0.130 C 
ATOM      3  C   UNL     1       6.098   3.571   0.638  1.00  0.00     0.087 C 
ATOM      4  O   UNL     1       4.454   2.111   1.373  1.00  0.00    -0.300 OA
ENDBRANCH   1   2
BRANCH   1   5
ATOM      5  C   UNL     1       7.108   1.113  -0.716  1.00  0.00     0.043 C 
BRANCH   5   6
ATOM      6  C   UNL     1       7.541  -0.264  -0.417  1.00  0.00    -0.044 A 
ATOM      7  C   UNL     1       7.680  -0.720   0.899  1.00  0.00     0.008 A 
ATOM      8  C   UNL     1       7.815  -1.132  -1.450  1.00  0.00     0.054 A 
ATOM      9  C   UNL     1       8.089  -2.023   1.118  1.00  0.00     0.051 A 
ATOM     10  C   UNL     1       8.228  -2.448  -1.223  1.00  0.00     0.166 A 
ATOM     11  C   UNL     1       8.366  -2.897   0.071  1.00  0.00     0.165 A 
ATOM     12  O   UNL     1       8.557  -3.488  -2.066  1.00  0.00    -0.454 OA
ATOM     13  O   UNL     1       8.781  -4.218  -0.005  1.00  0.00    -0.454 OA
ATOM     14  C   UNL     1       8.826  -4.660  -1.340  1.00  0.00     0.468 C 
ENDBRANCH   5   6
ENDBRANCH   1   5
TORSDOF 3
ENDMDL
