@<TRIPOS>MOLECULE
/home/cewinharhar/GITHUB/reincatalyze/data/processed/docking_pred/2023-May-22-1531_sub9_nm5_bs15_s42_ex16_mel10_mts1000_k50_ec02_g099_lra9e-4_lrc1e-3/dd626561b0241c753f5aa586a778cbbb50e2da15_ligand_9.pdbqt
 14 15 0 0 0
SMALL
GASTEIGER

@<TRIPOS>ATOM
      1  C          5.7270    1.2850   -0.3100 C.3     1  UNL1        0.0800
      2  C          5.1700    1.2840    1.0720 C.2     1  UNL1        0.1300
      3  C          5.3130    0.1070    1.9700 C.3     1  UNL1        0.0870
      4  O          4.5760    2.2560    1.5090 O.2     1  UNL1       -0.3000
      5  C          7.2290    1.0860   -0.2980 C.3     1  UNL1        0.0430
      6  C          7.6130   -0.2060   -0.8940 C.2     1  UNL1       -0.0440
      7  C          7.7120   -0.3740   -2.2800 C.2     1  UNL1        0.0080
      8  C          7.8870   -1.2800   -0.0770 C.2     1  UNL1        0.0540
      9  C          8.0780   -1.6100   -2.7820 C.2     1  UNL1        0.0510
     10  C          8.2570   -2.5270   -0.5900 C.2     1  UNL1        0.1660
     11  C          8.3530   -2.6930   -1.9540 C.2     1  UNL1        0.1650
     12  O          8.5740   -3.7300    0.0040 O.2     1  UNL1       -0.4540
     13  O          8.7320   -4.0080   -2.1710 O.2     1  UNL1       -0.4540
     14  C          8.9710   -4.6760   -0.9550 C.3     1  UNL1        0.4680
@<TRIPOS>BOND
     1     9     7    1
     2     9    11    2
     3     7     6    2
     4    13    11    1
     5    13    14    1
     6    11    10    1
     7    14    12    1
     8     6     5    1
     9     6     8    1
    10    10     8    2
    11    10    12    1
    12     1     5    1
    13     1     2    1
    14     2     4    2
    15     2     3    1
