@<TRIPOS>MOLECULE
/home/cewinharhar/GITHUB/reincatalyze/data/processed/docking_pred/2023-May-22-1531_sub9_nm5_bs15_s42_ex16_mel10_mts1000_k50_ec02_g099_lra9e-4_lrc1e-3/dd626561b0241c753f5aa586a778cbbb50e2da15_ligand_9.pdbqt
 14 15 0 0 0
SMALL
GASTEIGER

@<TRIPOS>ATOM
      1  C          5.5260    1.9110    1.2520 C.3     1  UNL1        0.0800
      2  C          5.0780    0.7040    2.0020 C.2     1  UNL1        0.1300
      3  C          5.9590   -0.4820    2.1720 C.3     1  UNL1        0.0870
      4  O          3.9650    0.6540    2.5010 O.2     1  UNL1       -0.3000
      5  C          5.3960    1.7090   -0.2440 C.3     1  UNL1        0.0430
      6  C          6.5660    1.0120   -0.8060 C.2     1  UNL1       -0.0440
      7  C          7.8710    1.4520   -0.5570 C.2     1  UNL1        0.0080
      8  C          6.3830   -0.1020   -1.5930 C.2     1  UNL1        0.0540
      9  C          8.9310    0.7570   -1.1100 C.2     1  UNL1        0.0510
     10  C          7.4580   -0.8020   -2.1500 C.2     1  UNL1        0.1660
     11  C          8.7420   -0.3690   -1.9060 C.2     1  UNL1        0.1650
     12  O          7.5370   -1.9200   -2.9540 O.2     1  UNL1       -0.4540
     13  O          9.5920   -1.2390   -2.5720 O.2     1  UNL1       -0.4540
     14  C          8.8740   -2.2890   -3.1740 C.3     1  UNL1        0.4680
@<TRIPOS>BOND
     1    14    12    1
     2    14    13    1
     3    12    10    1
     4    13    11    1
     5    10    11    2
     6    10     8    1
     7    11     9    1
     8     8     6    2
     9     9     7    2
    10     6     7    1
    11     6     5    1
    12     5     1    1
    13     1     2    1
    14     2     3    1
    15     2     4    2
