@<TRIPOS>MOLECULE
/home/cewinharhar/GITHUB/reincatalyze/data/processed/docking_pred/2023-May-22-1531_sub9_nm5_bs15_s42_ex16_mel10_mts1000_k50_ec02_g099_lra9e-4_lrc1e-3/de552809cd3cf8423e47c41d2ed627091c55f56d_ligand_9.pdbqt
 14 15 0 0 0
SMALL
GASTEIGER

@<TRIPOS>ATOM
      1  C          5.4350    2.9090    0.3060 C.3     1  UNL1        0.0800
      2  C          6.3170    3.8230    1.0850 C.2     1  UNL1        0.1300
      3  C          7.2450    4.7720    0.4130 C.3     1  UNL1        0.0870
      4  O          6.3020    3.8190    2.3050 O.2     1  UNL1       -0.3000
      5  C          5.2630    1.5780    1.0100 C.3     1  UNL1        0.0430
      6  C          6.0550    0.5140    0.3680 C.2     1  UNL1       -0.0440
      7  C          6.3720    0.5560   -0.9940 C.2     1  UNL1        0.0080
      8  C          6.5020   -0.5510    1.1180 C.2     1  UNL1        0.0540
      9  C          7.1200   -0.4710   -1.5420 C.2     1  UNL1        0.0510
     10  C          7.2580   -1.5860    0.5600 C.2     1  UNL1        0.1660
     11  C          7.5690   -1.5460   -0.7810 C.2     1  UNL1        0.1650
     12  O          7.8100   -2.7350    1.0850 O.2     1  UNL1       -0.4540
     13  O          8.3140   -2.6820   -1.0540 O.2     1  UNL1       -0.4540
     14  C          8.5670   -3.4180    0.1190 C.3     1  UNL1        0.4680
@<TRIPOS>BOND
     1     9     7    1
     2     9    11    2
     3    13    11    1
     4    13    14    1
     5     7     6    2
     6    11    10    1
     7    14    12    1
     8     1     5    1
     9     1     2    1
    10     6     5    1
    11     6     8    1
    12     3     2    1
    13    10    12    1
    14    10     8    2
    15     2     4    2
