@<TRIPOS>MOLECULE
/home/cewinharhar/GITHUB/reincatalyze/data/processed/docking_pred/2023-May-22-1531_sub9_nm5_bs15_s42_ex16_mel10_mts1000_k50_ec02_g099_lra9e-4_lrc1e-3/de552809cd3cf8423e47c41d2ed627091c55f56d_ligand_9.pdbqt
 14 15 0 0 0
SMALL
GASTEIGER

@<TRIPOS>ATOM
      1  C          5.4690    2.8890    0.2730 C.3     1  UNL1        0.0800
      2  C          6.2700    3.8770    1.0480 C.2     1  UNL1        0.1300
      3  C          7.2550    4.7750    0.3880 C.3     1  UNL1        0.0870
      4  O          6.1390    3.9790    2.2580 O.2     1  UNL1       -0.3000
      5  C          5.3030    1.5920    1.0390 C.3     1  UNL1        0.0430
      6  C          6.1160    0.5080    0.4610 C.2     1  UNL1       -0.0440
      7  C          6.5160   -0.5960    1.2230 C.2     1  UNL1        0.0080
      8  C          6.4950    0.5700   -0.8610 C.2     1  UNL1        0.0540
      9  C          7.2770   -1.5840    0.6260 C.2     1  UNL1        0.0510
     10  C          7.2640   -0.4320   -1.4610 C.2     1  UNL1        0.1660
     11  C          7.6590   -1.5170   -0.7110 C.2     1  UNL1        0.1650
     12  O          7.7620   -0.5980   -2.7360 O.2     1  UNL1       -0.4540
     13  O          8.3980   -2.3370   -1.5500 O.2     1  UNL1       -0.4540
     14  C          8.4110   -1.8370   -2.8660 C.3     1  UNL1        0.4680
@<TRIPOS>BOND
     1    14    12    1
     2    14    13    1
     3    12    10    1
     4    13    11    1
     5    10     8    1
     6    10    11    2
     7     8     6    2
     8    11     9    1
     9     1     5    1
    10     1     2    1
    11     3     2    1
    12     6     5    1
    13     6     7    1
    14     9     7    2
    15     2     4    2
