MODEL 1
REMARK VINA RESULT:      -7.8      0.000      0.000
REMARK SMILES CC(=O)CCc1ccc2c(c1)OCO2
REMARK SMILES IDX 4 1 2 2 1 3 3 4 5 5 6 6 7 7 11 8 8 9 10 10 9 11 12 12 14 13
REMARK SMILES IDX 13 14
REMARK H PARENT
REMARK Flexibility Score: inf
ROOT
ATOM      1  C   UNL     1       5.469   2.889   0.273  1.00  0.00     0.080 C 
ENDROOT
BRANCH   1   2
ATOM      2  C   UNL     1       6.270   3.877   1.048  1.00  0.00     0.130 C 
ATOM      3  C   UNL     1       7.255   4.775   0.388  1.00  0.00     0.087 C 
ATOM      4  O   UNL     1       6.139   3.979   2.258  1.00  0.00    -0.300 OA
ENDBRANCH   1   2
BRANCH   1   5
ATOM      5  C   UNL     1       5.303   1.592   1.039  1.00  0.00     0.043 C 
BRANCH   5   6
ATOM      6  C   UNL     1       6.116   0.508   0.461  1.00  0.00    -0.044 A 
ATOM      7  C   UNL     1       6.516  -0.596   1.223  1.00  0.00     0.008 A 
ATOM      8  C   UNL     1       6.495   0.570  -0.861  1.00  0.00     0.054 A 
ATOM      9  C   UNL     1       7.277  -1.584   0.626  1.00  0.00     0.051 A 
ATOM     10  C   UNL     1       7.264  -0.432  -1.461  1.00  0.00     0.166 A 
ATOM     11  C   UNL     1       7.659  -1.517  -0.711  1.00  0.00     0.165 A 
ATOM     12  O   UNL     1       7.762  -0.598  -2.736  1.00  0.00    -0.454 OA
ATOM     13  O   UNL     1       8.398  -2.337  -1.550  1.00  0.00    -0.454 OA
ATOM     14  C   UNL     1       8.411  -1.837  -2.866  1.00  0.00     0.468 C 
ENDBRANCH   5   6
ENDBRANCH   1   5
TORSDOF 3
ENDMDL
MODEL 2
REMARK VINA RESULT:      -7.7      0.970      1.962
REMARK SMILES CC(=O)CCc1ccc2c(c1)OCO2
REMARK SMILES IDX 4 1 2 2 1 3 3 4 5 5 6 6 7 7 11 8 8 9 10 10 9 11 12 12 14 13
REMARK SMILES IDX 13 14
REMARK H PARENT
REMARK Flexibility Score: inf
ROOT
ATOM      1  C   UNL     1       5.435   2.909   0.306  1.00  0.00     0.080 C 
ENDROOT
BRANCH   1   2
ATOM      2  C   UNL     1       6.317   3.823   1.085  1.00  0.00     0.130 C 
ATOM      3  C   UNL     1       7.245   4.772   0.413  1.00  0.00     0.087 C 
ATOM      4  O   UNL     1       6.302   3.819   2.305  1.00  0.00    -0.300 OA
ENDBRANCH   1   2
BRANCH   1   5
ATOM      5  C   UNL     1       5.263   1.578   1.010  1.00  0.00     0.043 C 
BRANCH   5   6
ATOM      6  C   UNL     1       6.055   0.514   0.368  1.00  0.00    -0.044 A 
ATOM      7  C   UNL     1       6.372   0.556  -0.994  1.00  0.00     0.008 A 
ATOM      8  C   UNL     1       6.502  -0.551   1.118  1.00  0.00     0.054 A 
ATOM      9  C   UNL     1       7.120  -0.471  -1.542  1.00  0.00     0.051 A 
ATOM     10  C   UNL     1       7.258  -1.586   0.560  1.00  0.00     0.166 A 
ATOM     11  C   UNL     1       7.569  -1.546  -0.781  1.00  0.00     0.165 A 
ATOM     12  O   UNL     1       7.810  -2.735   1.085  1.00  0.00    -0.454 OA
ATOM     13  O   UNL     1       8.314  -2.682  -1.054  1.00  0.00    -0.454 OA
ATOM     14  C   UNL     1       8.567  -3.418   0.119  1.00  0.00     0.468 C 
ENDBRANCH   5   6
ENDBRANCH   1   5
TORSDOF 3
ENDMDL
MODEL 3
REMARK VINA RESULT:      -7.7      1.917      2.654
REMARK SMILES CC(=O)CCc1ccc2c(c1)OCO2
REMARK SMILES IDX 4 1 2 2 1 3 3 4 5 5 6 6 7 7 11 8 8 9 10 10 9 11 12 12 14 13
REMARK SMILES IDX 13 14
REMARK H PARENT
REMARK Flexibility Score: inf
ROOT
ATOM      1  C   UNL     1       5.542   1.902   1.282  1.00  0.00     0.080 C 
ENDROOT
BRANCH   1   2
ATOM      2  C   UNL     1       5.105   0.680   2.012  1.00  0.00     0.130 C 
ATOM      3  C   UNL     1       6.003  -0.494   2.177  1.00  0.00     0.087 C 
ATOM      4  O   UNL     1       3.989   0.607   2.500  1.00  0.00    -0.300 OA
ENDBRANCH   1   2
BRANCH   1   5
ATOM      5  C   UNL     1       5.413   1.722  -0.218  1.00  0.00     0.043 C 
BRANCH   5   6
ATOM      6  C   UNL     1       6.578   1.021  -0.786  1.00  0.00    -0.044 A 
ATOM      7  C   UNL     1       7.886   1.451  -0.537  1.00  0.00     0.008 A 
ATOM      8  C   UNL     1       6.387  -0.087  -1.580  1.00  0.00     0.054 A 
ATOM      9  C   UNL     1       8.941   0.753  -1.097  1.00  0.00     0.051 A 
ATOM     10  C   UNL     1       7.456  -0.790  -2.143  1.00  0.00     0.166 A 
ATOM     11  C   UNL     1       8.744  -0.366  -1.900  1.00  0.00     0.165 A 
ATOM     12  O   UNL     1       7.526  -1.903  -2.955  1.00  0.00    -0.454 OA
ATOM     13  O   UNL     1       9.586  -1.237  -2.573  1.00  0.00    -0.454 OA
ATOM     14  C   UNL     1       8.860  -2.279  -3.180  1.00  0.00     0.468 C 
ENDBRANCH   5   6
ENDBRANCH   1   5
TORSDOF 3
ENDMDL
