@<TRIPOS>MOLECULE
/home/cewinharhar/GITHUB/reincatalyze/data/processed/docking_pred/2023-May-22-1531_sub9_nm5_bs15_s42_ex16_mel10_mts1000_k50_ec02_g099_lra9e-4_lrc1e-3/dea2b8be3c05a7e32d8e1c0cb085cc688668c765_ligand_9.pdbqt
 14 15 0 0 0
SMALL
GASTEIGER

@<TRIPOS>ATOM
      1  C          5.5210    1.9020    1.2760 C.3     1  UNL1        0.0800
      2  C          5.0750    0.6840    2.0070 C.2     1  UNL1        0.1300
      3  C          5.9580   -0.5040    2.1570 C.3     1  UNL1        0.0870
      4  O          3.9630    0.6250    2.5080 O.2     1  UNL1       -0.3000
      5  C          5.3920    1.7220   -0.2240 C.3     1  UNL1        0.0430
      6  C          6.5580    1.0210   -0.7920 C.2     1  UNL1       -0.0440
      7  C          7.8650    1.4590   -0.5500 C.2     1  UNL1        0.0080
      8  C          6.3690   -0.0920   -1.5790 C.2     1  UNL1        0.0540
      9  C          8.9210    0.7610   -1.1090 C.2     1  UNL1        0.0510
     10  C          7.4390   -0.7940   -2.1410 C.2     1  UNL1        0.1660
     11  C          8.7250   -0.3640   -1.9050 C.2     1  UNL1        0.1650
     12  O          7.5110   -1.9110   -2.9460 O.2     1  UNL1       -0.4540
     13  O          9.5690   -1.2350   -2.5750 O.2     1  UNL1       -0.4540
     14  C          8.8460   -2.2840   -3.1740 C.3     1  UNL1        0.4680
@<TRIPOS>BOND
     1    14    12    1
     2    14    13    1
     3    12    10    1
     4    13    11    1
     5    10    11    2
     6    10     8    1
     7    11     9    1
     8     8     6    2
     9     9     7    2
    10     6     7    1
    11     6     5    1
    12     5     1    1
    13     1     2    1
    14     2     3    1
    15     2     4    2
