@<TRIPOS>MOLECULE
/home/cewinharhar/GITHUB/reincatalyze/data/processed/docking_pred/2023-May-22-1531_sub9_nm5_bs15_s42_ex16_mel10_mts1000_k50_ec02_g099_lra9e-4_lrc1e-3/dea2b8be3c05a7e32d8e1c0cb085cc688668c765_ligand_9.pdbqt
 14 15 0 0 0
SMALL
GASTEIGER

@<TRIPOS>ATOM
      1  C          5.7490    1.3330   -0.3670 C.3     1  UNL1        0.0800
      2  C          5.1310    1.3080    0.9890 C.2     1  UNL1        0.1300
      3  C          5.3820    0.1920    1.9400 C.3     1  UNL1        0.0870
      4  O          4.3970    2.2090    1.3590 O.2     1  UNL1       -0.3000
      5  C          7.2440    1.0950   -0.2950 C.3     1  UNL1        0.0430
      6  C          7.6200   -0.1990   -0.8910 C.2     1  UNL1       -0.0440
      7  C          7.7090   -0.3700   -2.2770 C.2     1  UNL1        0.0080
      8  C          7.8960   -1.2720   -0.0740 C.2     1  UNL1        0.0540
      9  C          8.0680   -1.6070   -2.7800 C.2     1  UNL1        0.0510
     10  C          8.2590   -2.5210   -0.5870 C.2     1  UNL1        0.1660
     11  C          8.3460   -2.6900   -1.9510 C.2     1  UNL1        0.1650
     12  O          8.5770   -3.7240    0.0070 O.2     1  UNL1       -0.4540
     13  O          8.7190   -4.0070   -2.1690 O.2     1  UNL1       -0.4540
     14  C          8.9650   -4.6730   -0.9530 C.3     1  UNL1        0.4680
@<TRIPOS>BOND
     1     9     7    1
     2     9    11    2
     3     7     6    2
     4    13    11    1
     5    13    14    1
     6    11    10    1
     7    14    12    1
     8     6     5    1
     9     6     8    1
    10    10     8    2
    11    10    12    1
    12     1     5    1
    13     1     2    1
    14     2     4    2
    15     2     3    1
