MODEL 1
REMARK VINA RESULT:      -7.6      0.000      0.000
REMARK SMILES CC(=O)CCc1ccc2c(c1)OCO2
REMARK SMILES IDX 4 1 2 2 1 3 3 4 5 5 6 6 7 7 11 8 8 9 10 10 9 11 12 12 14 13
REMARK SMILES IDX 13 14
REMARK H PARENT
REMARK Flexibility Score: inf
ROOT
ATOM      1  C   UNL     1       5.521   1.902   1.276  1.00  0.00     0.080 C 
ENDROOT
BRANCH   1   2
ATOM      2  C   UNL     1       5.075   0.684   2.007  1.00  0.00     0.130 C 
ATOM      3  C   UNL     1       5.958  -0.504   2.157  1.00  0.00     0.087 C 
ATOM      4  O   UNL     1       3.963   0.625   2.508  1.00  0.00    -0.300 OA
ENDBRANCH   1   2
BRANCH   1   5
ATOM      5  C   UNL     1       5.392   1.722  -0.224  1.00  0.00     0.043 C 
BRANCH   5   6
ATOM      6  C   UNL     1       6.558   1.021  -0.792  1.00  0.00    -0.044 A 
ATOM      7  C   UNL     1       7.865   1.459  -0.550  1.00  0.00     0.008 A 
ATOM      8  C   UNL     1       6.369  -0.092  -1.579  1.00  0.00     0.054 A 
ATOM      9  C   UNL     1       8.921   0.761  -1.109  1.00  0.00     0.051 A 
ATOM     10  C   UNL     1       7.439  -0.794  -2.141  1.00  0.00     0.166 A 
ATOM     11  C   UNL     1       8.725  -0.364  -1.905  1.00  0.00     0.165 A 
ATOM     12  O   UNL     1       7.511  -1.911  -2.946  1.00  0.00    -0.454 OA
ATOM     13  O   UNL     1       9.569  -1.235  -2.575  1.00  0.00    -0.454 OA
ATOM     14  C   UNL     1       8.846  -2.284  -3.174  1.00  0.00     0.468 C 
ENDBRANCH   5   6
ENDBRANCH   1   5
TORSDOF 3
ENDMDL
MODEL 2
REMARK VINA RESULT:      -7.5      1.931      2.410
REMARK SMILES CC(=O)CCc1ccc2c(c1)OCO2
REMARK SMILES IDX 4 1 2 2 1 3 3 4 5 5 6 6 7 7 11 8 8 9 10 10 9 11 12 12 14 13
REMARK SMILES IDX 13 14
REMARK H PARENT
REMARK Flexibility Score: inf
ROOT
ATOM      1  C   UNL     1       5.749   1.333  -0.367  1.00  0.00     0.080 C 
ENDROOT
BRANCH   1   2
ATOM      2  C   UNL     1       5.131   1.308   0.989  1.00  0.00     0.130 C 
ATOM      3  C   UNL     1       5.382   0.192   1.940  1.00  0.00     0.087 C 
ATOM      4  O   UNL     1       4.397   2.209   1.359  1.00  0.00    -0.300 OA
ENDBRANCH   1   2
BRANCH   1   5
ATOM      5  C   UNL     1       7.244   1.095  -0.295  1.00  0.00     0.043 C 
BRANCH   5   6
ATOM      6  C   UNL     1       7.620  -0.199  -0.891  1.00  0.00    -0.044 A 
ATOM      7  C   UNL     1       7.709  -0.370  -2.277  1.00  0.00     0.008 A 
ATOM      8  C   UNL     1       7.896  -1.272  -0.074  1.00  0.00     0.054 A 
ATOM      9  C   UNL     1       8.068  -1.607  -2.780  1.00  0.00     0.051 A 
ATOM     10  C   UNL     1       8.259  -2.521  -0.587  1.00  0.00     0.166 A 
ATOM     11  C   UNL     1       8.346  -2.690  -1.951  1.00  0.00     0.165 A 
ATOM     12  O   UNL     1       8.577  -3.724   0.007  1.00  0.00    -0.454 OA
ATOM     13  O   UNL     1       8.719  -4.007  -2.169  1.00  0.00    -0.454 OA
ATOM     14  C   UNL     1       8.965  -4.673  -0.953  1.00  0.00     0.468 C 
ENDBRANCH   5   6
ENDBRANCH   1   5
TORSDOF 3
ENDMDL
MODEL 3
REMARK VINA RESULT:      -7.1      2.048      2.615
REMARK SMILES CC(=O)CCc1ccc2c(c1)OCO2
REMARK SMILES IDX 4 1 2 2 1 3 3 4 5 5 6 6 7 7 11 8 8 9 10 10 9 11 12 12 14 13
REMARK SMILES IDX 13 14
REMARK H PARENT
REMARK Flexibility Score: inf
ROOT
ATOM      1  C   UNL     1       5.844   2.532   1.344  1.00  0.00     0.080 C 
ENDROOT
BRANCH   1   2
ATOM      2  C   UNL     1       6.415   3.892   1.138  1.00  0.00     0.130 C 
ATOM      3  C   UNL     1       6.900   4.716   2.277  1.00  0.00     0.087 C 
ATOM      4  O   UNL     1       6.501   4.372   0.019  1.00  0.00    -0.300 OA
ENDBRANCH   1   2
BRANCH   1   5
ATOM      5  C   UNL     1       5.394   1.919   0.033  1.00  0.00     0.043 C 
BRANCH   5   6
ATOM      6  C   UNL     1       6.162   0.705  -0.295  1.00  0.00    -0.044 A 
ATOM      7  C   UNL     1       6.321  -0.334   0.630  1.00  0.00     0.008 A 
ATOM      8  C   UNL     1       6.739   0.577  -1.538  1.00  0.00     0.054 A 
ATOM      9  C   UNL     1       7.052  -1.450   0.266  1.00  0.00     0.051 A 
ATOM     10  C   UNL     1       7.477  -0.554  -1.901  1.00  0.00     0.166 A 
ATOM     11  C   UNL     1       7.635  -1.575  -0.991  1.00  0.00     0.165 A 
ATOM     12  O   UNL     1       8.139  -0.912  -3.056  1.00  0.00    -0.454 OA
ATOM     13  O   UNL     1       8.398  -2.551  -1.613  1.00  0.00    -0.454 OA
ATOM     14  C   UNL     1       8.663  -2.212  -2.954  1.00  0.00     0.468 C 
ENDBRANCH   5   6
ENDBRANCH   1   5
TORSDOF 3
ENDMDL
