@<TRIPOS>MOLECULE
/home/cewinharhar/GITHUB/reincatalyze/data/processed/docking_pred/2023-May-22-1531_sub9_nm5_bs15_s42_ex16_mel10_mts1000_k50_ec02_g099_lra9e-4_lrc1e-3/dea2b8be3c05a7e32d8e1c0cb085cc688668c765_ligand_9.pdbqt
 14 15 0 0 0
SMALL
GASTEIGER

@<TRIPOS>ATOM
      1  C          5.8440    2.5320    1.3440 C.3     1  UNL1        0.0800
      2  C          6.4150    3.8920    1.1380 C.2     1  UNL1        0.1300
      3  C          6.9000    4.7160    2.2770 C.3     1  UNL1        0.0870
      4  O          6.5010    4.3720    0.0190 O.2     1  UNL1       -0.3000
      5  C          5.3940    1.9190    0.0330 C.3     1  UNL1        0.0430
      6  C          6.1620    0.7050   -0.2950 C.2     1  UNL1       -0.0440
      7  C          6.3210   -0.3340    0.6300 C.2     1  UNL1        0.0080
      8  C          6.7390    0.5770   -1.5380 C.2     1  UNL1        0.0540
      9  C          7.0520   -1.4500    0.2660 C.2     1  UNL1        0.0510
     10  C          7.4770   -0.5540   -1.9010 C.2     1  UNL1        0.1660
     11  C          7.6350   -1.5750   -0.9910 C.2     1  UNL1        0.1650
     12  O          8.1390   -0.9120   -3.0560 O.2     1  UNL1       -0.4540
     13  O          8.3980   -2.5510   -1.6130 O.2     1  UNL1       -0.4540
     14  C          8.6630   -2.2120   -2.9540 C.3     1  UNL1        0.4680
@<TRIPOS>BOND
     1    12    14    1
     2    12    10    1
     3    14    13    1
     4    10     8    1
     5    10    11    2
     6    13    11    1
     7     8     6    2
     8    11     9    1
     9     6     5    1
    10     6     7    1
    11     4     2    2
    12     5     1    1
    13     9     7    2
    14     2     1    1
    15     2     3    1
