@<TRIPOS>MOLECULE
/home/cewinharhar/GITHUB/reincatalyze/data/processed/docking_pred/2023-May-22-1531_sub9_nm5_bs15_s42_ex16_mel10_mts1000_k50_ec02_g099_lra9e-4_lrc1e-3/e3e22a08cc3fa656d2264310e8071e645bf38a06_ligand_9.pdbqt
 14 15 0 0 0
SMALL
GASTEIGER

@<TRIPOS>ATOM
      1  C          5.5520    1.9170    1.2750 C.3     1  UNL1        0.0800
      2  C          5.1060    0.7040    2.0150 C.2     1  UNL1        0.1300
      3  C          5.9970   -0.4730    2.1940 C.3     1  UNL1        0.0870
      4  O          3.9870    0.6400    2.4990 O.2     1  UNL1       -0.3000
      5  C          5.4170    1.7290   -0.2230 C.3     1  UNL1        0.0430
      6  C          6.5810    1.0260   -0.7920 C.2     1  UNL1       -0.0440
      7  C          7.8890    1.4620   -0.5530 C.2     1  UNL1        0.0080
      8  C          6.3880   -0.0880   -1.5770 C.2     1  UNL1        0.0540
      9  C          8.9420    0.7620   -1.1130 C.2     1  UNL1        0.0510
     10  C          7.4570   -0.7920   -2.1410 C.2     1  UNL1        0.1660
     11  C          8.7440   -0.3640   -1.9070 C.2     1  UNL1        0.1650
     12  O          7.5250   -1.9100   -2.9440 O.2     1  UNL1       -0.4540
     13  O          9.5860   -1.2370   -2.5780 O.2     1  UNL1       -0.4540
     14  C          8.8590   -2.2850   -3.1740 C.3     1  UNL1        0.4680
@<TRIPOS>BOND
     1    14    12    1
     2    14    13    1
     3    12    10    1
     4    13    11    1
     5    10    11    2
     6    10     8    1
     7    11     9    1
     8     8     6    2
     9     9     7    2
    10     6     7    1
    11     6     5    1
    12     5     1    1
    13     1     2    1
    14     2     3    1
    15     2     4    2
