@<TRIPOS>MOLECULE
/home/cewinharhar/GITHUB/reincatalyze/data/processed/docking_pred/2023-May-22-1531_sub9_nm5_bs15_s42_ex16_mel10_mts1000_k50_ec02_g099_lra9e-4_lrc1e-3/e3e22a08cc3fa656d2264310e8071e645bf38a06_ligand_9.pdbqt
 14 15 0 0 0
SMALL
GASTEIGER

@<TRIPOS>ATOM
      1  C          5.4650    2.9460    0.0110 C.3     1  UNL1        0.0800
      2  C          6.2900    3.8100    0.9010 C.2     1  UNL1        0.1300
      3  C          7.2800    4.7750    0.3540 C.3     1  UNL1        0.0870
      4  O          6.1760    3.7480    2.1150 O.2     1  UNL1       -0.3000
      5  C          5.1520    1.6170    0.6690 C.3     1  UNL1        0.0430
      6  C          6.0010    0.5330    0.1440 C.2     1  UNL1       -0.0440
      7  C          6.3930    0.4950   -1.1990 C.2     1  UNL1        0.0080
      8  C          6.4270   -0.4690    0.9850 C.2     1  UNL1        0.0540
      9  C          7.1910   -0.5470   -1.6360 C.2     1  UNL1        0.0510
     10  C          7.2350   -1.5200    0.5390 C.2     1  UNL1        0.1660
     11  C          7.6200   -1.5590   -0.7830 C.2     1  UNL1        0.1650
     12  O          7.7800   -2.6180    1.1690 O.2     1  UNL1       -0.4540
     13  O          8.4030   -2.6920   -0.9390 O.2     1  UNL1       -0.4540
     14  C          8.6050   -3.3430    0.2930 C.3     1  UNL1        0.4680
@<TRIPOS>BOND
     1     9     7    1
     2     9    11    2
     3     7     6    2
     4    13    11    1
     5    13    14    1
     6    11    10    1
     7     1     5    1
     8     1     2    1
     9     6     5    1
    10     6     8    1
    11    14    12    1
    12     3     2    1
    13    10     8    2
    14    10    12    1
    15     2     4    2
