@<TRIPOS>MOLECULE
/home/cewinharhar/GITHUB/reincatalyze/data/processed/docking_pred/2023-May-22-1531_sub9_nm5_bs15_s42_ex16_mel10_mts1000_k50_ec02_g099_lra9e-4_lrc1e-3/e3e22a08cc3fa656d2264310e8071e645bf38a06_ligand_9.pdbqt
 14 15 0 0 0
SMALL
GASTEIGER

@<TRIPOS>ATOM
      1  C          5.4630    2.8990    0.3150 C.3     1  UNL1        0.0800
      2  C          6.2770    3.9060    1.0510 C.2     1  UNL1        0.1300
      3  C          7.2620    4.7750    0.3520 C.3     1  UNL1        0.0870
      4  O          6.1580    4.0480    2.2570 O.2     1  UNL1       -0.3000
      5  C          5.3340    1.6120    1.1060 C.3     1  UNL1        0.0430
      6  C          6.1280    0.5230    0.5110 C.2     1  UNL1       -0.0440
      7  C          6.5120   -0.5980    1.2570 C.2     1  UNL1        0.0080
      8  C          6.5050    0.5970   -0.8110 C.2     1  UNL1        0.0540
      9  C          7.2560   -1.5890    0.6450 C.2     1  UNL1        0.0510
     10  C          7.2570   -0.4090   -1.4260 C.2     1  UNL1        0.1660
     11  C          7.6360   -1.5110   -0.6910 C.2     1  UNL1        0.1650
     12  O          7.7490   -0.5660   -2.7040 O.2     1  UNL1       -0.4540
     13  O          8.3600   -2.3300   -1.5430 O.2     1  UNL1       -0.4540
     14  C          8.3780   -1.8130   -2.8520 C.3     1  UNL1        0.4680
@<TRIPOS>BOND
     1    14    12    1
     2    14    13    1
     3    12    10    1
     4    13    11    1
     5    10     8    1
     6    10    11    2
     7     8     6    2
     8    11     9    1
     9     1     2    1
    10     1     5    1
    11     3     2    1
    12     6     5    1
    13     6     7    1
    14     9     7    2
    15     2     4    2
