MODEL 1
REMARK VINA RESULT:      -7.8      0.000      0.000
REMARK SMILES CC(=O)CCc1ccc2c(c1)OCO2
REMARK SMILES IDX 4 1 2 2 1 3 3 4 5 5 6 6 7 7 11 8 8 9 10 10 9 11 12 12 14 13
REMARK SMILES IDX 13 14
REMARK H PARENT
REMARK Flexibility Score: inf
ROOT
ATOM      1  C   UNL     1       5.465   2.946   0.011  1.00  0.00     0.080 C 
ENDROOT
BRANCH   1   2
ATOM      2  C   UNL     1       6.290   3.810   0.901  1.00  0.00     0.130 C 
ATOM      3  C   UNL     1       7.280   4.775   0.354  1.00  0.00     0.087 C 
ATOM      4  O   UNL     1       6.176   3.748   2.115  1.00  0.00    -0.300 OA
ENDBRANCH   1   2
BRANCH   1   5
ATOM      5  C   UNL     1       5.152   1.617   0.669  1.00  0.00     0.043 C 
BRANCH   5   6
ATOM      6  C   UNL     1       6.001   0.533   0.144  1.00  0.00    -0.044 A 
ATOM      7  C   UNL     1       6.393   0.495  -1.199  1.00  0.00     0.008 A 
ATOM      8  C   UNL     1       6.427  -0.469   0.985  1.00  0.00     0.054 A 
ATOM      9  C   UNL     1       7.191  -0.547  -1.636  1.00  0.00     0.051 A 
ATOM     10  C   UNL     1       7.235  -1.520   0.539  1.00  0.00     0.166 A 
ATOM     11  C   UNL     1       7.620  -1.559  -0.783  1.00  0.00     0.165 A 
ATOM     12  O   UNL     1       7.780  -2.618   1.169  1.00  0.00    -0.454 OA
ATOM     13  O   UNL     1       8.403  -2.692  -0.939  1.00  0.00    -0.454 OA
ATOM     14  C   UNL     1       8.605  -3.343   0.293  1.00  0.00     0.468 C 
ENDBRANCH   5   6
ENDBRANCH   1   5
TORSDOF 3
ENDMDL
MODEL 2
REMARK VINA RESULT:      -7.7      1.010      1.993
REMARK SMILES CC(=O)CCc1ccc2c(c1)OCO2
REMARK SMILES IDX 4 1 2 2 1 3 3 4 5 5 6 6 7 7 11 8 8 9 10 10 9 11 12 12 14 13
REMARK SMILES IDX 13 14
REMARK H PARENT
REMARK Flexibility Score: inf
ROOT
ATOM      1  C   UNL     1       5.463   2.899   0.315  1.00  0.00     0.080 C 
ENDROOT
BRANCH   1   2
ATOM      2  C   UNL     1       6.277   3.906   1.051  1.00  0.00     0.130 C 
ATOM      3  C   UNL     1       7.262   4.775   0.352  1.00  0.00     0.087 C 
ATOM      4  O   UNL     1       6.158   4.048   2.257  1.00  0.00    -0.300 OA
ENDBRANCH   1   2
BRANCH   1   5
ATOM      5  C   UNL     1       5.334   1.612   1.106  1.00  0.00     0.043 C 
BRANCH   5   6
ATOM      6  C   UNL     1       6.128   0.523   0.511  1.00  0.00    -0.044 A 
ATOM      7  C   UNL     1       6.512  -0.598   1.257  1.00  0.00     0.008 A 
ATOM      8  C   UNL     1       6.505   0.597  -0.811  1.00  0.00     0.054 A 
ATOM      9  C   UNL     1       7.256  -1.589   0.645  1.00  0.00     0.051 A 
ATOM     10  C   UNL     1       7.257  -0.409  -1.426  1.00  0.00     0.166 A 
ATOM     11  C   UNL     1       7.636  -1.511  -0.691  1.00  0.00     0.165 A 
ATOM     12  O   UNL     1       7.749  -0.566  -2.704  1.00  0.00    -0.454 OA
ATOM     13  O   UNL     1       8.360  -2.330  -1.543  1.00  0.00    -0.454 OA
ATOM     14  C   UNL     1       8.378  -1.813  -2.852  1.00  0.00     0.468 C 
ENDBRANCH   5   6
ENDBRANCH   1   5
TORSDOF 3
ENDMDL
MODEL 3
REMARK VINA RESULT:      -7.6      2.404      3.029
REMARK SMILES CC(=O)CCc1ccc2c(c1)OCO2
REMARK SMILES IDX 4 1 2 2 1 3 3 4 5 5 6 6 7 7 11 8 8 9 10 10 9 11 12 12 14 13
REMARK SMILES IDX 13 14
REMARK H PARENT
REMARK Flexibility Score: inf
ROOT
ATOM      1  C   UNL     1       5.552   1.917   1.275  1.00  0.00     0.080 C 
ENDROOT
BRANCH   1   2
ATOM      2  C   UNL     1       5.106   0.704   2.015  1.00  0.00     0.130 C 
ATOM      3  C   UNL     1       5.997  -0.473   2.194  1.00  0.00     0.087 C 
ATOM      4  O   UNL     1       3.987   0.640   2.499  1.00  0.00    -0.300 OA
ENDBRANCH   1   2
BRANCH   1   5
ATOM      5  C   UNL     1       5.417   1.729  -0.223  1.00  0.00     0.043 C 
BRANCH   5   6
ATOM      6  C   UNL     1       6.581   1.026  -0.792  1.00  0.00    -0.044 A 
ATOM      7  C   UNL     1       7.889   1.462  -0.553  1.00  0.00     0.008 A 
ATOM      8  C   UNL     1       6.388  -0.088  -1.577  1.00  0.00     0.054 A 
ATOM      9  C   UNL     1       8.942   0.762  -1.113  1.00  0.00     0.051 A 
ATOM     10  C   UNL     1       7.457  -0.792  -2.141  1.00  0.00     0.166 A 
ATOM     11  C   UNL     1       8.744  -0.364  -1.907  1.00  0.00     0.165 A 
ATOM     12  O   UNL     1       7.525  -1.910  -2.944  1.00  0.00    -0.454 OA
ATOM     13  O   UNL     1       9.586  -1.237  -2.578  1.00  0.00    -0.454 OA
ATOM     14  C   UNL     1       8.859  -2.285  -3.174  1.00  0.00     0.468 C 
ENDBRANCH   5   6
ENDBRANCH   1   5
TORSDOF 3
ENDMDL
