@<TRIPOS>MOLECULE
/home/cewinharhar/GITHUB/reincatalyze/data/processed/docking_pred/2023-May-22-1531_sub9_nm5_bs15_s42_ex16_mel10_mts1000_k50_ec02_g099_lra9e-4_lrc1e-3/e5153a6a2872aa0f73be7da8df97a591d10f8a10_ligand_9.pdbqt
 14 15 0 0 0
SMALL
GASTEIGER

@<TRIPOS>ATOM
      1  C          5.4220    2.9820    0.0240 C.3     1  UNL1        0.0800
      2  C          6.2530    3.8140    0.9390 C.2     1  UNL1        0.1300
      3  C          7.2700    4.7670    0.4190 C.3     1  UNL1        0.0870
      4  O          6.1230    3.7360    2.1490 O.2     1  UNL1       -0.3000
      5  C          5.0830    1.6450    0.6530 C.3     1  UNL1        0.0430
      6  C          5.9470    0.5660    0.1420 C.2     1  UNL1       -0.0440
      7  C          6.3660    0.5330   -1.1930 C.2     1  UNL1        0.0080
      8  C          6.3590   -0.4370    0.9890 C.2     1  UNL1        0.0540
      9  C          7.1780   -0.5040   -1.6160 C.2     1  UNL1        0.0510
     10  C          7.1800   -1.4830    0.5570 C.2     1  UNL1        0.1660
     11  C          7.5920   -1.5170   -0.7570 C.2     1  UNL1        0.1650
     12  O          7.7170   -2.5810    1.1940 O.2     1  UNL1       -0.4540
     13  O          8.3830   -2.6460   -0.9000 O.2     1  UNL1       -0.4540
     14  C          8.5620   -3.3000    0.3340 C.3     1  UNL1        0.4680
@<TRIPOS>BOND
     1     9     7    1
     2     9    11    2
     3     7     6    2
     4    13    11    1
     5    13    14    1
     6    11    10    1
     7     1     5    1
     8     1     2    1
     9     6     5    1
    10     6     8    1
    11    14    12    1
    12     3     2    1
    13    10     8    2
    14    10    12    1
    15     2     4    2
