@<TRIPOS>MOLECULE
/home/cewinharhar/GITHUB/reincatalyze/data/processed/docking_pred/2023-May-22-1531_sub9_nm5_bs15_s42_ex16_mel10_mts1000_k50_ec02_g099_lra9e-4_lrc1e-3/e5153a6a2872aa0f73be7da8df97a591d10f8a10_ligand_9.pdbqt
 14 15 0 0 0
SMALL
GASTEIGER

@<TRIPOS>ATOM
      1  C          5.5360    1.8940    1.2970 C.3     1  UNL1        0.0800
      2  C          5.1050    0.6720    2.0320 C.2     1  UNL1        0.1300
      3  C          6.0040   -0.5040    2.1860 C.3     1  UNL1        0.0870
      4  O          3.9950    0.6000    2.5320 O.2     1  UNL1       -0.3000
      5  C          5.3990    1.7110   -0.2020 C.3     1  UNL1        0.0430
      6  C          6.5650    1.0170   -0.7760 C.2     1  UNL1       -0.0440
      7  C          7.8720    1.4580   -0.5380 C.2     1  UNL1        0.0080
      8  C          6.3760   -0.0950   -1.5650 C.2     1  UNL1        0.0540
      9  C          8.9270    0.7660   -1.1030 C.2     1  UNL1        0.0510
     10  C          7.4470   -0.7920   -2.1340 C.2     1  UNL1        0.1660
     11  C          8.7330   -0.3570   -1.9010 C.2     1  UNL1        0.1650
     12  O          7.5200   -1.9060   -2.9420 O.2     1  UNL1       -0.4540
     13  O          9.5770   -1.2240   -2.5770 O.2     1  UNL1       -0.4540
     14  C          8.8550   -2.2730   -3.1760 C.3     1  UNL1        0.4680
@<TRIPOS>BOND
     1    14    12    1
     2    14    13    1
     3    12    10    1
     4    13    11    1
     5    10    11    2
     6    10     8    1
     7    11     9    1
     8     8     6    2
     9     9     7    2
    10     6     7    1
    11     6     5    1
    12     5     1    1
    13     1     2    1
    14     2     3    1
    15     2     4    2
