MODEL 1
REMARK VINA RESULT:      -7.9      0.000      0.000
REMARK SMILES CC(=O)CCc1ccc2c(c1)OCO2
REMARK SMILES IDX 4 1 2 2 1 3 3 4 5 5 6 6 7 7 11 8 8 9 10 10 9 11 12 12 14 13
REMARK SMILES IDX 13 14
REMARK H PARENT
REMARK Flexibility Score: inf
ROOT
ATOM      1  C   UNL     1       5.441   2.936   0.139  1.00  0.00     0.080 C 
ENDROOT
BRANCH   1   2
ATOM      2  C   UNL     1       6.275   3.837   0.983  1.00  0.00     0.130 C 
ATOM      3  C   UNL     1       7.262   4.775   0.384  1.00  0.00     0.087 C 
ATOM      4  O   UNL     1       6.172   3.830   2.199  1.00  0.00    -0.300 OA
ENDBRANCH   1   2
BRANCH   1   5
ATOM      5  C   UNL     1       5.172   1.619   0.840  1.00  0.00     0.043 C 
BRANCH   5   6
ATOM      6  C   UNL     1       5.991   0.527   0.283  1.00  0.00    -0.044 A 
ATOM      7  C   UNL     1       6.326  -0.599   1.044  1.00  0.00     0.008 A 
ATOM      8  C   UNL     1       6.441   0.605  -1.015  1.00  0.00     0.054 A 
ATOM      9  C   UNL     1       7.097  -1.592   0.469  1.00  0.00     0.051 A 
ATOM     10  C   UNL     1       7.220  -0.402  -1.592  1.00  0.00     0.166 A 
ATOM     11  C   UNL     1       7.551  -1.510  -0.844  1.00  0.00     0.165 A 
ATOM     12  O   UNL     1       7.781  -0.557  -2.842  1.00  0.00    -0.454 OA
ATOM     13  O   UNL     1       8.315  -2.330  -1.659  1.00  0.00    -0.454 OA
ATOM     14  C   UNL     1       8.410  -1.807  -2.962  1.00  0.00     0.468 C 
ENDBRANCH   5   6
ENDBRANCH   1   5
TORSDOF 3
ENDMDL
MODEL 2
REMARK VINA RESULT:      -7.8      1.019      2.018
REMARK SMILES CC(=O)CCc1ccc2c(c1)OCO2
REMARK SMILES IDX 4 1 2 2 1 3 3 4 5 5 6 6 7 7 11 8 8 9 10 10 9 11 12 12 14 13
REMARK SMILES IDX 13 14
REMARK H PARENT
REMARK Flexibility Score: inf
ROOT
ATOM      1  C   UNL     1       5.422   2.982   0.024  1.00  0.00     0.080 C 
ENDROOT
BRANCH   1   2
ATOM      2  C   UNL     1       6.253   3.814   0.939  1.00  0.00     0.130 C 
ATOM      3  C   UNL     1       7.270   4.767   0.419  1.00  0.00     0.087 C 
ATOM      4  O   UNL     1       6.123   3.736   2.149  1.00  0.00    -0.300 OA
ENDBRANCH   1   2
BRANCH   1   5
ATOM      5  C   UNL     1       5.083   1.645   0.653  1.00  0.00     0.043 C 
BRANCH   5   6
ATOM      6  C   UNL     1       5.947   0.566   0.142  1.00  0.00    -0.044 A 
ATOM      7  C   UNL     1       6.366   0.533  -1.193  1.00  0.00     0.008 A 
ATOM      8  C   UNL     1       6.359  -0.437   0.989  1.00  0.00     0.054 A 
ATOM      9  C   UNL     1       7.178  -0.504  -1.616  1.00  0.00     0.051 A 
ATOM     10  C   UNL     1       7.180  -1.483   0.557  1.00  0.00     0.166 A 
ATOM     11  C   UNL     1       7.592  -1.517  -0.757  1.00  0.00     0.165 A 
ATOM     12  O   UNL     1       7.717  -2.581   1.194  1.00  0.00    -0.454 OA
ATOM     13  O   UNL     1       8.383  -2.646  -0.900  1.00  0.00    -0.454 OA
ATOM     14  C   UNL     1       8.562  -3.300   0.334  1.00  0.00     0.468 C 
ENDBRANCH   5   6
ENDBRANCH   1   5
TORSDOF 3
ENDMDL
MODEL 3
REMARK VINA RESULT:      -7.7      1.891      2.638
REMARK SMILES CC(=O)CCc1ccc2c(c1)OCO2
REMARK SMILES IDX 4 1 2 2 1 3 3 4 5 5 6 6 7 7 11 8 8 9 10 10 9 11 12 12 14 13
REMARK SMILES IDX 13 14
REMARK H PARENT
REMARK Flexibility Score: inf
ROOT
ATOM      1  C   UNL     1       5.536   1.894   1.297  1.00  0.00     0.080 C 
ENDROOT
BRANCH   1   2
ATOM      2  C   UNL     1       5.105   0.672   2.032  1.00  0.00     0.130 C 
ATOM      3  C   UNL     1       6.004  -0.504   2.186  1.00  0.00     0.087 C 
ATOM      4  O   UNL     1       3.995   0.600   2.532  1.00  0.00    -0.300 OA
ENDBRANCH   1   2
BRANCH   1   5
ATOM      5  C   UNL     1       5.399   1.711  -0.202  1.00  0.00     0.043 C 
BRANCH   5   6
ATOM      6  C   UNL     1       6.565   1.017  -0.776  1.00  0.00    -0.044 A 
ATOM      7  C   UNL     1       7.872   1.458  -0.538  1.00  0.00     0.008 A 
ATOM      8  C   UNL     1       6.376  -0.095  -1.565  1.00  0.00     0.054 A 
ATOM      9  C   UNL     1       8.927   0.766  -1.103  1.00  0.00     0.051 A 
ATOM     10  C   UNL     1       7.447  -0.792  -2.134  1.00  0.00     0.166 A 
ATOM     11  C   UNL     1       8.733  -0.357  -1.901  1.00  0.00     0.165 A 
ATOM     12  O   UNL     1       7.520  -1.906  -2.942  1.00  0.00    -0.454 OA
ATOM     13  O   UNL     1       9.577  -1.224  -2.577  1.00  0.00    -0.454 OA
ATOM     14  C   UNL     1       8.855  -2.273  -3.176  1.00  0.00     0.468 C 
ENDBRANCH   5   6
ENDBRANCH   1   5
TORSDOF 3
ENDMDL
