@<TRIPOS>MOLECULE
/home/cewinharhar/GITHUB/reincatalyze/data/processed/docking_pred/2023-May-22-1531_sub9_nm5_bs15_s42_ex16_mel10_mts1000_k50_ec02_g099_lra9e-4_lrc1e-3/e5153a6a2872aa0f73be7da8df97a591d10f8a10_ligand_9.pdbqt
 14 15 0 0 0
SMALL
GASTEIGER

@<TRIPOS>ATOM
      1  C          5.4410    2.9360    0.1390 C.3     1  UNL1        0.0800
      2  C          6.2750    3.8370    0.9830 C.2     1  UNL1        0.1300
      3  C          7.2620    4.7750    0.3840 C.3     1  UNL1        0.0870
      4  O          6.1720    3.8300    2.1990 O.2     1  UNL1       -0.3000
      5  C          5.1720    1.6190    0.8400 C.3     1  UNL1        0.0430
      6  C          5.9910    0.5270    0.2830 C.2     1  UNL1       -0.0440
      7  C          6.3260   -0.5990    1.0440 C.2     1  UNL1        0.0080
      8  C          6.4410    0.6050   -1.0150 C.2     1  UNL1        0.0540
      9  C          7.0970   -1.5920    0.4690 C.2     1  UNL1        0.0510
     10  C          7.2200   -0.4020   -1.5920 C.2     1  UNL1        0.1660
     11  C          7.5510   -1.5100   -0.8440 C.2     1  UNL1        0.1650
     12  O          7.7810   -0.5570   -2.8420 O.2     1  UNL1       -0.4540
     13  O          8.3150   -2.3300   -1.6590 O.2     1  UNL1       -0.4540
     14  C          8.4100   -1.8070   -2.9620 C.3     1  UNL1        0.4680
@<TRIPOS>BOND
     1    14    12    1
     2    14    13    1
     3    12    10    1
     4    13    11    1
     5    10     8    1
     6    10    11    2
     7     8     6    2
     8    11     9    1
     9     1     5    1
    10     1     2    1
    11     6     5    1
    12     6     7    1
    13     3     2    1
    14     9     7    2
    15     2     4    2
