@<TRIPOS>MOLECULE
/home/cewinharhar/GITHUB/reincatalyze/data/processed/docking_pred/2023-May-22-1531_sub9_nm5_bs15_s42_ex16_mel10_mts1000_k50_ec02_g099_lra9e-4_lrc1e-3/e69dee760b6a4f483691253cffcee702e9155e2b_ligand_9.pdbqt
 14 15 0 0 0
SMALL
GASTEIGER

@<TRIPOS>ATOM
      1  C          5.7500    1.3360   -0.3990 C.3     1  UNL1        0.0800
      2  C          5.2600    1.4430    1.0030 C.2     1  UNL1        0.1300
      3  C          5.2320    0.2670    1.9130 C.3     1  UNL1        0.0870
      4  O          4.8620    2.5080    1.4480 O.2     1  UNL1       -0.3000
      5  C          7.2550    1.1600   -0.4440 C.3     1  UNL1        0.0430
      6  C          7.6360   -0.1540   -0.9940 C.2     1  UNL1       -0.0440
      7  C          7.7660   -0.3610   -2.3720 C.2     1  UNL1        0.0080
      8  C          7.8730   -1.2070   -0.1410 C.2     1  UNL1        0.0540
      9  C          8.1270   -1.6150   -2.8300 C.2     1  UNL1        0.0510
     10  C          8.2370   -2.4730   -0.6090 C.2     1  UNL1        0.1660
     11  C          8.3650   -2.6790   -1.9650 C.2     1  UNL1        0.1650
     12  O          8.5220   -3.6640    0.0250 O.2     1  UNL1       -0.4540
     13  O          8.7300   -4.0050   -2.1360 O.2     1  UNL1       -0.4540
     14  C          8.9290   -4.6420   -0.8970 C.3     1  UNL1        0.4680
@<TRIPOS>BOND
     1     9     7    1
     2     9    11    2
     3     7     6    2
     4    13    11    1
     5    13    14    1
     6    11    10    1
     7     6     5    1
     8     6     8    1
     9    14    12    1
    10    10     8    2
    11    10    12    1
    12     5     1    1
    13     1     2    1
    14     2     4    2
    15     2     3    1
