@<TRIPOS>MOLECULE
/home/cewinharhar/GITHUB/reincatalyze/data/processed/docking_pred/2023-May-22-1531_sub9_nm5_bs15_s42_ex16_mel10_mts1000_k50_ec02_g099_lra9e-4_lrc1e-3/e69dee760b6a4f483691253cffcee702e9155e2b_ligand_9.pdbqt
 14 15 0 0 0
SMALL
GASTEIGER

@<TRIPOS>ATOM
      1  C          5.5090    1.9040    1.2710 C.3     1  UNL1        0.0800
      2  C          5.0650    0.6840    2.0020 C.2     1  UNL1        0.1300
      3  C          5.9520   -0.5000    2.1550 C.3     1  UNL1        0.0870
      4  O          3.9520    0.6220    2.4990 O.2     1  UNL1       -0.3000
      5  C          5.3860    1.7220   -0.2290 C.3     1  UNL1        0.0430
      6  C          6.5570    1.0260   -0.7930 C.2     1  UNL1       -0.0440
      7  C          7.8620    1.4700   -0.5470 C.2     1  UNL1        0.0080
      8  C          6.3750   -0.0890   -1.5790 C.2     1  UNL1        0.0540
      9  C          8.9220    0.7760   -1.1020 C.2     1  UNL1        0.0510
     10  C          7.4500   -0.7870   -2.1370 C.2     1  UNL1        0.1660
     11  C          8.7340   -0.3510   -1.8970 C.2     1  UNL1        0.1650
     12  O          7.5290   -1.9040   -2.9410 O.2     1  UNL1       -0.4540
     13  O          9.5830   -1.2190   -2.5640 O.2     1  UNL1       -0.4540
     14  C          8.8660   -2.2710   -3.1640 C.3     1  UNL1        0.4680
@<TRIPOS>BOND
     1    14    12    1
     2    14    13    1
     3    12    10    1
     4    13    11    1
     5    10    11    2
     6    10     8    1
     7    11     9    1
     8     8     6    2
     9     9     7    2
    10     6     7    1
    11     6     5    1
    12     5     1    1
    13     1     2    1
    14     2     3    1
    15     2     4    2
