@<TRIPOS>MOLECULE
/home/cewinharhar/GITHUB/reincatalyze/data/processed/docking_pred/2023-May-22-1531_sub9_nm5_bs15_s42_ex16_mel10_mts1000_k50_ec02_g099_lra9e-4_lrc1e-3/e69dee760b6a4f483691253cffcee702e9155e2b_ligand_9.pdbqt
 14 15 0 0 0
SMALL
GASTEIGER

@<TRIPOS>ATOM
      1  C          5.5320    2.8390    0.2160 C.3     1  UNL1        0.0800
      2  C          6.2750    3.8390    1.0330 C.2     1  UNL1        0.1300
      3  C          7.2570    4.7740    0.4210 C.3     1  UNL1        0.0870
      4  O          6.0980    3.9190    2.2380 O.2     1  UNL1       -0.3000
      5  C          5.3260    1.5470    0.9810 C.3     1  UNL1        0.0430
      6  C          6.1340    0.4470    0.4250 C.2     1  UNL1       -0.0440
      7  C          6.5160   -0.6490    1.2060 C.2     1  UNL1        0.0080
      8  C          6.5260    0.4880   -0.8940 C.2     1  UNL1        0.0540
      9  C          7.2740   -1.6520    0.6290 C.2     1  UNL1        0.0510
     10  C          7.2910   -0.5280   -1.4730 C.2     1  UNL1        0.1660
     11  C          7.6690   -1.6070   -0.7040 C.2     1  UNL1        0.1650
     12  O          7.8000   -0.7170   -2.7400 O.2     1  UNL1       -0.4540
     13  O          8.4080   -2.4450   -1.5250 O.2     1  UNL1       -0.4540
     14  C          8.4390   -1.9630   -2.8470 C.3     1  UNL1        0.4680
@<TRIPOS>BOND
     1    14    12    1
     2    14    13    1
     3    12    10    1
     4    13    11    1
     5    10     8    1
     6    10    11    2
     7     8     6    2
     8    11     9    1
     9     1     5    1
    10     1     2    1
    11     3     2    1
    12     6     5    1
    13     6     7    1
    14     9     7    2
    15     2     4    2
