MODEL 1
REMARK VINA RESULT:      -7.8      0.000      0.000
REMARK SMILES CC(=O)CCc1ccc2c(c1)OCO2
REMARK SMILES IDX 4 1 2 2 1 3 3 4 5 5 6 6 7 7 11 8 8 9 10 10 9 11 12 12 14 13
REMARK SMILES IDX 13 14
REMARK H PARENT
REMARK Flexibility Score: inf
ROOT
ATOM      1  C   UNL     1       5.532   2.839   0.216  1.00  0.00     0.080 C 
ENDROOT
BRANCH   1   2
ATOM      2  C   UNL     1       6.275   3.839   1.033  1.00  0.00     0.130 C 
ATOM      3  C   UNL     1       7.257   4.774   0.421  1.00  0.00     0.087 C 
ATOM      4  O   UNL     1       6.098   3.919   2.238  1.00  0.00    -0.300 OA
ENDBRANCH   1   2
BRANCH   1   5
ATOM      5  C   UNL     1       5.326   1.547   0.981  1.00  0.00     0.043 C 
BRANCH   5   6
ATOM      6  C   UNL     1       6.134   0.447   0.425  1.00  0.00    -0.044 A 
ATOM      7  C   UNL     1       6.516  -0.649   1.206  1.00  0.00     0.008 A 
ATOM      8  C   UNL     1       6.526   0.488  -0.894  1.00  0.00     0.054 A 
ATOM      9  C   UNL     1       7.274  -1.652   0.629  1.00  0.00     0.051 A 
ATOM     10  C   UNL     1       7.291  -0.528  -1.473  1.00  0.00     0.166 A 
ATOM     11  C   UNL     1       7.669  -1.607  -0.704  1.00  0.00     0.165 A 
ATOM     12  O   UNL     1       7.800  -0.717  -2.740  1.00  0.00    -0.454 OA
ATOM     13  O   UNL     1       8.408  -2.445  -1.525  1.00  0.00    -0.454 OA
ATOM     14  C   UNL     1       8.439  -1.963  -2.847  1.00  0.00     0.468 C 
ENDBRANCH   5   6
ENDBRANCH   1   5
TORSDOF 3
ENDMDL
MODEL 2
REMARK VINA RESULT:      -7.7      1.906      2.649
REMARK SMILES CC(=O)CCc1ccc2c(c1)OCO2
REMARK SMILES IDX 4 1 2 2 1 3 3 4 5 5 6 6 7 7 11 8 8 9 10 10 9 11 12 12 14 13
REMARK SMILES IDX 13 14
REMARK H PARENT
REMARK Flexibility Score: inf
ROOT
ATOM      1  C   UNL     1       5.509   1.904   1.271  1.00  0.00     0.080 C 
ENDROOT
BRANCH   1   2
ATOM      2  C   UNL     1       5.065   0.684   2.002  1.00  0.00     0.130 C 
ATOM      3  C   UNL     1       5.952  -0.500   2.155  1.00  0.00     0.087 C 
ATOM      4  O   UNL     1       3.952   0.622   2.499  1.00  0.00    -0.300 OA
ENDBRANCH   1   2
BRANCH   1   5
ATOM      5  C   UNL     1       5.386   1.722  -0.229  1.00  0.00     0.043 C 
BRANCH   5   6
ATOM      6  C   UNL     1       6.557   1.026  -0.793  1.00  0.00    -0.044 A 
ATOM      7  C   UNL     1       7.862   1.470  -0.547  1.00  0.00     0.008 A 
ATOM      8  C   UNL     1       6.375  -0.089  -1.579  1.00  0.00     0.054 A 
ATOM      9  C   UNL     1       8.922   0.776  -1.102  1.00  0.00     0.051 A 
ATOM     10  C   UNL     1       7.450  -0.787  -2.137  1.00  0.00     0.166 A 
ATOM     11  C   UNL     1       8.734  -0.351  -1.897  1.00  0.00     0.165 A 
ATOM     12  O   UNL     1       7.529  -1.904  -2.941  1.00  0.00    -0.454 OA
ATOM     13  O   UNL     1       9.583  -1.219  -2.564  1.00  0.00    -0.454 OA
ATOM     14  C   UNL     1       8.866  -2.271  -3.164  1.00  0.00     0.468 C 
ENDBRANCH   5   6
ENDBRANCH   1   5
TORSDOF 3
ENDMDL
MODEL 3
REMARK VINA RESULT:      -7.5      1.899      2.962
REMARK SMILES CC(=O)CCc1ccc2c(c1)OCO2
REMARK SMILES IDX 4 1 2 2 1 3 3 4 5 5 6 6 7 7 11 8 8 9 10 10 9 11 12 12 14 13
REMARK SMILES IDX 13 14
REMARK H PARENT
REMARK Flexibility Score: inf
ROOT
ATOM      1  C   UNL     1       5.750   1.336  -0.399  1.00  0.00     0.080 C 
ENDROOT
BRANCH   1   2
ATOM      2  C   UNL     1       5.260   1.443   1.003  1.00  0.00     0.130 C 
ATOM      3  C   UNL     1       5.232   0.267   1.913  1.00  0.00     0.087 C 
ATOM      4  O   UNL     1       4.862   2.508   1.448  1.00  0.00    -0.300 OA
ENDBRANCH   1   2
BRANCH   1   5
ATOM      5  C   UNL     1       7.255   1.160  -0.444  1.00  0.00     0.043 C 
BRANCH   5   6
ATOM      6  C   UNL     1       7.636  -0.154  -0.994  1.00  0.00    -0.044 A 
ATOM      7  C   UNL     1       7.766  -0.361  -2.372  1.00  0.00     0.008 A 
ATOM      8  C   UNL     1       7.873  -1.207  -0.141  1.00  0.00     0.054 A 
ATOM      9  C   UNL     1       8.127  -1.615  -2.830  1.00  0.00     0.051 A 
ATOM     10  C   UNL     1       8.237  -2.473  -0.609  1.00  0.00     0.166 A 
ATOM     11  C   UNL     1       8.365  -2.679  -1.965  1.00  0.00     0.165 A 
ATOM     12  O   UNL     1       8.522  -3.664   0.025  1.00  0.00    -0.454 OA
ATOM     13  O   UNL     1       8.730  -4.005  -2.136  1.00  0.00    -0.454 OA
ATOM     14  C   UNL     1       8.929  -4.642  -0.897  1.00  0.00     0.468 C 
ENDBRANCH   5   6
ENDBRANCH   1   5
TORSDOF 3
ENDMDL
