@<TRIPOS>MOLECULE
/home/cewinharhar/GITHUB/reincatalyze/data/processed/docking_pred/2023-May-22-1531_sub9_nm5_bs15_s42_ex16_mel10_mts1000_k50_ec02_g099_lra9e-4_lrc1e-3/e72dfb9ce69b60d9dd63e32278a4acfac8a78322_ligand_9.pdbqt
 14 15 0 0 0
SMALL
GASTEIGER

@<TRIPOS>ATOM
      1  C          5.5220    1.9380    1.2670 C.3     1  UNL1        0.0800
      2  C          5.0920    0.7200    2.0090 C.2     1  UNL1        0.1300
      3  C          5.9980   -0.4460    2.1860 C.3     1  UNL1        0.0870
      4  O          3.9760    0.6440    2.4960 O.2     1  UNL1       -0.3000
      5  C          5.3940    1.7440   -0.2310 C.3     1  UNL1        0.0430
      6  C          6.5620    1.0420   -0.7920 C.2     1  UNL1       -0.0440
      7  C          7.8690    1.4770   -0.5410 C.2     1  UNL1        0.0080
      8  C          6.3760   -0.0690   -1.5820 C.2     1  UNL1        0.0540
      9  C          8.9260    0.7780   -1.0940 C.2     1  UNL1        0.0510
     10  C          7.4480   -0.7720   -2.1390 C.2     1  UNL1        0.1660
     11  C          8.7340   -0.3450   -1.8930 C.2     1  UNL1        0.1650
     12  O          7.5230   -1.8880   -2.9450 O.2     1  UNL1       -0.4540
     13  O          9.5810   -1.2170   -2.5590 O.2     1  UNL1       -0.4540
     14  C          8.8590   -2.2630   -3.1650 C.3     1  UNL1        0.4680
@<TRIPOS>BOND
     1    14    12    1
     2    14    13    1
     3    12    10    1
     4    13    11    1
     5    10    11    2
     6    10     8    1
     7    11     9    1
     8     8     6    2
     9     9     7    2
    10     6     7    1
    11     6     5    1
    12     5     1    1
    13     1     2    1
    14     2     3    1
    15     2     4    2
