@<TRIPOS>MOLECULE
/home/cewinharhar/GITHUB/reincatalyze/data/processed/docking_pred/2023-May-22-1531_sub9_nm5_bs15_s42_ex16_mel10_mts1000_k50_ec02_g099_lra9e-4_lrc1e-3/e72dfb9ce69b60d9dd63e32278a4acfac8a78322_ligand_9.pdbqt
 14 15 0 0 0
SMALL
GASTEIGER

@<TRIPOS>ATOM
      1  C          5.7700    1.3910   -0.3240 C.3     1  UNL1        0.0800
      2  C          5.1300    1.3080    1.0180 C.2     1  UNL1        0.1300
      3  C          5.4160    0.1860    1.9520 C.3     1  UNL1        0.0870
      4  O          4.3450    2.1650    1.3920 O.2     1  UNL1       -0.3000
      5  C          7.2600    1.1290   -0.2410 C.3     1  UNL1        0.0430
      6  C          7.6220   -0.1650   -0.8460 C.2     1  UNL1       -0.0440
      7  C          7.6770   -0.3360   -2.2340 C.2     1  UNL1        0.0080
      8  C          7.9190   -1.2380   -0.0350 C.2     1  UNL1        0.0540
      9  C          8.0240   -1.5740   -2.7440 C.2     1  UNL1        0.0510
     10  C          8.2700   -2.4870   -0.5570 C.2     1  UNL1        0.1660
     11  C          8.3220   -2.6560   -1.9220 C.2     1  UNL1        0.1650
     12  O          8.6020   -3.6900    0.0290 O.2     1  UNL1       -0.4540
     13  O          8.6910   -3.9730   -2.1490 O.2     1  UNL1       -0.4540
     14  C          8.9670   -4.6390   -0.9400 C.3     1  UNL1        0.4680
@<TRIPOS>BOND
     1     9     7    1
     2     9    11    2
     3     7     6    2
     4    13    11    1
     5    13    14    1
     6    11    10    1
     7    14    12    1
     8     6     5    1
     9     6     8    1
    10    10     8    2
    11    10    12    1
    12     1     5    1
    13     1     2    1
    14     2     4    2
    15     2     3    1
