MODEL 1
REMARK VINA RESULT:      -7.9      0.000      0.000
REMARK SMILES CC(=O)CCc1ccc2c(c1)OCO2
REMARK SMILES IDX 4 1 2 2 1 3 3 4 5 5 6 6 7 7 11 8 8 9 10 10 9 11 12 12 14 13
REMARK SMILES IDX 13 14
REMARK H PARENT
REMARK Flexibility Score: inf
ROOT
ATOM      1  C   UNL     1       5.455   2.940   0.105  1.00  0.00     0.080 C 
ENDROOT
BRANCH   1   2
ATOM      2  C   UNL     1       6.306   3.823   0.951  1.00  0.00     0.130 C 
ATOM      3  C   UNL     1       7.281   4.773   0.352  1.00  0.00     0.087 C 
ATOM      4  O   UNL     1       6.226   3.792   2.168  1.00  0.00    -0.300 OA
ENDBRANCH   1   2
BRANCH   1   5
ATOM      5  C   UNL     1       5.162   1.626   0.803  1.00  0.00     0.043 C 
BRANCH   5   6
ATOM      6  C   UNL     1       6.009   0.535   0.290  1.00  0.00    -0.044 A 
ATOM      7  C   UNL     1       6.357  -0.561   1.088  1.00  0.00     0.008 A 
ATOM      8  C   UNL     1       6.471   0.582  -1.006  1.00  0.00     0.054 A 
ATOM      9  C   UNL     1       7.153  -1.556   0.552  1.00  0.00     0.051 A 
ATOM     10  C   UNL     1       7.276  -0.428  -1.544  1.00  0.00     0.166 A 
ATOM     11  C   UNL     1       7.620  -1.505  -0.758  1.00  0.00     0.165 A 
ATOM     12  O   UNL     1       7.854  -0.609  -2.782  1.00  0.00    -0.454 OA
ATOM     13  O   UNL     1       8.409  -2.335  -1.539  1.00  0.00    -0.454 OA
ATOM     14  C   UNL     1       8.508  -1.849  -2.857  1.00  0.00     0.468 C 
ENDBRANCH   5   6
ENDBRANCH   1   5
TORSDOF 3
ENDMDL
MODEL 2
REMARK VINA RESULT:      -7.6      1.890      2.621
REMARK SMILES CC(=O)CCc1ccc2c(c1)OCO2
REMARK SMILES IDX 4 1 2 2 1 3 3 4 5 5 6 6 7 7 11 8 8 9 10 10 9 11 12 12 14 13
REMARK SMILES IDX 13 14
REMARK H PARENT
REMARK Flexibility Score: inf
ROOT
ATOM      1  C   UNL     1       5.522   1.938   1.267  1.00  0.00     0.080 C 
ENDROOT
BRANCH   1   2
ATOM      2  C   UNL     1       5.092   0.720   2.009  1.00  0.00     0.130 C 
ATOM      3  C   UNL     1       5.998  -0.446   2.186  1.00  0.00     0.087 C 
ATOM      4  O   UNL     1       3.976   0.644   2.496  1.00  0.00    -0.300 OA
ENDBRANCH   1   2
BRANCH   1   5
ATOM      5  C   UNL     1       5.394   1.744  -0.231  1.00  0.00     0.043 C 
BRANCH   5   6
ATOM      6  C   UNL     1       6.562   1.042  -0.792  1.00  0.00    -0.044 A 
ATOM      7  C   UNL     1       7.869   1.477  -0.541  1.00  0.00     0.008 A 
ATOM      8  C   UNL     1       6.376  -0.069  -1.582  1.00  0.00     0.054 A 
ATOM      9  C   UNL     1       8.926   0.778  -1.094  1.00  0.00     0.051 A 
ATOM     10  C   UNL     1       7.448  -0.772  -2.139  1.00  0.00     0.166 A 
ATOM     11  C   UNL     1       8.734  -0.345  -1.893  1.00  0.00     0.165 A 
ATOM     12  O   UNL     1       7.523  -1.888  -2.945  1.00  0.00    -0.454 OA
ATOM     13  O   UNL     1       9.581  -1.217  -2.559  1.00  0.00    -0.454 OA
ATOM     14  C   UNL     1       8.859  -2.263  -3.165  1.00  0.00     0.468 C 
ENDBRANCH   5   6
ENDBRANCH   1   5
TORSDOF 3
ENDMDL
MODEL 3
REMARK VINA RESULT:      -7.5      1.965      3.016
REMARK SMILES CC(=O)CCc1ccc2c(c1)OCO2
REMARK SMILES IDX 4 1 2 2 1 3 3 4 5 5 6 6 7 7 11 8 8 9 10 10 9 11 12 12 14 13
REMARK SMILES IDX 13 14
REMARK H PARENT
REMARK Flexibility Score: inf
ROOT
ATOM      1  C   UNL     1       5.770   1.391  -0.324  1.00  0.00     0.080 C 
ENDROOT
BRANCH   1   2
ATOM      2  C   UNL     1       5.130   1.308   1.018  1.00  0.00     0.130 C 
ATOM      3  C   UNL     1       5.416   0.186   1.952  1.00  0.00     0.087 C 
ATOM      4  O   UNL     1       4.345   2.165   1.392  1.00  0.00    -0.300 OA
ENDBRANCH   1   2
BRANCH   1   5
ATOM      5  C   UNL     1       7.260   1.129  -0.241  1.00  0.00     0.043 C 
BRANCH   5   6
ATOM      6  C   UNL     1       7.622  -0.165  -0.846  1.00  0.00    -0.044 A 
ATOM      7  C   UNL     1       7.677  -0.336  -2.234  1.00  0.00     0.008 A 
ATOM      8  C   UNL     1       7.919  -1.238  -0.035  1.00  0.00     0.054 A 
ATOM      9  C   UNL     1       8.024  -1.574  -2.744  1.00  0.00     0.051 A 
ATOM     10  C   UNL     1       8.270  -2.487  -0.557  1.00  0.00     0.166 A 
ATOM     11  C   UNL     1       8.322  -2.656  -1.922  1.00  0.00     0.165 A 
ATOM     12  O   UNL     1       8.602  -3.690   0.029  1.00  0.00    -0.454 OA
ATOM     13  O   UNL     1       8.691  -3.973  -2.149  1.00  0.00    -0.454 OA
ATOM     14  C   UNL     1       8.967  -4.639  -0.940  1.00  0.00     0.468 C 
ENDBRANCH   5   6
ENDBRANCH   1   5
TORSDOF 3
ENDMDL
