@<TRIPOS>MOLECULE
/home/cewinharhar/GITHUB/reincatalyze/data/processed/docking_pred/2023-May-22-1531_sub9_nm5_bs15_s42_ex16_mel10_mts1000_k50_ec02_g099_lra9e-4_lrc1e-3/e72dfb9ce69b60d9dd63e32278a4acfac8a78322_ligand_9.pdbqt
 14 15 0 0 0
SMALL
GASTEIGER

@<TRIPOS>ATOM
      1  C          5.4550    2.9400    0.1050 C.3     1  UNL1        0.0800
      2  C          6.3060    3.8230    0.9510 C.2     1  UNL1        0.1300
      3  C          7.2810    4.7730    0.3520 C.3     1  UNL1        0.0870
      4  O          6.2260    3.7920    2.1680 O.2     1  UNL1       -0.3000
      5  C          5.1620    1.6260    0.8030 C.3     1  UNL1        0.0430
      6  C          6.0090    0.5350    0.2900 C.2     1  UNL1       -0.0440
      7  C          6.3570   -0.5610    1.0880 C.2     1  UNL1        0.0080
      8  C          6.4710    0.5820   -1.0060 C.2     1  UNL1        0.0540
      9  C          7.1530   -1.5560    0.5520 C.2     1  UNL1        0.0510
     10  C          7.2760   -0.4280   -1.5440 C.2     1  UNL1        0.1660
     11  C          7.6200   -1.5050   -0.7580 C.2     1  UNL1        0.1650
     12  O          7.8540   -0.6090   -2.7820 O.2     1  UNL1       -0.4540
     13  O          8.4090   -2.3350   -1.5390 O.2     1  UNL1       -0.4540
     14  C          8.5080   -1.8490   -2.8570 C.3     1  UNL1        0.4680
@<TRIPOS>BOND
     1    14    12    1
     2    14    13    1
     3    12    10    1
     4    10     8    1
     5    10    11    2
     6    13    11    1
     7     8     6    2
     8    11     9    1
     9     1     5    1
    10     1     2    1
    11     6     5    1
    12     6     7    1
    13     3     2    1
    14     9     7    2
    15     2     4    2
