MODEL 1
REMARK VINA RESULT:      -7.9      0.000      0.000
REMARK SMILES CC(=O)CCc1ccc2c(c1)OCO2
REMARK SMILES IDX 4 1 2 2 1 3 3 4 5 5 6 6 7 7 11 8 8 9 10 10 9 11 12 12 14 13
REMARK SMILES IDX 13 14
REMARK H PARENT
REMARK Flexibility Score: inf
ROOT
ATOM      1  C   UNL     1       5.436   2.895   0.181  1.00  0.00     0.080 C 
ENDROOT
BRANCH   1   2
ATOM      2  C   UNL     1       6.370   3.689   1.027  1.00  0.00     0.130 C 
ATOM      3  C   UNL     1       7.210   4.775   0.455  1.00  0.00     0.087 C 
ATOM      4  O   UNL     1       6.474   3.468   2.223  1.00  0.00    -0.300 OA
ENDBRANCH   1   2
BRANCH   1   5
ATOM      5  C   UNL     1       5.120   1.556   0.817  1.00  0.00     0.043 C 
BRANCH   5   6
ATOM      6  C   UNL     1       5.985   0.484   0.293  1.00  0.00    -0.044 A 
ATOM      7  C   UNL     1       6.377  -0.598   1.090  1.00  0.00     0.008 A 
ATOM      8  C   UNL     1       6.422   0.536  -1.012  1.00  0.00     0.054 A 
ATOM      9  C   UNL     1       7.190  -1.575   0.543  1.00  0.00     0.051 A 
ATOM     10  C   UNL     1       7.243  -0.454  -1.560  1.00  0.00     0.166 A 
ATOM     11  C   UNL     1       7.630  -1.518  -0.776  1.00  0.00     0.165 A 
ATOM     12  O   UNL     1       7.802  -0.626  -2.808  1.00  0.00    -0.454 OA
ATOM     13  O   UNL     1       8.426  -2.330  -1.568  1.00  0.00    -0.454 OA
ATOM     14  C   UNL     1       8.487  -1.850  -2.889  1.00  0.00     0.468 C 
ENDBRANCH   5   6
ENDBRANCH   1   5
TORSDOF 3
ENDMDL
MODEL 2
REMARK VINA RESULT:      -7.8      0.983      1.975
REMARK SMILES CC(=O)CCc1ccc2c(c1)OCO2
REMARK SMILES IDX 4 1 2 2 1 3 3 4 5 5 6 6 7 7 11 8 8 9 10 10 9 11 12 12 14 13
REMARK SMILES IDX 13 14
REMARK H PARENT
REMARK Flexibility Score: inf
ROOT
ATOM      1  C   UNL     1       5.470   2.885   0.184  1.00  0.00     0.080 C 
ENDROOT
BRANCH   1   2
ATOM      2  C   UNL     1       6.416   3.661   1.034  1.00  0.00     0.130 C 
ATOM      3  C   UNL     1       7.236   4.770   0.478  1.00  0.00     0.087 C 
ATOM      4  O   UNL     1       6.546   3.406   2.220  1.00  0.00    -0.300 OA
ENDBRANCH   1   2
BRANCH   1   5
ATOM      5  C   UNL     1       5.172   1.528   0.790  1.00  0.00     0.043 C 
BRANCH   5   6
ATOM      6  C   UNL     1       6.024   0.473   0.213  1.00  0.00    -0.044 A 
ATOM      7  C   UNL     1       6.411   0.497  -1.132  1.00  0.00     0.008 A 
ATOM      8  C   UNL     1       6.456  -0.565   1.007  1.00  0.00     0.054 A 
ATOM      9  C   UNL     1       7.212  -0.520  -1.618  1.00  0.00     0.051 A 
ATOM     10  C   UNL     1       7.267  -1.590   0.511  1.00  0.00     0.166 A 
ATOM     11  C   UNL     1       7.647  -1.568  -0.813  1.00  0.00     0.165 A 
ATOM     12  O   UNL     1       7.819  -2.714   1.088  1.00  0.00    -0.454 OA
ATOM     13  O   UNL     1       8.434  -2.689  -1.023  1.00  0.00    -0.454 OA
ATOM     14  C   UNL     1       8.644  -3.395   0.177  1.00  0.00     0.468 C 
ENDBRANCH   5   6
ENDBRANCH   1   5
TORSDOF 3
ENDMDL
MODEL 3
REMARK VINA RESULT:      -7.6      1.871      2.602
REMARK SMILES CC(=O)CCc1ccc2c(c1)OCO2
REMARK SMILES IDX 4 1 2 2 1 3 3 4 5 5 6 6 7 7 11 8 8 9 10 10 9 11 12 12 14 13
REMARK SMILES IDX 13 14
REMARK H PARENT
REMARK Flexibility Score: inf
ROOT
ATOM      1  C   UNL     1       5.508   1.903   1.278  1.00  0.00     0.080 C 
ENDROOT
BRANCH   1   2
ATOM      2  C   UNL     1       5.057   0.683   2.005  1.00  0.00     0.130 C 
ATOM      3  C   UNL     1       5.935  -0.509   2.149  1.00  0.00     0.087 C 
ATOM      4  O   UNL     1       3.946   0.627   2.506  1.00  0.00    -0.300 OA
ENDBRANCH   1   2
BRANCH   1   5
ATOM      5  C   UNL     1       5.386   1.726  -0.223  1.00  0.00     0.043 C 
BRANCH   5   6
ATOM      6  C   UNL     1       6.555   1.029  -0.788  1.00  0.00    -0.044 A 
ATOM      7  C   UNL     1       7.861   1.468  -0.539  1.00  0.00     0.008 A 
ATOM      8  C   UNL     1       6.370  -0.083  -1.578  1.00  0.00     0.054 A 
ATOM      9  C   UNL     1       8.919   0.774  -1.096  1.00  0.00     0.051 A 
ATOM     10  C   UNL     1       7.444  -0.782  -2.138  1.00  0.00     0.166 A 
ATOM     11  C   UNL     1       8.729  -0.350  -1.895  1.00  0.00     0.165 A 
ATOM     12  O   UNL     1       7.521  -1.897  -2.945  1.00  0.00    -0.454 OA
ATOM     13  O   UNL     1       9.577  -1.218  -2.564  1.00  0.00    -0.454 OA
ATOM     14  C   UNL     1       8.858  -2.266  -3.168  1.00  0.00     0.468 C 
ENDBRANCH   5   6
ENDBRANCH   1   5
TORSDOF 3
ENDMDL
