@<TRIPOS>MOLECULE
/home/cewinharhar/GITHUB/reincatalyze/data/processed/docking_pred/2023-May-22-1531_sub9_nm5_bs15_s42_ex16_mel10_mts1000_k50_ec02_g099_lra9e-4_lrc1e-3/ea9f39b4277e7ba3f00603e8654b95ed05d2571c_ligand_9.pdbqt
 14 15 0 0 0
SMALL
GASTEIGER

@<TRIPOS>ATOM
      1  C          5.4360    2.8950    0.1810 C.3     1  UNL1        0.0800
      2  C          6.3700    3.6890    1.0270 C.2     1  UNL1        0.1300
      3  C          7.2100    4.7750    0.4550 C.3     1  UNL1        0.0870
      4  O          6.4740    3.4680    2.2230 O.2     1  UNL1       -0.3000
      5  C          5.1200    1.5560    0.8170 C.3     1  UNL1        0.0430
      6  C          5.9850    0.4840    0.2930 C.2     1  UNL1       -0.0440
      7  C          6.3770   -0.5980    1.0900 C.2     1  UNL1        0.0080
      8  C          6.4220    0.5360   -1.0120 C.2     1  UNL1        0.0540
      9  C          7.1900   -1.5750    0.5430 C.2     1  UNL1        0.0510
     10  C          7.2430   -0.4540   -1.5600 C.2     1  UNL1        0.1660
     11  C          7.6300   -1.5180   -0.7760 C.2     1  UNL1        0.1650
     12  O          7.8020   -0.6260   -2.8080 O.2     1  UNL1       -0.4540
     13  O          8.4260   -2.3300   -1.5680 O.2     1  UNL1       -0.4540
     14  C          8.4870   -1.8500   -2.8890 C.3     1  UNL1        0.4680
@<TRIPOS>BOND
     1    14    12    1
     2    14    13    1
     3    12    10    1
     4    13    11    1
     5    10     8    1
     6    10    11    2
     7     8     6    2
     8    11     9    1
     9     1     5    1
    10     1     2    1
    11     6     5    1
    12     6     7    1
    13     3     2    1
    14     9     7    2
    15     2     4    2
