@<TRIPOS>MOLECULE
/home/cewinharhar/GITHUB/reincatalyze/data/processed/docking_pred/2023-May-22-1531_sub9_nm5_bs15_s42_ex16_mel10_mts1000_k50_ec02_g099_lra9e-4_lrc1e-3/ea9f39b4277e7ba3f00603e8654b95ed05d2571c_ligand_9.pdbqt
 14 15 0 0 0
SMALL
GASTEIGER

@<TRIPOS>ATOM
      1  C          5.5080    1.9030    1.2780 C.3     1  UNL1        0.0800
      2  C          5.0570    0.6830    2.0050 C.2     1  UNL1        0.1300
      3  C          5.9350   -0.5090    2.1490 C.3     1  UNL1        0.0870
      4  O          3.9460    0.6270    2.5060 O.2     1  UNL1       -0.3000
      5  C          5.3860    1.7260   -0.2230 C.3     1  UNL1        0.0430
      6  C          6.5550    1.0290   -0.7880 C.2     1  UNL1       -0.0440
      7  C          7.8610    1.4680   -0.5390 C.2     1  UNL1        0.0080
      8  C          6.3700   -0.0830   -1.5780 C.2     1  UNL1        0.0540
      9  C          8.9190    0.7740   -1.0960 C.2     1  UNL1        0.0510
     10  C          7.4440   -0.7820   -2.1380 C.2     1  UNL1        0.1660
     11  C          8.7290   -0.3500   -1.8950 C.2     1  UNL1        0.1650
     12  O          7.5210   -1.8970   -2.9450 O.2     1  UNL1       -0.4540
     13  O          9.5770   -1.2180   -2.5640 O.2     1  UNL1       -0.4540
     14  C          8.8580   -2.2660   -3.1680 C.3     1  UNL1        0.4680
@<TRIPOS>BOND
     1    14    12    1
     2    14    13    1
     3    12    10    1
     4    13    11    1
     5    10    11    2
     6    10     8    1
     7    11     9    1
     8     8     6    2
     9     9     7    2
    10     6     7    1
    11     6     5    1
    12     5     1    1
    13     1     2    1
    14     2     3    1
    15     2     4    2
