@<TRIPOS>MOLECULE
/home/cewinharhar/GITHUB/reincatalyze/data/processed/docking_pred/2023-May-22-1531_sub9_nm5_bs15_s42_ex16_mel10_mts1000_k50_ec02_g099_lra9e-4_lrc1e-3/ea9f39b4277e7ba3f00603e8654b95ed05d2571c_ligand_9.pdbqt
 14 15 0 0 0
SMALL
GASTEIGER

@<TRIPOS>ATOM
      1  C          5.4700    2.8850    0.1840 C.3     1  UNL1        0.0800
      2  C          6.4160    3.6610    1.0340 C.2     1  UNL1        0.1300
      3  C          7.2360    4.7700    0.4780 C.3     1  UNL1        0.0870
      4  O          6.5460    3.4060    2.2200 O.2     1  UNL1       -0.3000
      5  C          5.1720    1.5280    0.7900 C.3     1  UNL1        0.0430
      6  C          6.0240    0.4730    0.2130 C.2     1  UNL1       -0.0440
      7  C          6.4110    0.4970   -1.1320 C.2     1  UNL1        0.0080
      8  C          6.4560   -0.5650    1.0070 C.2     1  UNL1        0.0540
      9  C          7.2120   -0.5200   -1.6180 C.2     1  UNL1        0.0510
     10  C          7.2670   -1.5900    0.5110 C.2     1  UNL1        0.1660
     11  C          7.6470   -1.5680   -0.8130 C.2     1  UNL1        0.1650
     12  O          7.8190   -2.7140    1.0880 O.2     1  UNL1       -0.4540
     13  O          8.4340   -2.6890   -1.0230 O.2     1  UNL1       -0.4540
     14  C          8.6440   -3.3950    0.1770 C.3     1  UNL1        0.4680
@<TRIPOS>BOND
     1     9     7    1
     2     9    11    2
     3     7     6    2
     4    13    11    1
     5    13    14    1
     6    11    10    1
     7    14    12    1
     8     1     5    1
     9     1     2    1
    10     6     5    1
    11     6     8    1
    12     3     2    1
    13    10     8    2
    14    10    12    1
    15     2     4    2
