@<TRIPOS>MOLECULE
/home/cewinharhar/GITHUB/reincatalyze/data/processed/docking_pred/2023-May-22-1531_sub9_nm5_bs15_s42_ex16_mel10_mts1000_k50_ec02_g099_lra9e-4_lrc1e-3/eb9358f7bad4db9539b7d0967c6d7dee777b6146_ligand_9.pdbqt
 14 15 0 0 0
SMALL
GASTEIGER

@<TRIPOS>ATOM
      1  C          5.7350    1.3110   -0.3360 C.3     1  UNL1        0.0800
      2  C          5.1830    1.3060    1.0470 C.2     1  UNL1        0.1300
      3  C          5.3660    0.1430    1.9560 C.3     1  UNL1        0.0870
      4  O          4.5590    2.2630    1.4760 O.2     1  UNL1       -0.3000
      5  C          7.2370    1.1040   -0.3300 C.3     1  UNL1        0.0430
      6  C          7.6110   -0.1970   -0.9130 C.2     1  UNL1       -0.0440
      7  C          7.6810   -0.3870   -2.2980 C.2     1  UNL1        0.0080
      8  C          7.9040   -1.2570   -0.0850 C.2     1  UNL1        0.0540
      9  C          8.0390   -1.6300   -2.7880 C.2     1  UNL1        0.0510
     10  C          8.2660   -2.5120   -0.5850 C.2     1  UNL1        0.1660
     11  C          8.3330   -2.7000   -1.9470 C.2     1  UNL1        0.1650
     12  O          8.5970   -3.7050    0.0210 O.2     1  UNL1       -0.4540
     13  O          8.7100   -4.0180   -2.1520 O.2     1  UNL1       -0.4540
     14  C          8.9760   -4.6650   -0.9310 C.3     1  UNL1        0.4680
@<TRIPOS>BOND
     1     9     7    1
     2     9    11    2
     3     7     6    2
     4    13    11    1
     5    13    14    1
     6    11    10    1
     7    14    12    1
     8     6     5    1
     9     6     8    1
    10    10     8    2
    11    10    12    1
    12     1     5    1
    13     1     2    1
    14     2     4    2
    15     2     3    1
