@<TRIPOS>MOLECULE
/home/cewinharhar/GITHUB/reincatalyze/data/processed/docking_pred/2023-May-22-1531_sub9_nm5_bs15_s42_ex16_mel10_mts1000_k50_ec02_g099_lra9e-4_lrc1e-3/eb9358f7bad4db9539b7d0967c6d7dee777b6146_ligand_9.pdbqt
 14 15 0 0 0
SMALL
GASTEIGER

@<TRIPOS>ATOM
      1  C          5.5510    1.9270    1.2650 C.3     1  UNL1        0.0800
      2  C          5.1290    0.7070    2.0080 C.2     1  UNL1        0.1300
      3  C          6.0430   -0.4520    2.1920 C.3     1  UNL1        0.0870
      4  O          4.0110    0.6230    2.4910 O.2     1  UNL1       -0.3000
      5  C          5.4200    1.7320   -0.2320 C.3     1  UNL1        0.0430
      6  C          6.5830    1.0240   -0.7960 C.2     1  UNL1       -0.0440
      7  C          7.8930    1.4490   -0.5420 C.2     1  UNL1        0.0080
      8  C          6.3900   -0.0830   -1.5900 C.2     1  UNL1        0.0540
      9  C          8.9460    0.7450   -1.0970 C.2     1  UNL1        0.0510
     10  C          7.4570   -0.7920   -2.1480 C.2     1  UNL1        0.1660
     11  C          8.7460   -0.3740   -1.9000 C.2     1  UNL1        0.1650
     12  O          7.5250   -1.9050   -2.9580 O.2     1  UNL1       -0.4540
     13  O          9.5870   -1.2500   -2.5690 O.2     1  UNL1       -0.4540
     14  C          8.8580   -2.2880   -3.1780 C.3     1  UNL1        0.4680
@<TRIPOS>BOND
     1    14    12    1
     2    14    13    1
     3    12    10    1
     4    13    11    1
     5    10    11    2
     6    10     8    1
     7    11     9    1
     8     8     6    2
     9     9     7    2
    10     6     7    1
    11     6     5    1
    12     5     1    1
    13     1     2    1
    14     2     3    1
    15     2     4    2
