@<TRIPOS>MOLECULE
/home/cewinharhar/GITHUB/reincatalyze/data/processed/docking_pred/2023-May-22-1531_sub9_nm5_bs15_s42_ex16_mel10_mts1000_k50_ec02_g099_lra9e-4_lrc1e-3/eb9358f7bad4db9539b7d0967c6d7dee777b6146_ligand_9.pdbqt
 14 15 0 0 0
SMALL
GASTEIGER

@<TRIPOS>ATOM
      1  C          5.5120    2.8240    0.2960 C.3     1  UNL1        0.0800
      2  C          6.4000    3.7280    1.0800 C.2     1  UNL1        0.1300
      3  C          7.2300    4.7710    0.4210 C.3     1  UNL1        0.0870
      4  O          6.4720    3.6360    2.2950 O.2     1  UNL1       -0.3000
      5  C          5.2870    1.5110    1.0190 C.3     1  UNL1        0.0430
      6  C          6.1090    0.4270    0.4520 C.2     1  UNL1       -0.0440
      7  C          6.4960   -0.6780    1.2190 C.2     1  UNL1        0.0080
      8  C          6.5100    0.4910   -0.8630 C.2     1  UNL1        0.0540
      9  C          7.2670   -1.6650    0.6340 C.2     1  UNL1        0.0510
     10  C          7.2900   -0.5100   -1.4510 C.2     1  UNL1        0.1660
     11  C          7.6710   -1.5970   -0.6960 C.2     1  UNL1        0.1650
     12  O          7.8090   -0.6740   -2.7180 O.2     1  UNL1       -0.4540
     13  O          8.4240   -2.4150   -1.5240 O.2     1  UNL1       -0.4540
     14  C          8.4600   -1.9130   -2.8390 C.3     1  UNL1        0.4680
@<TRIPOS>BOND
     1    14    12    1
     2    14    13    1
     3    12    10    1
     4    13    11    1
     5    10     8    1
     6    10    11    2
     7     8     6    2
     8    11     9    1
     9     1     5    1
    10     1     2    1
    11     3     2    1
    12     6     5    1
    13     6     7    1
    14     9     7    2
    15     2     4    2
