MODEL 1
REMARK VINA RESULT:      -7.8      0.000      0.000
REMARK SMILES CC(=O)CCc1ccc2c(c1)OCO2
REMARK SMILES IDX 4 1 2 2 1 3 3 4 5 5 6 6 7 7 11 8 8 9 10 10 9 11 12 12 14 13
REMARK SMILES IDX 13 14
REMARK H PARENT
REMARK Flexibility Score: inf
ROOT
ATOM      1  C   UNL     1       5.512   2.824   0.296  1.00  0.00     0.080 C 
ENDROOT
BRANCH   1   2
ATOM      2  C   UNL     1       6.400   3.728   1.080  1.00  0.00     0.130 C 
ATOM      3  C   UNL     1       7.230   4.771   0.421  1.00  0.00     0.087 C 
ATOM      4  O   UNL     1       6.472   3.636   2.295  1.00  0.00    -0.300 OA
ENDBRANCH   1   2
BRANCH   1   5
ATOM      5  C   UNL     1       5.287   1.511   1.019  1.00  0.00     0.043 C 
BRANCH   5   6
ATOM      6  C   UNL     1       6.109   0.427   0.452  1.00  0.00    -0.044 A 
ATOM      7  C   UNL     1       6.496  -0.678   1.219  1.00  0.00     0.008 A 
ATOM      8  C   UNL     1       6.510   0.491  -0.863  1.00  0.00     0.054 A 
ATOM      9  C   UNL     1       7.267  -1.665   0.634  1.00  0.00     0.051 A 
ATOM     10  C   UNL     1       7.290  -0.510  -1.451  1.00  0.00     0.166 A 
ATOM     11  C   UNL     1       7.671  -1.597  -0.696  1.00  0.00     0.165 A 
ATOM     12  O   UNL     1       7.809  -0.674  -2.718  1.00  0.00    -0.454 OA
ATOM     13  O   UNL     1       8.424  -2.415  -1.524  1.00  0.00    -0.454 OA
ATOM     14  C   UNL     1       8.460  -1.913  -2.839  1.00  0.00     0.468 C 
ENDBRANCH   5   6
ENDBRANCH   1   5
TORSDOF 3
ENDMDL
MODEL 2
REMARK VINA RESULT:      -7.6      1.894      2.629
REMARK SMILES CC(=O)CCc1ccc2c(c1)OCO2
REMARK SMILES IDX 4 1 2 2 1 3 3 4 5 5 6 6 7 7 11 8 8 9 10 10 9 11 12 12 14 13
REMARK SMILES IDX 13 14
REMARK H PARENT
REMARK Flexibility Score: inf
ROOT
ATOM      1  C   UNL     1       5.551   1.927   1.265  1.00  0.00     0.080 C 
ENDROOT
BRANCH   1   2
ATOM      2  C   UNL     1       5.129   0.707   2.008  1.00  0.00     0.130 C 
ATOM      3  C   UNL     1       6.043  -0.452   2.192  1.00  0.00     0.087 C 
ATOM      4  O   UNL     1       4.011   0.623   2.491  1.00  0.00    -0.300 OA
ENDBRANCH   1   2
BRANCH   1   5
ATOM      5  C   UNL     1       5.420   1.732  -0.232  1.00  0.00     0.043 C 
BRANCH   5   6
ATOM      6  C   UNL     1       6.583   1.024  -0.796  1.00  0.00    -0.044 A 
ATOM      7  C   UNL     1       7.893   1.449  -0.542  1.00  0.00     0.008 A 
ATOM      8  C   UNL     1       6.390  -0.083  -1.590  1.00  0.00     0.054 A 
ATOM      9  C   UNL     1       8.946   0.745  -1.097  1.00  0.00     0.051 A 
ATOM     10  C   UNL     1       7.457  -0.792  -2.148  1.00  0.00     0.166 A 
ATOM     11  C   UNL     1       8.746  -0.374  -1.900  1.00  0.00     0.165 A 
ATOM     12  O   UNL     1       7.525  -1.905  -2.958  1.00  0.00    -0.454 OA
ATOM     13  O   UNL     1       9.587  -1.250  -2.569  1.00  0.00    -0.454 OA
ATOM     14  C   UNL     1       8.858  -2.288  -3.178  1.00  0.00     0.468 C 
ENDBRANCH   5   6
ENDBRANCH   1   5
TORSDOF 3
ENDMDL
MODEL 3
REMARK VINA RESULT:      -7.5      1.952      3.004
REMARK SMILES CC(=O)CCc1ccc2c(c1)OCO2
REMARK SMILES IDX 4 1 2 2 1 3 3 4 5 5 6 6 7 7 11 8 8 9 10 10 9 11 12 12 14 13
REMARK SMILES IDX 13 14
REMARK H PARENT
REMARK Flexibility Score: inf
ROOT
ATOM      1  C   UNL     1       5.735   1.311  -0.336  1.00  0.00     0.080 C 
ENDROOT
BRANCH   1   2
ATOM      2  C   UNL     1       5.183   1.306   1.047  1.00  0.00     0.130 C 
ATOM      3  C   UNL     1       5.366   0.143   1.956  1.00  0.00     0.087 C 
ATOM      4  O   UNL     1       4.559   2.263   1.476  1.00  0.00    -0.300 OA
ENDBRANCH   1   2
BRANCH   1   5
ATOM      5  C   UNL     1       7.237   1.104  -0.330  1.00  0.00     0.043 C 
BRANCH   5   6
ATOM      6  C   UNL     1       7.611  -0.197  -0.913  1.00  0.00    -0.044 A 
ATOM      7  C   UNL     1       7.681  -0.387  -2.298  1.00  0.00     0.008 A 
ATOM      8  C   UNL     1       7.904  -1.257  -0.085  1.00  0.00     0.054 A 
ATOM      9  C   UNL     1       8.039  -1.630  -2.788  1.00  0.00     0.051 A 
ATOM     10  C   UNL     1       8.266  -2.512  -0.585  1.00  0.00     0.166 A 
ATOM     11  C   UNL     1       8.333  -2.700  -1.947  1.00  0.00     0.165 A 
ATOM     12  O   UNL     1       8.597  -3.705   0.021  1.00  0.00    -0.454 OA
ATOM     13  O   UNL     1       8.710  -4.018  -2.152  1.00  0.00    -0.454 OA
ATOM     14  C   UNL     1       8.976  -4.665  -0.931  1.00  0.00     0.468 C 
ENDBRANCH   5   6
ENDBRANCH   1   5
TORSDOF 3
ENDMDL
