@<TRIPOS>MOLECULE
/home/cewinharhar/GITHUB/reincatalyze/data/processed/docking_pred/2023-May-22-1531_sub9_nm5_bs15_s42_ex16_mel10_mts1000_k50_ec02_g099_lra9e-4_lrc1e-3/f103505c31d1e9178b980ac5ab47259be3cc1632_ligand_9.pdbqt
 14 15 0 0 0
SMALL
GASTEIGER

@<TRIPOS>ATOM
      1  C          5.4420    2.9060    0.3330 C.3     1  UNL1        0.0800
      2  C          6.3930    3.7520    1.1070 C.2     1  UNL1        0.1300
      3  C          7.2460    4.7750    0.4450 C.3     1  UNL1        0.0870
      4  O          6.4990    3.6290    2.3170 O.2     1  UNL1       -0.3000
      5  C          5.2150    1.5700    1.0120 C.3     1  UNL1        0.0430
      6  C          6.0440    0.5070    0.4160 C.2     1  UNL1       -0.0440
      7  C          6.4070   -0.6330    1.1430 C.2     1  UNL1        0.0080
      8  C          6.4750    0.6260   -0.8850 C.2     1  UNL1        0.0540
      9  C          7.1860   -1.5980    0.5320 C.2     1  UNL1        0.0510
     10  C          7.2620   -0.3530   -1.4990 C.2     1  UNL1        0.1660
     11  C          7.6200   -1.4750   -0.7840 C.2     1  UNL1        0.1650
     12  O          7.8080   -0.4660   -2.7600 O.2     1  UNL1       -0.4540
     13  O          8.3870   -2.2610   -1.6300 O.2     1  UNL1       -0.4540
     14  C          8.4550   -1.7020   -2.9200 C.3     1  UNL1        0.4680
@<TRIPOS>BOND
     1    14    12    1
     2    14    13    1
     3    12    10    1
     4    13    11    1
     5    10     8    1
     6    10    11    2
     7     8     6    2
     8    11     9    1
     9     1     5    1
    10     1     2    1
    11     6     5    1
    12     6     7    1
    13     3     2    1
    14     9     7    2
    15     2     4    2
