@<TRIPOS>MOLECULE
/home/cewinharhar/GITHUB/reincatalyze/data/processed/docking_pred/2023-May-22-1531_sub9_nm5_bs15_s42_ex16_mel10_mts1000_k50_ec02_g099_lra9e-4_lrc1e-3/f103505c31d1e9178b980ac5ab47259be3cc1632_ligand_9.pdbqt
 14 15 0 0 0
SMALL
GASTEIGER

@<TRIPOS>ATOM
      1  C          5.5950    2.8900    0.2070 C.3     1  UNL1        0.0800
      2  C          6.2610    3.9810    0.9730 C.2     1  UNL1        0.1300
      3  C          7.3760    4.7750    0.3910 C.3     1  UNL1        0.0870
      4  O          5.9070    4.2550    2.1080 O.2     1  UNL1       -0.3000
      5  C          5.5340    1.6090    1.0150 C.3     1  UNL1        0.0430
      6  C          6.2580    0.5100    0.3510 C.2     1  UNL1       -0.0440
      7  C          6.4800    0.5070   -1.0310 C.2     1  UNL1        0.0080
      8  C          6.7340   -0.5430    1.0990 C.2     1  UNL1        0.0540
      9  C          7.1660   -0.5510   -1.5980 C.2     1  UNL1        0.0510
     10  C          7.4290   -1.6100    0.5210 C.2     1  UNL1        0.1660
     11  C          7.6460   -1.6140   -0.8390 C.2     1  UNL1        0.1650
     12  O          7.9930   -2.7560    1.0410 O.2     1  UNL1       -0.4540
     13  O          8.3470   -2.7740   -1.1290 O.2     1  UNL1       -0.4540
     14  C          8.6670   -3.4820    0.0450 C.3     1  UNL1        0.4680
@<TRIPOS>BOND
     1     9     7    1
     2     9    11    2
     3    13    11    1
     4    13    14    1
     5     7     6    2
     6    11    10    1
     7    14    12    1
     8     1     2    1
     9     1     5    1
    10     6     5    1
    11     6     8    1
    12     3     2    1
    13    10    12    1
    14    10     8    2
    15     2     4    2
