MODEL 1
REMARK VINA RESULT:      -7.7      0.000      0.000
REMARK SMILES CC(=O)CCc1ccc2c(c1)OCO2
REMARK SMILES IDX 4 1 2 2 1 3 3 4 5 5 6 6 7 7 11 8 8 9 10 10 9 11 12 12 14 13
REMARK SMILES IDX 13 14
REMARK H PARENT
REMARK Flexibility Score: inf
ROOT
ATOM      1  C   UNL     1       5.442   2.906   0.333  1.00  0.00     0.080 C 
ENDROOT
BRANCH   1   2
ATOM      2  C   UNL     1       6.393   3.752   1.107  1.00  0.00     0.130 C 
ATOM      3  C   UNL     1       7.246   4.775   0.445  1.00  0.00     0.087 C 
ATOM      4  O   UNL     1       6.499   3.629   2.317  1.00  0.00    -0.300 OA
ENDBRANCH   1   2
BRANCH   1   5
ATOM      5  C   UNL     1       5.215   1.570   1.012  1.00  0.00     0.043 C 
BRANCH   5   6
ATOM      6  C   UNL     1       6.044   0.507   0.416  1.00  0.00    -0.044 A 
ATOM      7  C   UNL     1       6.407  -0.633   1.143  1.00  0.00     0.008 A 
ATOM      8  C   UNL     1       6.475   0.626  -0.885  1.00  0.00     0.054 A 
ATOM      9  C   UNL     1       7.186  -1.598   0.532  1.00  0.00     0.051 A 
ATOM     10  C   UNL     1       7.262  -0.353  -1.499  1.00  0.00     0.166 A 
ATOM     11  C   UNL     1       7.620  -1.475  -0.784  1.00  0.00     0.165 A 
ATOM     12  O   UNL     1       7.808  -0.466  -2.760  1.00  0.00    -0.454 OA
ATOM     13  O   UNL     1       8.387  -2.261  -1.630  1.00  0.00    -0.454 OA
ATOM     14  C   UNL     1       8.455  -1.702  -2.920  1.00  0.00     0.468 C 
ENDBRANCH   5   6
ENDBRANCH   1   5
TORSDOF 3
ENDMDL
MODEL 2
REMARK VINA RESULT:      -7.6      1.895      2.627
REMARK SMILES CC(=O)CCc1ccc2c(c1)OCO2
REMARK SMILES IDX 4 1 2 2 1 3 3 4 5 5 6 6 7 7 11 8 8 9 10 10 9 11 12 12 14 13
REMARK SMILES IDX 13 14
REMARK H PARENT
REMARK Flexibility Score: inf
ROOT
ATOM      1  C   UNL     1       5.502   1.936   1.255  1.00  0.00     0.080 C 
ENDROOT
BRANCH   1   2
ATOM      2  C   UNL     1       5.070   0.722   2.002  1.00  0.00     0.130 C 
ATOM      3  C   UNL     1       5.964  -0.456   2.159  1.00  0.00     0.087 C 
ATOM      4  O   UNL     1       3.962   0.659   2.509  1.00  0.00    -0.300 OA
ENDBRANCH   1   2
BRANCH   1   5
ATOM      5  C   UNL     1       5.377   1.735  -0.243  1.00  0.00     0.043 C 
BRANCH   5   6
ATOM      6  C   UNL     1       6.551   1.039  -0.800  1.00  0.00    -0.044 A 
ATOM      7  C   UNL     1       7.854   1.483  -0.548  1.00  0.00     0.008 A 
ATOM      8  C   UNL     1       6.373  -0.077  -1.585  1.00  0.00     0.054 A 
ATOM      9  C   UNL     1       8.917   0.788  -1.097  1.00  0.00     0.051 A 
ATOM     10  C   UNL     1       7.451  -0.776  -2.137  1.00  0.00     0.166 A 
ATOM     11  C   UNL     1       8.733  -0.339  -1.892  1.00  0.00     0.165 A 
ATOM     12  O   UNL     1       7.534  -1.894  -2.939  1.00  0.00    -0.454 OA
ATOM     13  O   UNL     1       9.586  -1.208  -2.553  1.00  0.00    -0.454 OA
ATOM     14  C   UNL     1       8.872  -2.261  -3.155  1.00  0.00     0.468 C 
ENDBRANCH   5   6
ENDBRANCH   1   5
TORSDOF 3
ENDMDL
MODEL 3
REMARK VINA RESULT:      -7.6      1.043      2.001
REMARK SMILES CC(=O)CCc1ccc2c(c1)OCO2
REMARK SMILES IDX 4 1 2 2 1 3 3 4 5 5 6 6 7 7 11 8 8 9 10 10 9 11 12 12 14 13
REMARK SMILES IDX 13 14
REMARK H PARENT
REMARK Flexibility Score: inf
ROOT
ATOM      1  C   UNL     1       5.595   2.890   0.207  1.00  0.00     0.080 C 
ENDROOT
BRANCH   1   2
ATOM      2  C   UNL     1       6.261   3.981   0.973  1.00  0.00     0.130 C 
ATOM      3  C   UNL     1       7.376   4.775   0.391  1.00  0.00     0.087 C 
ATOM      4  O   UNL     1       5.907   4.255   2.108  1.00  0.00    -0.300 OA
ENDBRANCH   1   2
BRANCH   1   5
ATOM      5  C   UNL     1       5.534   1.609   1.015  1.00  0.00     0.043 C 
BRANCH   5   6
ATOM      6  C   UNL     1       6.258   0.510   0.351  1.00  0.00    -0.044 A 
ATOM      7  C   UNL     1       6.480   0.507  -1.031  1.00  0.00     0.008 A 
ATOM      8  C   UNL     1       6.734  -0.543   1.099  1.00  0.00     0.054 A 
ATOM      9  C   UNL     1       7.166  -0.551  -1.598  1.00  0.00     0.051 A 
ATOM     10  C   UNL     1       7.429  -1.610   0.521  1.00  0.00     0.166 A 
ATOM     11  C   UNL     1       7.646  -1.614  -0.839  1.00  0.00     0.165 A 
ATOM     12  O   UNL     1       7.993  -2.756   1.041  1.00  0.00    -0.454 OA
ATOM     13  O   UNL     1       8.347  -2.774  -1.129  1.00  0.00    -0.454 OA
ATOM     14  C   UNL     1       8.667  -3.482   0.045  1.00  0.00     0.468 C 
ENDBRANCH   5   6
ENDBRANCH   1   5
TORSDOF 3
ENDMDL
