@<TRIPOS>MOLECULE
/home/cewinharhar/GITHUB/reincatalyze/data/processed/docking_pred/2023-May-22-1531_sub9_nm5_bs15_s42_ex16_mel10_mts1000_k50_ec02_g099_lra9e-4_lrc1e-3/f103505c31d1e9178b980ac5ab47259be3cc1632_ligand_9.pdbqt
 14 15 0 0 0
SMALL
GASTEIGER

@<TRIPOS>ATOM
      1  C          5.5020    1.9360    1.2550 C.3     1  UNL1        0.0800
      2  C          5.0700    0.7220    2.0020 C.2     1  UNL1        0.1300
      3  C          5.9640   -0.4560    2.1590 C.3     1  UNL1        0.0870
      4  O          3.9620    0.6590    2.5090 O.2     1  UNL1       -0.3000
      5  C          5.3770    1.7350   -0.2430 C.3     1  UNL1        0.0430
      6  C          6.5510    1.0390   -0.8000 C.2     1  UNL1       -0.0440
      7  C          7.8540    1.4830   -0.5480 C.2     1  UNL1        0.0080
      8  C          6.3730   -0.0770   -1.5850 C.2     1  UNL1        0.0540
      9  C          8.9170    0.7880   -1.0970 C.2     1  UNL1        0.0510
     10  C          7.4510   -0.7760   -2.1370 C.2     1  UNL1        0.1660
     11  C          8.7330   -0.3390   -1.8920 C.2     1  UNL1        0.1650
     12  O          7.5340   -1.8940   -2.9390 O.2     1  UNL1       -0.4540
     13  O          9.5860   -1.2080   -2.5530 O.2     1  UNL1       -0.4540
     14  C          8.8720   -2.2610   -3.1550 C.3     1  UNL1        0.4680
@<TRIPOS>BOND
     1    14    12    1
     2    14    13    1
     3    12    10    1
     4    13    11    1
     5    10    11    2
     6    10     8    1
     7    11     9    1
     8     8     6    2
     9     9     7    2
    10     6     7    1
    11     6     5    1
    12     5     1    1
    13     1     2    1
    14     2     3    1
    15     2     4    2
