@<TRIPOS>MOLECULE
/home/cewinharhar/GITHUB/reincatalyze/data/processed/docking_pred/2023-May-22-1531_sub9_nm5_bs15_s42_ex16_mel10_mts1000_k50_ec02_g099_lra9e-4_lrc1e-3/f15420a79f585431148ea344134f913ab78e73cd_ligand_9.pdbqt
 14 15 0 0 0
SMALL
GASTEIGER

@<TRIPOS>ATOM
      1  C          5.4710    2.9130    0.0740 C.3     1  UNL1        0.0800
      2  C          6.3260    3.7330    0.9770 C.2     1  UNL1        0.1300
      3  C          7.2450    4.7750    0.4470 C.3     1  UNL1        0.0870
      4  O          6.2960    3.5710    2.1860 O.2     1  UNL1       -0.3000
      5  C          5.1350    1.5740    0.7010 C.3     1  UNL1        0.0430
      6  C          5.9870    0.4940    0.1720 C.2     1  UNL1       -0.0440
      7  C          6.3820    0.4630   -1.1710 C.2     1  UNL1        0.0080
      8  C          6.4120   -0.5120    1.0090 C.2     1  UNL1        0.0540
      9  C          7.1820   -0.5760   -1.6110 C.2     1  UNL1        0.0510
     10  C          7.2220   -1.5590    0.5600 C.2     1  UNL1        0.1660
     11  C          7.6100   -1.5910   -0.7610 C.2     1  UNL1        0.1650
     12  O          7.7670   -2.6600    1.1850 O.2     1  UNL1       -0.4540
     13  O          8.3950   -2.7230   -0.9210 O.2     1  UNL1       -0.4540
     14  C          8.5950   -3.3800    0.3080 C.3     1  UNL1        0.4680
@<TRIPOS>BOND
     1     9     7    1
     2     9    11    2
     3     7     6    2
     4    13    11    1
     5    13    14    1
     6    11    10    1
     7     1     5    1
     8     1     2    1
     9     6     5    1
    10     6     8    1
    11    14    12    1
    12     3     2    1
    13    10     8    2
    14    10    12    1
    15     2     4    2
