@<TRIPOS>MOLECULE
/home/cewinharhar/GITHUB/reincatalyze/data/processed/docking_pred/2023-May-22-1531_sub9_nm5_bs15_s42_ex16_mel10_mts1000_k50_ec02_g099_lra9e-4_lrc1e-3/f15420a79f585431148ea344134f913ab78e73cd_ligand_9.pdbqt
 14 15 0 0 0
SMALL
GASTEIGER

@<TRIPOS>ATOM
      1  C          6.0160    1.6480    1.1510 C.3     1  UNL1        0.0800
      2  C          5.4490    0.5460    1.9770 C.2     1  UNL1        0.1300
      3  C          6.2430   -0.6660    2.3120 C.3     1  UNL1        0.0870
      4  O          4.3080    0.6070    2.4060 O.2     1  UNL1       -0.3000
      5  C          5.7370    1.4310   -0.3230 C.3     1  UNL1        0.0430
      6  C          6.8050    0.6500   -0.9720 C.2     1  UNL1       -0.0440
      7  C          8.1510    1.0160   -0.8620 C.2     1  UNL1        0.0080
      8  C          6.4830   -0.4710   -1.7040 C.2     1  UNL1        0.0540
      9  C          9.1100    0.2450   -1.4920 C.2     1  UNL1        0.0510
     10  C          7.4560   -1.2480   -2.3380 C.2     1  UNL1        0.1660
     11  C          8.7810   -0.8870   -2.2310 C.2     1  UNL1        0.1650
     12  O          7.3920   -2.3880   -3.1110 O.2     1  UNL1       -0.4540
     13  O          9.5100   -1.8230   -2.9480 O.2     1  UNL1       -0.4540
     14  C          8.6780   -2.8430   -3.4470 C.3     1  UNL1        0.4680
@<TRIPOS>BOND
     1    14    12    1
     2    14    13    1
     3    12    10    1
     4    13    11    1
     5    10    11    2
     6    10     8    1
     7    11     9    1
     8     8     6    2
     9     9     7    2
    10     6     7    1
    11     6     5    1
    12     5     1    1
    13     1     2    1
    14     2     3    1
    15     2     4    2
