MODEL 1
REMARK VINA RESULT:      -8.1      0.000      0.000
REMARK SMILES CC(=O)CCc1ccc2c(c1)OCO2
REMARK SMILES IDX 4 1 2 2 1 3 3 4 5 5 6 6 7 7 11 8 8 9 10 10 9 11 12 12 14 13
REMARK SMILES IDX 13 14
REMARK H PARENT
REMARK Flexibility Score: inf
ROOT
ATOM      1  C   UNL     1       6.016   1.648   1.151  1.00  0.00     0.080 C 
ENDROOT
BRANCH   1   2
ATOM      2  C   UNL     1       5.449   0.546   1.977  1.00  0.00     0.130 C 
ATOM      3  C   UNL     1       6.243  -0.666   2.312  1.00  0.00     0.087 C 
ATOM      4  O   UNL     1       4.308   0.607   2.406  1.00  0.00    -0.300 OA
ENDBRANCH   1   2
BRANCH   1   5
ATOM      5  C   UNL     1       5.737   1.431  -0.323  1.00  0.00     0.043 C 
BRANCH   5   6
ATOM      6  C   UNL     1       6.805   0.650  -0.972  1.00  0.00    -0.044 A 
ATOM      7  C   UNL     1       8.151   1.016  -0.862  1.00  0.00     0.008 A 
ATOM      8  C   UNL     1       6.483  -0.471  -1.704  1.00  0.00     0.054 A 
ATOM      9  C   UNL     1       9.110   0.245  -1.492  1.00  0.00     0.051 A 
ATOM     10  C   UNL     1       7.456  -1.248  -2.338  1.00  0.00     0.166 A 
ATOM     11  C   UNL     1       8.781  -0.887  -2.231  1.00  0.00     0.165 A 
ATOM     12  O   UNL     1       7.392  -2.388  -3.111  1.00  0.00    -0.454 OA
ATOM     13  O   UNL     1       9.510  -1.823  -2.948  1.00  0.00    -0.454 OA
ATOM     14  C   UNL     1       8.678  -2.843  -3.447  1.00  0.00     0.468 C 
ENDBRANCH   5   6
ENDBRANCH   1   5
TORSDOF 3
ENDMDL
MODEL 2
REMARK VINA RESULT:      -7.7      1.942      2.746
REMARK SMILES CC(=O)CCc1ccc2c(c1)OCO2
REMARK SMILES IDX 4 1 2 2 1 3 3 4 5 5 6 6 7 7 11 8 8 9 10 10 9 11 12 12 14 13
REMARK SMILES IDX 13 14
REMARK H PARENT
REMARK Flexibility Score: inf
ROOT
ATOM      1  C   UNL     1       5.432   2.915   0.085  1.00  0.00     0.080 C 
ENDROOT
BRANCH   1   2
ATOM      2  C   UNL     1       6.267   3.820   0.923  1.00  0.00     0.130 C 
ATOM      3  C   UNL     1       7.234   4.774   0.316  1.00  0.00     0.087 C 
ATOM      4  O   UNL     1       6.182   3.803   2.140  1.00  0.00    -0.300 OA
ENDBRANCH   1   2
BRANCH   1   5
ATOM      5  C   UNL     1       5.133   1.616   0.806  1.00  0.00     0.043 C 
BRANCH   5   6
ATOM      6  C   UNL     1       5.960   0.506   0.299  1.00  0.00    -0.044 A 
ATOM      7  C   UNL     1       6.259  -0.607   1.093  1.00  0.00     0.008 A 
ATOM      8  C   UNL     1       6.452   0.554  -0.985  1.00  0.00     0.054 A 
ATOM      9  C   UNL     1       7.039  -1.618   0.563  1.00  0.00     0.051 A 
ATOM     10  C   UNL     1       7.240  -0.471  -1.516  1.00  0.00     0.166 A 
ATOM     11  C   UNL     1       7.536  -1.567  -0.736  1.00  0.00     0.165 A 
ATOM     12  O   UNL     1       7.840  -0.656  -2.744  1.00  0.00    -0.454 OA
ATOM     13  O   UNL     1       8.319  -2.410  -1.509  1.00  0.00    -0.454 OA
ATOM     14  C   UNL     1       8.461  -1.913  -2.818  1.00  0.00     0.468 C 
ENDBRANCH   5   6
ENDBRANCH   1   5
TORSDOF 3
ENDMDL
MODEL 3
REMARK VINA RESULT:      -7.7      2.404      3.075
REMARK SMILES CC(=O)CCc1ccc2c(c1)OCO2
REMARK SMILES IDX 4 1 2 2 1 3 3 4 5 5 6 6 7 7 11 8 8 9 10 10 9 11 12 12 14 13
REMARK SMILES IDX 13 14
REMARK H PARENT
REMARK Flexibility Score: inf
ROOT
ATOM      1  C   UNL     1       5.471   2.913   0.074  1.00  0.00     0.080 C 
ENDROOT
BRANCH   1   2
ATOM      2  C   UNL     1       6.326   3.733   0.977  1.00  0.00     0.130 C 
ATOM      3  C   UNL     1       7.245   4.775   0.447  1.00  0.00     0.087 C 
ATOM      4  O   UNL     1       6.296   3.571   2.186  1.00  0.00    -0.300 OA
ENDBRANCH   1   2
BRANCH   1   5
ATOM      5  C   UNL     1       5.135   1.574   0.701  1.00  0.00     0.043 C 
BRANCH   5   6
ATOM      6  C   UNL     1       5.987   0.494   0.172  1.00  0.00    -0.044 A 
ATOM      7  C   UNL     1       6.382   0.463  -1.171  1.00  0.00     0.008 A 
ATOM      8  C   UNL     1       6.412  -0.512   1.009  1.00  0.00     0.054 A 
ATOM      9  C   UNL     1       7.182  -0.576  -1.611  1.00  0.00     0.051 A 
ATOM     10  C   UNL     1       7.222  -1.559   0.560  1.00  0.00     0.166 A 
ATOM     11  C   UNL     1       7.610  -1.591  -0.761  1.00  0.00     0.165 A 
ATOM     12  O   UNL     1       7.767  -2.660   1.185  1.00  0.00    -0.454 OA
ATOM     13  O   UNL     1       8.395  -2.723  -0.921  1.00  0.00    -0.454 OA
ATOM     14  C   UNL     1       8.595  -3.380   0.308  1.00  0.00     0.468 C 
ENDBRANCH   5   6
ENDBRANCH   1   5
TORSDOF 3
ENDMDL
