@<TRIPOS>MOLECULE
/home/cewinharhar/GITHUB/reincatalyze/data/processed/docking_pred/2023-May-22-1531_sub9_nm5_bs15_s42_ex16_mel10_mts1000_k50_ec02_g099_lra9e-4_lrc1e-3/f1acaff2cf7a86b9bbc999bfeecc6491fc2a0881_ligand_9.pdbqt
 14 15 0 0 0
SMALL
GASTEIGER

@<TRIPOS>ATOM
      1  C          5.5420    1.9040    1.2830 C.3     1  UNL1        0.0800
      2  C          5.1030    0.6820    2.0120 C.2     1  UNL1        0.1300
      3  C          6.0000   -0.4930    2.1800 C.3     1  UNL1        0.0870
      4  O          3.9850    0.6090    2.4960 O.2     1  UNL1       -0.3000
      5  C          5.4130    1.7260   -0.2170 C.3     1  UNL1        0.0430
      6  C          6.5780    1.0260   -0.7870 C.2     1  UNL1       -0.0440
      7  C          7.8860    1.4550   -0.5360 C.2     1  UNL1        0.0080
      8  C          6.3870   -0.0800   -1.5840 C.2     1  UNL1        0.0540
      9  C          8.9410    0.7580   -1.0970 C.2     1  UNL1        0.0510
     10  C          7.4570   -0.7820   -2.1480 C.2     1  UNL1        0.1660
     11  C          8.7440   -0.3590   -1.9030 C.2     1  UNL1        0.1650
     12  O          7.5270   -1.8920   -2.9620 O.2     1  UNL1       -0.4540
     13  O          9.5870   -1.2280   -2.5770 O.2     1  UNL1       -0.4540
     14  C          8.8610   -2.2680   -3.1880 C.3     1  UNL1        0.4680
@<TRIPOS>BOND
     1    14    12    1
     2    14    13    1
     3    12    10    1
     4    13    11    1
     5    10    11    2
     6    10     8    1
     7    11     9    1
     8     8     6    2
     9     9     7    2
    10     6     7    1
    11     6     5    1
    12     5     1    1
    13     1     2    1
    14     2     3    1
    15     2     4    2
