MODEL 1
REMARK VINA RESULT:      -7.9      0.000      0.000
REMARK SMILES CC(=O)CCc1ccc2c(c1)OCO2
REMARK SMILES IDX 4 1 2 2 1 3 3 4 5 5 6 6 7 7 11 8 8 9 10 10 9 11 12 12 14 13
REMARK SMILES IDX 13 14
REMARK H PARENT
REMARK Flexibility Score: inf
ROOT
ATOM      1  C   UNL     1       5.462   2.897   0.217  1.00  0.00     0.080 C 
ENDROOT
BRANCH   1   2
ATOM      2  C   UNL     1       6.300   3.802   1.051  1.00  0.00     0.130 C 
ATOM      3  C   UNL     1       7.245   4.775   0.440  1.00  0.00     0.087 C 
ATOM      4  O   UNL     1       6.235   3.771   2.269  1.00  0.00    -0.300 OA
ENDBRANCH   1   2
BRANCH   1   5
ATOM      5  C   UNL     1       5.212   1.576   0.918  1.00  0.00     0.043 C 
BRANCH   5   6
ATOM      6  C   UNL     1       6.043   0.495   0.360  1.00  0.00    -0.044 A 
ATOM      7  C   UNL     1       6.416  -0.614   1.129  1.00  0.00     0.008 A 
ATOM      8  C   UNL     1       6.466   0.565  -0.947  1.00  0.00     0.054 A 
ATOM      9  C   UNL     1       7.196  -1.599   0.551  1.00  0.00     0.051 A 
ATOM     10  C   UNL     1       7.255  -0.434  -1.527  1.00  0.00     0.166 A 
ATOM     11  C   UNL     1       7.623  -1.524  -0.771  1.00  0.00     0.165 A 
ATOM     12  O   UNL     1       7.795  -0.592  -2.785  1.00  0.00    -0.454 OA
ATOM     13  O   UNL     1       8.389  -2.339  -1.590  1.00  0.00    -0.454 OA
ATOM     14  C   UNL     1       8.447  -1.831  -2.901  1.00  0.00     0.468 C 
ENDBRANCH   5   6
ENDBRANCH   1   5
TORSDOF 3
ENDMDL
MODEL 2
REMARK VINA RESULT:      -7.8      1.005      1.993
REMARK SMILES CC(=O)CCc1ccc2c(c1)OCO2
REMARK SMILES IDX 4 1 2 2 1 3 3 4 5 5 6 6 7 7 11 8 8 9 10 10 9 11 12 12 14 13
REMARK SMILES IDX 13 14
REMARK H PARENT
REMARK Flexibility Score: inf
ROOT
ATOM      1  C   UNL     1       5.503   2.892   0.027  1.00  0.00     0.080 C 
ENDROOT
BRANCH   1   2
ATOM      2  C   UNL     1       6.285   3.767   0.945  1.00  0.00     0.130 C 
ATOM      3  C   UNL     1       7.249   4.775   0.429  1.00  0.00     0.087 C 
ATOM      4  O   UNL     1       6.155   3.680   2.155  1.00  0.00    -0.300 OA
ENDBRANCH   1   2
BRANCH   1   5
ATOM      5  C   UNL     1       5.196   1.554   0.671  1.00  0.00     0.043 C 
BRANCH   5   6
ATOM      6  C   UNL     1       6.052   0.481   0.135  1.00  0.00    -0.044 A 
ATOM      7  C   UNL     1       6.471   0.475  -1.200  1.00  0.00     0.008 A 
ATOM      8  C   UNL     1       6.458  -0.544   0.960  1.00  0.00     0.054 A 
ATOM      9  C   UNL     1       7.275  -0.558  -1.647  1.00  0.00     0.051 A 
ATOM     10  C   UNL     1       7.271  -1.585   0.503  1.00  0.00     0.166 A 
ATOM     11  C   UNL     1       7.683  -1.593  -0.811  1.00  0.00     0.165 A 
ATOM     12  O   UNL     1       7.801  -2.701   1.116  1.00  0.00    -0.454 OA
ATOM     13  O   UNL     1       8.465  -2.724  -0.980  1.00  0.00    -0.454 OA
ATOM     14  C   UNL     1       8.641  -3.407   0.239  1.00  0.00     0.468 C 
ENDBRANCH   5   6
ENDBRANCH   1   5
TORSDOF 3
ENDMDL
MODEL 3
REMARK VINA RESULT:      -7.6      1.888      2.627
REMARK SMILES CC(=O)CCc1ccc2c(c1)OCO2
REMARK SMILES IDX 4 1 2 2 1 3 3 4 5 5 6 6 7 7 11 8 8 9 10 10 9 11 12 12 14 13
REMARK SMILES IDX 13 14
REMARK H PARENT
REMARK Flexibility Score: inf
ROOT
ATOM      1  C   UNL     1       5.542   1.904   1.283  1.00  0.00     0.080 C 
ENDROOT
BRANCH   1   2
ATOM      2  C   UNL     1       5.103   0.682   2.012  1.00  0.00     0.130 C 
ATOM      3  C   UNL     1       6.000  -0.493   2.180  1.00  0.00     0.087 C 
ATOM      4  O   UNL     1       3.985   0.609   2.496  1.00  0.00    -0.300 OA
ENDBRANCH   1   2
BRANCH   1   5
ATOM      5  C   UNL     1       5.413   1.726  -0.217  1.00  0.00     0.043 C 
BRANCH   5   6
ATOM      6  C   UNL     1       6.578   1.026  -0.787  1.00  0.00    -0.044 A 
ATOM      7  C   UNL     1       7.886   1.455  -0.536  1.00  0.00     0.008 A 
ATOM      8  C   UNL     1       6.387  -0.080  -1.584  1.00  0.00     0.054 A 
ATOM      9  C   UNL     1       8.941   0.758  -1.097  1.00  0.00     0.051 A 
ATOM     10  C   UNL     1       7.457  -0.782  -2.148  1.00  0.00     0.166 A 
ATOM     11  C   UNL     1       8.744  -0.359  -1.903  1.00  0.00     0.165 A 
ATOM     12  O   UNL     1       7.527  -1.892  -2.962  1.00  0.00    -0.454 OA
ATOM     13  O   UNL     1       9.587  -1.228  -2.577  1.00  0.00    -0.454 OA
ATOM     14  C   UNL     1       8.861  -2.268  -3.188  1.00  0.00     0.468 C 
ENDBRANCH   5   6
ENDBRANCH   1   5
TORSDOF 3
ENDMDL
