@<TRIPOS>MOLECULE
/home/cewinharhar/GITHUB/reincatalyze/data/processed/docking_pred/2023-May-22-1531_sub9_nm5_bs15_s42_ex16_mel10_mts1000_k50_ec02_g099_lra9e-4_lrc1e-3/f1acaff2cf7a86b9bbc999bfeecc6491fc2a0881_ligand_9.pdbqt
 14 15 0 0 0
SMALL
GASTEIGER

@<TRIPOS>ATOM
      1  C          5.4620    2.8970    0.2170 C.3     1  UNL1        0.0800
      2  C          6.3000    3.8020    1.0510 C.2     1  UNL1        0.1300
      3  C          7.2450    4.7750    0.4400 C.3     1  UNL1        0.0870
      4  O          6.2350    3.7710    2.2690 O.2     1  UNL1       -0.3000
      5  C          5.2120    1.5760    0.9180 C.3     1  UNL1        0.0430
      6  C          6.0430    0.4950    0.3600 C.2     1  UNL1       -0.0440
      7  C          6.4160   -0.6140    1.1290 C.2     1  UNL1        0.0080
      8  C          6.4660    0.5650   -0.9470 C.2     1  UNL1        0.0540
      9  C          7.1960   -1.5990    0.5510 C.2     1  UNL1        0.0510
     10  C          7.2550   -0.4340   -1.5270 C.2     1  UNL1        0.1660
     11  C          7.6230   -1.5240   -0.7710 C.2     1  UNL1        0.1650
     12  O          7.7950   -0.5920   -2.7850 O.2     1  UNL1       -0.4540
     13  O          8.3890   -2.3390   -1.5900 O.2     1  UNL1       -0.4540
     14  C          8.4470   -1.8310   -2.9010 C.3     1  UNL1        0.4680
@<TRIPOS>BOND
     1    14    12    1
     2    14    13    1
     3    12    10    1
     4    13    11    1
     5    10     8    1
     6    10    11    2
     7     8     6    2
     8    11     9    1
     9     1     5    1
    10     1     2    1
    11     6     5    1
    12     6     7    1
    13     3     2    1
    14     9     7    2
    15     2     4    2
