@<TRIPOS>MOLECULE
/home/cewinharhar/GITHUB/reincatalyze/data/processed/docking_pred/2023-May-22-1531_sub9_nm5_bs15_s42_ex16_mel10_mts1000_k50_ec02_g099_lra9e-4_lrc1e-3/f1acaff2cf7a86b9bbc999bfeecc6491fc2a0881_ligand_9.pdbqt
 14 15 0 0 0
SMALL
GASTEIGER

@<TRIPOS>ATOM
      1  C          5.5030    2.8920    0.0270 C.3     1  UNL1        0.0800
      2  C          6.2850    3.7670    0.9450 C.2     1  UNL1        0.1300
      3  C          7.2490    4.7750    0.4290 C.3     1  UNL1        0.0870
      4  O          6.1550    3.6800    2.1550 O.2     1  UNL1       -0.3000
      5  C          5.1960    1.5540    0.6710 C.3     1  UNL1        0.0430
      6  C          6.0520    0.4810    0.1350 C.2     1  UNL1       -0.0440
      7  C          6.4710    0.4750   -1.2000 C.2     1  UNL1        0.0080
      8  C          6.4580   -0.5440    0.9600 C.2     1  UNL1        0.0540
      9  C          7.2750   -0.5580   -1.6470 C.2     1  UNL1        0.0510
     10  C          7.2710   -1.5850    0.5030 C.2     1  UNL1        0.1660
     11  C          7.6830   -1.5930   -0.8110 C.2     1  UNL1        0.1650
     12  O          7.8010   -2.7010    1.1160 O.2     1  UNL1       -0.4540
     13  O          8.4650   -2.7240   -0.9800 O.2     1  UNL1       -0.4540
     14  C          8.6410   -3.4070    0.2390 C.3     1  UNL1        0.4680
@<TRIPOS>BOND
     1     9     7    1
     2     9    11    2
     3     7     6    2
     4    13    11    1
     5    13    14    1
     6    11    10    1
     7     1     5    1
     8     1     2    1
     9     6     5    1
    10     6     8    1
    11    14    12    1
    12     3     2    1
    13    10     8    2
    14    10    12    1
    15     2     4    2
