@<TRIPOS>MOLECULE
/home/cewinharhar/GITHUB/reincatalyze/data/processed/docking_pred/2023-May-22-1531_sub9_nm5_bs15_s42_ex16_mel10_mts1000_k50_ec02_g099_lra9e-4_lrc1e-3/f338baa35ded8d3cb3d8a5b9e0cebf8a24c11f6d_ligand_9.pdbqt
 14 15 0 0 0
SMALL
GASTEIGER

@<TRIPOS>ATOM
      1  C          5.7640    1.3720   -0.3440 C.3     1  UNL1        0.0800
      2  C          5.1240    1.3170    1.0000 C.2     1  UNL1        0.1300
      3  C          5.3780    0.1930    1.9410 C.3     1  UNL1        0.0870
      4  O          4.3660    2.1990    1.3700 O.2     1  UNL1       -0.3000
      5  C          7.2490    1.0830   -0.2580 C.3     1  UNL1        0.0430
      6  C          7.5900   -0.2140   -0.8690 C.2     1  UNL1       -0.0440
      7  C          7.5800   -0.3960   -2.2570 C.2     1  UNL1        0.0080
      8  C          7.9290   -1.2790   -0.0650 C.2     1  UNL1        0.0540
      9  C          7.9090   -1.6360   -2.7730 C.2     1  UNL1        0.0510
     10  C          8.2620   -2.5300   -0.5920 C.2     1  UNL1        0.1660
     11  C          8.2520   -2.7100   -1.9580 C.2     1  UNL1        0.1650
     12  O          8.6280   -3.7270   -0.0130 O.2     1  UNL1       -0.4540
     13  O          8.6160   -4.0270   -2.1910 O.2     1  UNL1       -0.4540
     14  C          8.9520   -4.6820   -0.9910 C.3     1  UNL1        0.4680
@<TRIPOS>BOND
     1     9     7    1
     2     9    11    2
     3     7     6    2
     4    13    11    1
     5    13    14    1
     6    11    10    1
     7    14    12    1
     8     6     5    1
     9     6     8    1
    10    10     8    2
    11    10    12    1
    12     1     5    1
    13     1     2    1
    14     2     4    2
    15     2     3    1
