MODEL 1
REMARK VINA RESULT:      -7.8      0.000      0.000
REMARK SMILES CC(=O)CCc1ccc2c(c1)OCO2
REMARK SMILES IDX 4 1 2 2 1 3 3 4 5 5 6 6 7 7 11 8 8 9 10 10 9 11 12 12 14 13
REMARK SMILES IDX 13 14
REMARK H PARENT
REMARK Flexibility Score: inf
ROOT
ATOM      1  C   UNL     1       5.558   2.863   0.112  1.00  0.00     0.080 C 
ENDROOT
BRANCH   1   2
ATOM      2  C   UNL     1       6.298   3.814   0.988  1.00  0.00     0.130 C 
ATOM      3  C   UNL     1       7.290   4.774   0.436  1.00  0.00     0.087 C 
ATOM      4  O   UNL     1       6.108   3.832   2.194  1.00  0.00    -0.300 OA
ENDBRANCH   1   2
BRANCH   1   5
ATOM      5  C   UNL     1       5.261   1.565   0.836  1.00  0.00     0.043 C 
BRANCH   5   6
ATOM      6  C   UNL     1       6.091   0.456   0.333  1.00  0.00    -0.044 A 
ATOM      7  C   UNL     1       6.467  -0.611   1.156  1.00  0.00     0.008 A 
ATOM      8  C   UNL     1       6.511   0.458  -0.978  1.00  0.00     0.054 A 
ATOM      9  C   UNL     1       7.246  -1.625   0.628  1.00  0.00     0.051 A 
ATOM     10  C   UNL     1       7.298  -0.569  -1.508  1.00  0.00     0.166 A 
ATOM     11  C   UNL     1       7.669  -1.619  -0.697  1.00  0.00     0.165 A 
ATOM     12  O   UNL     1       7.834  -0.792  -2.758  1.00  0.00    -0.454 OA
ATOM     13  O   UNL     1       8.433  -2.475  -1.475  1.00  0.00    -0.454 OA
ATOM     14  C   UNL     1       8.487  -2.035  -2.811  1.00  0.00     0.468 C 
ENDBRANCH   5   6
ENDBRANCH   1   5
TORSDOF 3
ENDMDL
MODEL 2
REMARK VINA RESULT:      -7.6      1.885      2.610
REMARK SMILES CC(=O)CCc1ccc2c(c1)OCO2
REMARK SMILES IDX 4 1 2 2 1 3 3 4 5 5 6 6 7 7 11 8 8 9 10 10 9 11 12 12 14 13
REMARK SMILES IDX 13 14
REMARK H PARENT
REMARK Flexibility Score: inf
ROOT
ATOM      1  C   UNL     1       5.535   1.937   1.258  1.00  0.00     0.080 C 
ENDROOT
BRANCH   1   2
ATOM      2  C   UNL     1       5.116   0.718   2.004  1.00  0.00     0.130 C 
ATOM      3  C   UNL     1       6.034  -0.438   2.190  1.00  0.00     0.087 C 
ATOM      4  O   UNL     1       3.999   0.632   2.487  1.00  0.00    -0.300 OA
ENDBRANCH   1   2
BRANCH   1   5
ATOM      5  C   UNL     1       5.407   1.737  -0.239  1.00  0.00     0.043 C 
BRANCH   5   6
ATOM      6  C   UNL     1       6.573   1.029  -0.798  1.00  0.00    -0.044 A 
ATOM      7  C   UNL     1       7.881   1.452  -0.537  1.00  0.00     0.008 A 
ATOM      8  C   UNL     1       6.382  -0.077  -1.594  1.00  0.00     0.054 A 
ATOM      9  C   UNL     1       8.936   0.748  -1.088  1.00  0.00     0.051 A 
ATOM     10  C   UNL     1       7.452  -0.786  -2.148  1.00  0.00     0.166 A 
ATOM     11  C   UNL     1       8.739  -0.370  -1.894  1.00  0.00     0.165 A 
ATOM     12  O   UNL     1       7.522  -1.898  -2.960  1.00  0.00    -0.454 OA
ATOM     13  O   UNL     1       9.583  -1.245  -2.560  1.00  0.00    -0.454 OA
ATOM     14  C   UNL     1       8.856  -2.283  -3.174  1.00  0.00     0.468 C 
ENDBRANCH   5   6
ENDBRANCH   1   5
TORSDOF 3
ENDMDL
MODEL 3
REMARK VINA RESULT:      -7.5      1.948      2.961
REMARK SMILES CC(=O)CCc1ccc2c(c1)OCO2
REMARK SMILES IDX 4 1 2 2 1 3 3 4 5 5 6 6 7 7 11 8 8 9 10 10 9 11 12 12 14 13
REMARK SMILES IDX 13 14
REMARK H PARENT
REMARK Flexibility Score: inf
ROOT
ATOM      1  C   UNL     1       5.764   1.372  -0.344  1.00  0.00     0.080 C 
ENDROOT
BRANCH   1   2
ATOM      2  C   UNL     1       5.124   1.317   1.000  1.00  0.00     0.130 C 
ATOM      3  C   UNL     1       5.378   0.193   1.941  1.00  0.00     0.087 C 
ATOM      4  O   UNL     1       4.366   2.199   1.370  1.00  0.00    -0.300 OA
ENDBRANCH   1   2
BRANCH   1   5
ATOM      5  C   UNL     1       7.249   1.083  -0.258  1.00  0.00     0.043 C 
BRANCH   5   6
ATOM      6  C   UNL     1       7.590  -0.214  -0.869  1.00  0.00    -0.044 A 
ATOM      7  C   UNL     1       7.580  -0.396  -2.257  1.00  0.00     0.008 A 
ATOM      8  C   UNL     1       7.929  -1.279  -0.065  1.00  0.00     0.054 A 
ATOM      9  C   UNL     1       7.909  -1.636  -2.773  1.00  0.00     0.051 A 
ATOM     10  C   UNL     1       8.262  -2.530  -0.592  1.00  0.00     0.166 A 
ATOM     11  C   UNL     1       8.252  -2.710  -1.958  1.00  0.00     0.165 A 
ATOM     12  O   UNL     1       8.628  -3.727  -0.013  1.00  0.00    -0.454 OA
ATOM     13  O   UNL     1       8.616  -4.027  -2.191  1.00  0.00    -0.454 OA
ATOM     14  C   UNL     1       8.952  -4.682  -0.991  1.00  0.00     0.468 C 
ENDBRANCH   5   6
ENDBRANCH   1   5
TORSDOF 3
ENDMDL
