@<TRIPOS>MOLECULE
/home/cewinharhar/GITHUB/reincatalyze/data/processed/docking_pred/2023-May-22-1531_sub9_nm5_bs15_s42_ex16_mel10_mts1000_k50_ec02_g099_lra9e-4_lrc1e-3/f338baa35ded8d3cb3d8a5b9e0cebf8a24c11f6d_ligand_9.pdbqt
 14 15 0 0 0
SMALL
GASTEIGER

@<TRIPOS>ATOM
      1  C          5.5350    1.9370    1.2580 C.3     1  UNL1        0.0800
      2  C          5.1160    0.7180    2.0040 C.2     1  UNL1        0.1300
      3  C          6.0340   -0.4380    2.1900 C.3     1  UNL1        0.0870
      4  O          3.9990    0.6320    2.4870 O.2     1  UNL1       -0.3000
      5  C          5.4070    1.7370   -0.2390 C.3     1  UNL1        0.0430
      6  C          6.5730    1.0290   -0.7980 C.2     1  UNL1       -0.0440
      7  C          7.8810    1.4520   -0.5370 C.2     1  UNL1        0.0080
      8  C          6.3820   -0.0770   -1.5940 C.2     1  UNL1        0.0540
      9  C          8.9360    0.7480   -1.0880 C.2     1  UNL1        0.0510
     10  C          7.4520   -0.7860   -2.1480 C.2     1  UNL1        0.1660
     11  C          8.7390   -0.3700   -1.8940 C.2     1  UNL1        0.1650
     12  O          7.5220   -1.8980   -2.9600 O.2     1  UNL1       -0.4540
     13  O          9.5830   -1.2450   -2.5600 O.2     1  UNL1       -0.4540
     14  C          8.8560   -2.2830   -3.1740 C.3     1  UNL1        0.4680
@<TRIPOS>BOND
     1    14    12    1
     2    14    13    1
     3    12    10    1
     4    13    11    1
     5    10    11    2
     6    10     8    1
     7    11     9    1
     8     8     6    2
     9     9     7    2
    10     6     7    1
    11     6     5    1
    12     5     1    1
    13     1     2    1
    14     2     3    1
    15     2     4    2
