@<TRIPOS>MOLECULE
/home/cewinharhar/GITHUB/reincatalyze/data/processed/docking_pred/2023-May-22-1531_sub9_nm5_bs15_s42_ex16_mel10_mts1000_k50_ec02_g099_lra9e-4_lrc1e-3/f338baa35ded8d3cb3d8a5b9e0cebf8a24c11f6d_ligand_9.pdbqt
 14 15 0 0 0
SMALL
GASTEIGER

@<TRIPOS>ATOM
      1  C          5.5580    2.8630    0.1120 C.3     1  UNL1        0.0800
      2  C          6.2980    3.8140    0.9880 C.2     1  UNL1        0.1300
      3  C          7.2900    4.7740    0.4360 C.3     1  UNL1        0.0870
      4  O          6.1080    3.8320    2.1940 O.2     1  UNL1       -0.3000
      5  C          5.2610    1.5650    0.8360 C.3     1  UNL1        0.0430
      6  C          6.0910    0.4560    0.3330 C.2     1  UNL1       -0.0440
      7  C          6.4670   -0.6110    1.1560 C.2     1  UNL1        0.0080
      8  C          6.5110    0.4580   -0.9780 C.2     1  UNL1        0.0540
      9  C          7.2460   -1.6250    0.6280 C.2     1  UNL1        0.0510
     10  C          7.2980   -0.5690   -1.5080 C.2     1  UNL1        0.1660
     11  C          7.6690   -1.6190   -0.6970 C.2     1  UNL1        0.1650
     12  O          7.8340   -0.7920   -2.7580 O.2     1  UNL1       -0.4540
     13  O          8.4330   -2.4750   -1.4750 O.2     1  UNL1       -0.4540
     14  C          8.4870   -2.0350   -2.8110 C.3     1  UNL1        0.4680
@<TRIPOS>BOND
     1    14    12    1
     2    14    13    1
     3    12    10    1
     4    10     8    1
     5    10    11    2
     6    13    11    1
     7     8     6    2
     8    11     9    1
     9     1     5    1
    10     1     2    1
    11     6     5    1
    12     6     7    1
    13     3     2    1
    14     9     7    2
    15     2     4    2
