@<TRIPOS>MOLECULE
/home/cewinharhar/GITHUB/reincatalyze/data/processed/docking_pred/2023-May-22-1531_sub9_nm5_bs15_s42_ex16_mel10_mts1000_k50_ec02_g099_lra9e-4_lrc1e-3/f3c5d297feb9947f67baa3310bcd1cfc63c32b25_ligand_9.pdbqt
 14 15 0 0 0
SMALL
GASTEIGER

@<TRIPOS>ATOM
      1  C          5.4400    2.9460    0.1210 C.3     1  UNL1        0.0800
      2  C          6.2040    3.9240    0.9450 C.2     1  UNL1        0.1300
      3  C          7.2730    4.7740    0.3560 C.3     1  UNL1        0.0870
      4  O          5.9730    4.0550    2.1360 O.2     1  UNL1       -0.3000
      5  C          5.2390    1.6390    0.8620 C.3     1  UNL1        0.0430
      6  C          6.0390    0.5500    0.2750 C.2     1  UNL1       -0.0440
      7  C          6.3430    0.5170   -1.0910 C.2     1  UNL1        0.0080
      8  C          6.5050   -0.4640    1.0800 C.2     1  UNL1        0.0540
      9  C          7.0980   -0.5300   -1.5850 C.2     1  UNL1        0.0510
     10  C          7.2690   -1.5210    0.5760 C.2     1  UNL1        0.1660
     11  C          7.5680   -1.5540   -0.7680 C.2     1  UNL1        0.1650
     12  O          7.8400   -2.6310    1.1610 O.2     1  UNL1       -0.4540
     13  O          8.3250   -2.6950   -0.9820 O.2     1  UNL1       -0.4540
     14  C          8.5980   -3.3590    0.2290 C.3     1  UNL1        0.4680
@<TRIPOS>BOND
     1     9     7    1
     2     9    11    2
     3     7     6    2
     4    13    11    1
     5    13    14    1
     6    11    10    1
     7     1     5    1
     8     1     2    1
     9    14    12    1
    10     6     5    1
    11     6     8    1
    12     3     2    1
    13    10     8    2
    14    10    12    1
    15     2     4    2
