@<TRIPOS>MOLECULE
/home/cewinharhar/GITHUB/reincatalyze/data/processed/docking_pred/2023-May-22-1531_sub9_nm5_bs15_s42_ex16_mel10_mts1000_k50_ec02_g099_lra9e-4_lrc1e-3/f3c5d297feb9947f67baa3310bcd1cfc63c32b25_ligand_9.pdbqt
 14 15 0 0 0
SMALL
GASTEIGER

@<TRIPOS>ATOM
      1  C          5.4430    2.9200    0.1770 C.3     1  UNL1        0.0800
      2  C          6.2810    3.8600    0.9730 C.2     1  UNL1        0.1300
      3  C          7.2590    4.7750    0.3250 C.3     1  UNL1        0.0870
      4  O          6.1880    3.9060    2.1890 O.2     1  UNL1       -0.3000
      5  C          5.2110    1.6220    0.9250 C.3     1  UNL1        0.0430
      6  C          6.0260    0.5230    0.3780 C.2     1  UNL1       -0.0440
      7  C          6.3670   -0.5920    1.1520 C.2     1  UNL1        0.0080
      8  C          6.4660    0.5820   -0.9250 C.2     1  UNL1        0.0540
      9  C          7.1340   -1.5940    0.5860 C.2     1  UNL1        0.0510
     10  C          7.2410   -0.4330   -1.4930 C.2     1  UNL1        0.1660
     11  C          7.5780   -1.5300   -0.7320 C.2     1  UNL1        0.1650
     12  O          7.7930   -0.6050   -2.7450 O.2     1  UNL1       -0.4540
     13  O          8.3370   -2.3610   -1.5400 O.2     1  UNL1       -0.4540
     14  C          8.4220   -1.8560   -2.8520 C.3     1  UNL1        0.4680
@<TRIPOS>BOND
     1    14    12    1
     2    14    13    1
     3    12    10    1
     4    13    11    1
     5    10     8    1
     6    10    11    2
     7     8     6    2
     8    11     9    1
     9     1     5    1
    10     1     2    1
    11     3     2    1
    12     6     5    1
    13     6     7    1
    14     9     7    2
    15     2     4    2
