MODEL 1
REMARK VINA RESULT:      -7.9      0.000      0.000
REMARK SMILES CC(=O)CCc1ccc2c(c1)OCO2
REMARK SMILES IDX 4 1 2 2 1 3 3 4 5 5 6 6 7 7 11 8 8 9 10 10 9 11 12 12 14 13
REMARK SMILES IDX 13 14
REMARK H PARENT
REMARK Flexibility Score: inf
ROOT
ATOM      1  C   UNL     1       5.443   2.920   0.177  1.00  0.00     0.080 C 
ENDROOT
BRANCH   1   2
ATOM      2  C   UNL     1       6.281   3.860   0.973  1.00  0.00     0.130 C 
ATOM      3  C   UNL     1       7.259   4.775   0.325  1.00  0.00     0.087 C 
ATOM      4  O   UNL     1       6.188   3.906   2.189  1.00  0.00    -0.300 OA
ENDBRANCH   1   2
BRANCH   1   5
ATOM      5  C   UNL     1       5.211   1.622   0.925  1.00  0.00     0.043 C 
BRANCH   5   6
ATOM      6  C   UNL     1       6.026   0.523   0.378  1.00  0.00    -0.044 A 
ATOM      7  C   UNL     1       6.367  -0.592   1.152  1.00  0.00     0.008 A 
ATOM      8  C   UNL     1       6.466   0.582  -0.925  1.00  0.00     0.054 A 
ATOM      9  C   UNL     1       7.134  -1.594   0.586  1.00  0.00     0.051 A 
ATOM     10  C   UNL     1       7.241  -0.433  -1.493  1.00  0.00     0.166 A 
ATOM     11  C   UNL     1       7.578  -1.530  -0.732  1.00  0.00     0.165 A 
ATOM     12  O   UNL     1       7.793  -0.605  -2.745  1.00  0.00    -0.454 OA
ATOM     13  O   UNL     1       8.337  -2.361  -1.540  1.00  0.00    -0.454 OA
ATOM     14  C   UNL     1       8.422  -1.856  -2.852  1.00  0.00     0.468 C 
ENDBRANCH   5   6
ENDBRANCH   1   5
TORSDOF 3
ENDMDL
MODEL 2
REMARK VINA RESULT:      -7.8      0.986      1.971
REMARK SMILES CC(=O)CCc1ccc2c(c1)OCO2
REMARK SMILES IDX 4 1 2 2 1 3 3 4 5 5 6 6 7 7 11 8 8 9 10 10 9 11 12 12 14 13
REMARK SMILES IDX 13 14
REMARK H PARENT
REMARK Flexibility Score: inf
ROOT
ATOM      1  C   UNL     1       5.440   2.946   0.121  1.00  0.00     0.080 C 
ENDROOT
BRANCH   1   2
ATOM      2  C   UNL     1       6.204   3.924   0.945  1.00  0.00     0.130 C 
ATOM      3  C   UNL     1       7.273   4.774   0.356  1.00  0.00     0.087 C 
ATOM      4  O   UNL     1       5.973   4.055   2.136  1.00  0.00    -0.300 OA
ENDBRANCH   1   2
BRANCH   1   5
ATOM      5  C   UNL     1       5.239   1.639   0.862  1.00  0.00     0.043 C 
BRANCH   5   6
ATOM      6  C   UNL     1       6.039   0.550   0.275  1.00  0.00    -0.044 A 
ATOM      7  C   UNL     1       6.343   0.517  -1.091  1.00  0.00     0.008 A 
ATOM      8  C   UNL     1       6.505  -0.464   1.080  1.00  0.00     0.054 A 
ATOM      9  C   UNL     1       7.098  -0.530  -1.585  1.00  0.00     0.051 A 
ATOM     10  C   UNL     1       7.269  -1.521   0.576  1.00  0.00     0.166 A 
ATOM     11  C   UNL     1       7.568  -1.554  -0.768  1.00  0.00     0.165 A 
ATOM     12  O   UNL     1       7.840  -2.631   1.161  1.00  0.00    -0.454 OA
ATOM     13  O   UNL     1       8.325  -2.695  -0.982  1.00  0.00    -0.454 OA
ATOM     14  C   UNL     1       8.598  -3.359   0.229  1.00  0.00     0.468 C 
ENDBRANCH   5   6
ENDBRANCH   1   5
TORSDOF 3
ENDMDL
MODEL 3
REMARK VINA RESULT:      -7.7      1.907      2.667
REMARK SMILES CC(=O)CCc1ccc2c(c1)OCO2
REMARK SMILES IDX 4 1 2 2 1 3 3 4 5 5 6 6 7 7 11 8 8 9 10 10 9 11 12 12 14 13
REMARK SMILES IDX 13 14
REMARK H PARENT
REMARK Flexibility Score: inf
ROOT
ATOM      1  C   UNL     1       5.513   1.904   1.272  1.00  0.00     0.080 C 
ENDROOT
BRANCH   1   2
ATOM      2  C   UNL     1       5.070   0.683   2.002  1.00  0.00     0.130 C 
ATOM      3  C   UNL     1       5.957  -0.500   2.156  1.00  0.00     0.087 C 
ATOM      4  O   UNL     1       3.957   0.620   2.499  1.00  0.00    -0.300 OA
ENDBRANCH   1   2
BRANCH   1   5
ATOM      5  C   UNL     1       5.391   1.722  -0.228  1.00  0.00     0.043 C 
BRANCH   5   6
ATOM      6  C   UNL     1       6.560   1.025  -0.791  1.00  0.00    -0.044 A 
ATOM      7  C   UNL     1       7.866   1.466  -0.544  1.00  0.00     0.008 A 
ATOM      8  C   UNL     1       6.377  -0.089  -1.579  1.00  0.00     0.054 A 
ATOM      9  C   UNL     1       8.925   0.771  -1.099  1.00  0.00     0.051 A 
ATOM     10  C   UNL     1       7.451  -0.789  -2.137  1.00  0.00     0.166 A 
ATOM     11  C   UNL     1       8.735  -0.355  -1.895  1.00  0.00     0.165 A 
ATOM     12  O   UNL     1       7.529  -1.906  -2.941  1.00  0.00    -0.454 OA
ATOM     13  O   UNL     1       9.584  -1.224  -2.562  1.00  0.00    -0.454 OA
ATOM     14  C   UNL     1       8.865  -2.275  -3.163  1.00  0.00     0.468 C 
ENDBRANCH   5   6
ENDBRANCH   1   5
TORSDOF 3
ENDMDL
