@<TRIPOS>MOLECULE
/home/cewinharhar/GITHUB/reincatalyze/data/processed/docking_pred/2023-May-22-1531_sub9_nm5_bs15_s42_ex16_mel10_mts1000_k50_ec02_g099_lra9e-4_lrc1e-3/f411d25023d78b520541a26d40866fe70d26d332_ligand_9.pdbqt
 14 15 0 0 0
SMALL
GASTEIGER

@<TRIPOS>ATOM
      1  C          5.5060    1.9220    1.2500 C.3     1  UNL1        0.0800
      2  C          5.0620    0.7130    1.9980 C.2     1  UNL1        0.1300
      3  C          5.9440   -0.4740    2.1580 C.3     1  UNL1        0.0870
      4  O          3.9520    0.6610    2.5040 O.2     1  UNL1       -0.3000
      5  C          5.3820    1.7200   -0.2470 C.3     1  UNL1        0.0430
      6  C          6.5540    1.0230   -0.8040 C.2     1  UNL1       -0.0440
      7  C          7.8580    1.4630   -0.5490 C.2     1  UNL1        0.0080
      8  C          6.3750   -0.0910   -1.5920 C.2     1  UNL1        0.0540
      9  C          8.9200    0.7670   -1.0980 C.2     1  UNL1        0.0510
     10  C          7.4520   -0.7910   -2.1440 C.2     1  UNL1        0.1660
     11  C          8.7350   -0.3580   -1.8950 C.2     1  UNL1        0.1650
     12  O          7.5340   -1.9080   -2.9480 O.2     1  UNL1       -0.4540
     13  O          9.5870   -1.2280   -2.5570 O.2     1  UNL1       -0.4540
     14  C          8.8710   -2.2780   -3.1630 C.3     1  UNL1        0.4680
@<TRIPOS>BOND
     1    14    12    1
     2    14    13    1
     3    12    10    1
     4    13    11    1
     5    10    11    2
     6    10     8    1
     7    11     9    1
     8     8     6    2
     9     9     7    2
    10     6     7    1
    11     6     5    1
    12     5     1    1
    13     1     2    1
    14     2     3    1
    15     2     4    2
