@<TRIPOS>MOLECULE
/home/cewinharhar/GITHUB/reincatalyze/data/processed/docking_pred/2023-May-22-1531_sub9_nm5_bs15_s42_ex16_mel10_mts1000_k50_ec02_g099_lra9e-4_lrc1e-3/f411d25023d78b520541a26d40866fe70d26d332_ligand_9.pdbqt
 14 15 0 0 0
SMALL
GASTEIGER

@<TRIPOS>ATOM
      1  C          5.7400    1.3320   -0.3430 C.3     1  UNL1        0.0800
      2  C          5.1660    1.3120    1.0320 C.2     1  UNL1        0.1300
      3  C          5.3940    0.1700    1.9570 C.3     1  UNL1        0.0870
      4  O          4.4860    2.2390    1.4410 O.2     1  UNL1       -0.3000
      5  C          7.2400    1.1120   -0.3160 C.3     1  UNL1        0.0430
      6  C          7.6120   -0.1870   -0.9040 C.2     1  UNL1       -0.0440
      7  C          7.6890   -0.3690   -2.2900 C.2     1  UNL1        0.0080
      8  C          7.8950   -1.2530   -0.0810 C.2     1  UNL1        0.0540
      9  C          8.0450   -1.6100   -2.7850 C.2     1  UNL1        0.0510
     10  C          8.2540   -2.5060   -0.5860 C.2     1  UNL1        0.1660
     11  C          8.3290   -2.6860   -1.9490 C.2     1  UNL1        0.1650
     12  O          8.5770   -3.7040    0.0150 O.2     1  UNL1       -0.4540
     13  O          8.7020   -4.0040   -2.1590 O.2     1  UNL1       -0.4540
     14  C          8.9580   -4.6610   -0.9400 C.3     1  UNL1        0.4680
@<TRIPOS>BOND
     1     9     7    1
     2     9    11    2
     3     7     6    2
     4    13    11    1
     5    13    14    1
     6    11    10    1
     7    14    12    1
     8     6     5    1
     9     6     8    1
    10    10     8    2
    11    10    12    1
    12     1     5    1
    13     1     2    1
    14     2     4    2
    15     2     3    1
