MODEL 1
REMARK VINA RESULT:      -7.6      0.000      0.000
REMARK SMILES CC(=O)CCc1ccc2c(c1)OCO2
REMARK SMILES IDX 4 1 2 2 1 3 3 4 5 5 6 6 7 7 11 8 8 9 10 10 9 11 12 12 14 13
REMARK SMILES IDX 13 14
REMARK H PARENT
REMARK Flexibility Score: inf
ROOT
ATOM      1  C   UNL     1       5.506   1.922   1.250  1.00  0.00     0.080 C 
ENDROOT
BRANCH   1   2
ATOM      2  C   UNL     1       5.062   0.713   1.998  1.00  0.00     0.130 C 
ATOM      3  C   UNL     1       5.944  -0.474   2.158  1.00  0.00     0.087 C 
ATOM      4  O   UNL     1       3.952   0.661   2.504  1.00  0.00    -0.300 OA
ENDBRANCH   1   2
BRANCH   1   5
ATOM      5  C   UNL     1       5.382   1.720  -0.247  1.00  0.00     0.043 C 
BRANCH   5   6
ATOM      6  C   UNL     1       6.554   1.023  -0.804  1.00  0.00    -0.044 A 
ATOM      7  C   UNL     1       7.858   1.463  -0.549  1.00  0.00     0.008 A 
ATOM      8  C   UNL     1       6.375  -0.091  -1.592  1.00  0.00     0.054 A 
ATOM      9  C   UNL     1       8.920   0.767  -1.098  1.00  0.00     0.051 A 
ATOM     10  C   UNL     1       7.452  -0.791  -2.144  1.00  0.00     0.166 A 
ATOM     11  C   UNL     1       8.735  -0.358  -1.895  1.00  0.00     0.165 A 
ATOM     12  O   UNL     1       7.534  -1.908  -2.948  1.00  0.00    -0.454 OA
ATOM     13  O   UNL     1       9.587  -1.228  -2.557  1.00  0.00    -0.454 OA
ATOM     14  C   UNL     1       8.871  -2.278  -3.163  1.00  0.00     0.468 C 
ENDBRANCH   5   6
ENDBRANCH   1   5
TORSDOF 3
ENDMDL
MODEL 2
REMARK VINA RESULT:      -7.5      1.925      2.404
REMARK SMILES CC(=O)CCc1ccc2c(c1)OCO2
REMARK SMILES IDX 4 1 2 2 1 3 3 4 5 5 6 6 7 7 11 8 8 9 10 10 9 11 12 12 14 13
REMARK SMILES IDX 13 14
REMARK H PARENT
REMARK Flexibility Score: inf
ROOT
ATOM      1  C   UNL     1       5.740   1.332  -0.343  1.00  0.00     0.080 C 
ENDROOT
BRANCH   1   2
ATOM      2  C   UNL     1       5.166   1.312   1.032  1.00  0.00     0.130 C 
ATOM      3  C   UNL     1       5.394   0.170   1.957  1.00  0.00     0.087 C 
ATOM      4  O   UNL     1       4.486   2.239   1.441  1.00  0.00    -0.300 OA
ENDBRANCH   1   2
BRANCH   1   5
ATOM      5  C   UNL     1       7.240   1.112  -0.316  1.00  0.00     0.043 C 
BRANCH   5   6
ATOM      6  C   UNL     1       7.612  -0.187  -0.904  1.00  0.00    -0.044 A 
ATOM      7  C   UNL     1       7.689  -0.369  -2.290  1.00  0.00     0.008 A 
ATOM      8  C   UNL     1       7.895  -1.253  -0.081  1.00  0.00     0.054 A 
ATOM      9  C   UNL     1       8.045  -1.610  -2.785  1.00  0.00     0.051 A 
ATOM     10  C   UNL     1       8.254  -2.506  -0.586  1.00  0.00     0.166 A 
ATOM     11  C   UNL     1       8.329  -2.686  -1.949  1.00  0.00     0.165 A 
ATOM     12  O   UNL     1       8.577  -3.704   0.015  1.00  0.00    -0.454 OA
ATOM     13  O   UNL     1       8.702  -4.004  -2.159  1.00  0.00    -0.454 OA
ATOM     14  C   UNL     1       8.958  -4.661  -0.940  1.00  0.00     0.468 C 
ENDBRANCH   5   6
ENDBRANCH   1   5
TORSDOF 3
ENDMDL
MODEL 3
REMARK VINA RESULT:      -7.3      2.550      3.087
REMARK SMILES CC(=O)CCc1ccc2c(c1)OCO2
REMARK SMILES IDX 4 1 2 2 1 3 3 4 5 5 6 6 7 7 11 8 8 9 10 10 9 11 12 12 14 13
REMARK SMILES IDX 13 14
REMARK H PARENT
REMARK Flexibility Score: inf
ROOT
ATOM      1  C   UNL     1       5.339   2.975   0.105  1.00  0.00     0.080 C 
ENDROOT
BRANCH   1   2
ATOM      2  C   UNL     1       6.319   3.902   0.737  1.00  0.00     0.130 C 
ATOM      3  C   UNL     1       6.668   3.804   2.180  1.00  0.00     0.087 C 
ATOM      4  O   UNL     1       6.867   4.775   0.084  1.00  0.00    -0.300 OA
ENDBRANCH   1   2
BRANCH   1   5
ATOM      5  C   UNL     1       5.209   1.688   0.896  1.00  0.00     0.043 C 
BRANCH   5   6
ATOM      6  C   UNL     1       6.016   0.603   0.310  1.00  0.00    -0.044 A 
ATOM      7  C   UNL     1       6.354   0.592  -1.048  1.00  0.00     0.008 A 
ATOM      8  C   UNL     1       6.455  -0.429   1.109  1.00  0.00     0.054 A 
ATOM      9  C   UNL     1       7.114  -0.453  -1.542  1.00  0.00     0.051 A 
ATOM     10  C   UNL     1       7.224  -1.482   0.605  1.00  0.00     0.166 A 
ATOM     11  C   UNL     1       7.556  -1.494  -0.732  1.00  0.00     0.165 A 
ATOM     12  O   UNL     1       7.772  -2.606   1.184  1.00  0.00    -0.454 OA
ATOM     13  O   UNL     1       8.310  -2.637  -0.947  1.00  0.00    -0.454 OA
ATOM     14  C   UNL     1       8.548  -3.324   0.259  1.00  0.00     0.468 C 
ENDBRANCH   5   6
ENDBRANCH   1   5
TORSDOF 3
ENDMDL
