@<TRIPOS>MOLECULE
/home/cewinharhar/GITHUB/reincatalyze/data/processed/docking_pred/2023-May-22-1531_sub9_nm5_bs15_s42_ex16_mel10_mts1000_k50_ec02_g099_lra9e-4_lrc1e-3/f411d25023d78b520541a26d40866fe70d26d332_ligand_9.pdbqt
 14 15 0 0 0
SMALL
GASTEIGER

@<TRIPOS>ATOM
      1  C          5.3390    2.9750    0.1050 C.3     1  UNL1        0.0800
      2  C          6.3190    3.9020    0.7370 C.2     1  UNL1        0.1300
      3  C          6.6680    3.8040    2.1800 C.3     1  UNL1        0.0870
      4  O          6.8670    4.7750    0.0840 O.2     1  UNL1       -0.3000
      5  C          5.2090    1.6880    0.8960 C.3     1  UNL1        0.0430
      6  C          6.0160    0.6030    0.3100 C.2     1  UNL1       -0.0440
      7  C          6.3540    0.5920   -1.0480 C.2     1  UNL1        0.0080
      8  C          6.4550   -0.4290    1.1090 C.2     1  UNL1        0.0540
      9  C          7.1140   -0.4530   -1.5420 C.2     1  UNL1        0.0510
     10  C          7.2240   -1.4820    0.6050 C.2     1  UNL1        0.1660
     11  C          7.5560   -1.4940   -0.7320 C.2     1  UNL1        0.1650
     12  O          7.7720   -2.6060    1.1840 O.2     1  UNL1       -0.4540
     13  O          8.3100   -2.6370   -0.9470 O.2     1  UNL1       -0.4540
     14  C          8.5480   -3.3240    0.2590 C.3     1  UNL1        0.4680
@<TRIPOS>BOND
     1     9     7    1
     2     9    11    2
     3     7     6    2
     4    13    11    1
     5    13    14    1
     6    11    10    1
     7     4     2    2
     8     1     2    1
     9     1     5    1
    10    14    12    1
    11     6     5    1
    12     6     8    1
    13    10     8    2
    14    10    12    1
    15     2     3    1
