@<TRIPOS>MOLECULE
/home/cewinharhar/GITHUB/reincatalyze/data/processed/docking_pred/2023-May-22-1531_sub9_nm5_bs15_s42_ex16_mel10_mts1000_k50_ec02_g099_lra9e-4_lrc1e-3/f56adf6440abdf94ed5aca5eaefea0329b307251_ligand_9.pdbqt
 14 15 0 0 0
SMALL
GASTEIGER

@<TRIPOS>ATOM
      1  C          5.3940    2.9440    0.2320 C.3     1  UNL1        0.0800
      2  C          6.2890    3.8500    1.0050 C.2     1  UNL1        0.1300
      3  C          7.2370    4.7750    0.3290 C.3     1  UNL1        0.0870
      4  O          6.2690    3.8580    2.2250 O.2     1  UNL1       -0.3000
      5  C          5.1980    1.6220    0.9480 C.3     1  UNL1        0.0430
      6  C          6.0050    0.5480    0.3430 C.2     1  UNL1       -0.0440
      7  C          6.3540    0.5670   -1.0130 C.2     1  UNL1        0.0080
      8  C          6.4340   -0.5040    1.1210 C.2     1  UNL1        0.0540
      9  C          7.1140   -0.4680   -1.5250 C.2     1  UNL1        0.0510
     10  C          7.2030   -1.5480    0.5980 C.2     1  UNL1        0.1660
     11  C          7.5460   -1.5300   -0.7360 C.2     1  UNL1        0.1650
     12  O          7.7430   -2.6880    1.1550 O.2     1  UNL1       -0.4540
     13  O          8.2970   -2.6710   -0.9720 O.2     1  UNL1       -0.4540
     14  C          8.5230   -3.3860    0.2190 C.3     1  UNL1        0.4680
@<TRIPOS>BOND
     1     9     7    1
     2     9    11    2
     3     7     6    2
     4    13    11    1
     5    13    14    1
     6    11    10    1
     7    14    12    1
     8     1     5    1
     9     1     2    1
    10     3     2    1
    11     6     5    1
    12     6     8    1
    13    10     8    2
    14    10    12    1
    15     2     4    2
