@<TRIPOS>MOLECULE
/home/cewinharhar/GITHUB/reincatalyze/data/processed/docking_pred/2023-May-22-1531_sub9_nm5_bs15_s42_ex16_mel10_mts1000_k50_ec02_g099_lra9e-4_lrc1e-3/f56adf6440abdf94ed5aca5eaefea0329b307251_ligand_9.pdbqt
 14 15 0 0 0
SMALL
GASTEIGER

@<TRIPOS>ATOM
      1  C          5.5080    1.9250    1.2650 C.3     1  UNL1        0.0800
      2  C          5.0600    0.7090    1.9990 C.2     1  UNL1        0.1300
      3  C          5.9410   -0.4800    2.1520 C.3     1  UNL1        0.0870
      4  O          3.9490    0.6530    2.5000 O.2     1  UNL1       -0.3000
      5  C          5.3860    1.7380   -0.2350 C.3     1  UNL1        0.0430
      6  C          6.5550    1.0370   -0.7950 C.2     1  UNL1       -0.0440
      7  C          7.8610    1.4710   -0.5410 C.2     1  UNL1        0.0080
      8  C          6.3700   -0.0750   -1.5850 C.2     1  UNL1        0.0540
      9  C          8.9200    0.7730   -1.0930 C.2     1  UNL1        0.0510
     10  C          7.4430   -0.7780   -2.1400 C.2     1  UNL1        0.1660
     11  C          8.7290   -0.3500   -1.8930 C.2     1  UNL1        0.1650
     12  O          7.5190   -1.8930   -2.9470 O.2     1  UNL1       -0.4540
     13  O          9.5760   -1.2220   -2.5580 O.2     1  UNL1       -0.4540
     14  C          8.8550   -2.2680   -3.1650 C.3     1  UNL1        0.4680
@<TRIPOS>BOND
     1    14    12    1
     2    14    13    1
     3    12    10    1
     4    13    11    1
     5    10    11    2
     6    10     8    1
     7    11     9    1
     8     8     6    2
     9     9     7    2
    10     6     7    1
    11     6     5    1
    12     5     1    1
    13     1     2    1
    14     2     3    1
    15     2     4    2
