MODEL 1
REMARK VINA RESULT:      -7.9      0.000      0.000
REMARK SMILES CC(=O)CCc1ccc2c(c1)OCO2
REMARK SMILES IDX 4 1 2 2 1 3 3 4 5 5 6 6 7 7 11 8 8 9 10 10 9 11 12 12 14 13
REMARK SMILES IDX 13 14
REMARK H PARENT
REMARK Flexibility Score: inf
ROOT
ATOM      1  C   UNL     1       5.448   2.904   0.090  1.00  0.00     0.080 C 
ENDROOT
BRANCH   1   2
ATOM      2  C   UNL     1       6.271   3.816   0.934  1.00  0.00     0.130 C 
ATOM      3  C   UNL     1       7.237   4.775   0.334  1.00  0.00     0.087 C 
ATOM      4  O   UNL     1       6.175   3.800   2.150  1.00  0.00    -0.300 OA
ENDBRANCH   1   2
BRANCH   1   5
ATOM      5  C   UNL     1       5.159   1.601   0.808  1.00  0.00     0.043 C 
BRANCH   5   6
ATOM      6  C   UNL     1       5.986   0.496   0.290  1.00  0.00    -0.044 A 
ATOM      7  C   UNL     1       6.289  -0.623   1.073  1.00  0.00     0.008 A 
ATOM      8  C   UNL     1       6.476   0.556  -0.995  1.00  0.00     0.054 A 
ATOM      9  C   UNL     1       7.069  -1.629   0.533  1.00  0.00     0.051 A 
ATOM     10  C   UNL     1       7.263  -0.465  -1.537  1.00  0.00     0.166 A 
ATOM     11  C   UNL     1       7.562  -1.566  -0.766  1.00  0.00     0.165 A 
ATOM     12  O   UNL     1       7.861  -0.638  -2.768  1.00  0.00    -0.454 OA
ATOM     13  O   UNL     1       8.345  -2.402  -1.548  1.00  0.00    -0.454 OA
ATOM     14  C   UNL     1       8.483  -1.894  -2.854  1.00  0.00     0.468 C 
ENDBRANCH   5   6
ENDBRANCH   1   5
TORSDOF 3
ENDMDL
MODEL 2
REMARK VINA RESULT:      -7.8      0.987      1.972
REMARK SMILES CC(=O)CCc1ccc2c(c1)OCO2
REMARK SMILES IDX 4 1 2 2 1 3 3 4 5 5 6 6 7 7 11 8 8 9 10 10 9 11 12 12 14 13
REMARK SMILES IDX 13 14
REMARK H PARENT
REMARK Flexibility Score: inf
ROOT
ATOM      1  C   UNL     1       5.394   2.944   0.232  1.00  0.00     0.080 C 
ENDROOT
BRANCH   1   2
ATOM      2  C   UNL     1       6.289   3.850   1.005  1.00  0.00     0.130 C 
ATOM      3  C   UNL     1       7.237   4.775   0.329  1.00  0.00     0.087 C 
ATOM      4  O   UNL     1       6.269   3.858   2.225  1.00  0.00    -0.300 OA
ENDBRANCH   1   2
BRANCH   1   5
ATOM      5  C   UNL     1       5.198   1.622   0.948  1.00  0.00     0.043 C 
BRANCH   5   6
ATOM      6  C   UNL     1       6.005   0.548   0.343  1.00  0.00    -0.044 A 
ATOM      7  C   UNL     1       6.354   0.567  -1.013  1.00  0.00     0.008 A 
ATOM      8  C   UNL     1       6.434  -0.504   1.121  1.00  0.00     0.054 A 
ATOM      9  C   UNL     1       7.114  -0.468  -1.525  1.00  0.00     0.051 A 
ATOM     10  C   UNL     1       7.203  -1.548   0.598  1.00  0.00     0.166 A 
ATOM     11  C   UNL     1       7.546  -1.530  -0.736  1.00  0.00     0.165 A 
ATOM     12  O   UNL     1       7.743  -2.688   1.155  1.00  0.00    -0.454 OA
ATOM     13  O   UNL     1       8.297  -2.671  -0.972  1.00  0.00    -0.454 OA
ATOM     14  C   UNL     1       8.523  -3.386   0.219  1.00  0.00     0.468 C 
ENDBRANCH   5   6
ENDBRANCH   1   5
TORSDOF 3
ENDMDL
MODEL 3
REMARK VINA RESULT:      -7.7      1.885      2.643
REMARK SMILES CC(=O)CCc1ccc2c(c1)OCO2
REMARK SMILES IDX 4 1 2 2 1 3 3 4 5 5 6 6 7 7 11 8 8 9 10 10 9 11 12 12 14 13
REMARK SMILES IDX 13 14
REMARK H PARENT
REMARK Flexibility Score: inf
ROOT
ATOM      1  C   UNL     1       5.508   1.925   1.265  1.00  0.00     0.080 C 
ENDROOT
BRANCH   1   2
ATOM      2  C   UNL     1       5.060   0.709   1.999  1.00  0.00     0.130 C 
ATOM      3  C   UNL     1       5.941  -0.480   2.152  1.00  0.00     0.087 C 
ATOM      4  O   UNL     1       3.949   0.653   2.500  1.00  0.00    -0.300 OA
ENDBRANCH   1   2
BRANCH   1   5
ATOM      5  C   UNL     1       5.386   1.738  -0.235  1.00  0.00     0.043 C 
BRANCH   5   6
ATOM      6  C   UNL     1       6.555   1.037  -0.795  1.00  0.00    -0.044 A 
ATOM      7  C   UNL     1       7.861   1.471  -0.541  1.00  0.00     0.008 A 
ATOM      8  C   UNL     1       6.370  -0.075  -1.585  1.00  0.00     0.054 A 
ATOM      9  C   UNL     1       8.920   0.773  -1.093  1.00  0.00     0.051 A 
ATOM     10  C   UNL     1       7.443  -0.778  -2.140  1.00  0.00     0.166 A 
ATOM     11  C   UNL     1       8.729  -0.350  -1.893  1.00  0.00     0.165 A 
ATOM     12  O   UNL     1       7.519  -1.893  -2.947  1.00  0.00    -0.454 OA
ATOM     13  O   UNL     1       9.576  -1.222  -2.558  1.00  0.00    -0.454 OA
ATOM     14  C   UNL     1       8.855  -2.268  -3.165  1.00  0.00     0.468 C 
ENDBRANCH   5   6
ENDBRANCH   1   5
TORSDOF 3
ENDMDL
