MODEL 1
REMARK VINA RESULT:      -7.6      0.000      0.000
REMARK SMILES CC(=O)CCc1ccc2c(c1)OCO2
REMARK SMILES IDX 4 1 2 2 1 3 3 4 5 5 6 6 7 7 11 8 8 9 10 10 9 11 12 12 14 13
REMARK SMILES IDX 13 14
REMARK H PARENT
REMARK Flexibility Score: inf
ROOT
ATOM      1  C   UNL     1       5.554   1.913   1.282  1.00  0.00     0.080 C 
ENDROOT
BRANCH   1   2
ATOM      2  C   UNL     1       5.123   0.694   2.022  1.00  0.00     0.130 C 
ATOM      3  C   UNL     1       6.027  -0.473   2.199  1.00  0.00     0.087 C 
ATOM      4  O   UNL     1       4.005   0.618   2.507  1.00  0.00    -0.300 OA
ENDBRANCH   1   2
BRANCH   1   5
ATOM      5  C   UNL     1       5.419   1.725  -0.216  1.00  0.00     0.043 C 
BRANCH   5   6
ATOM      6  C   UNL     1       6.583   1.023  -0.786  1.00  0.00    -0.044 A 
ATOM      7  C   UNL     1       7.892   1.453  -0.537  1.00  0.00     0.008 A 
ATOM      8  C   UNL     1       6.391  -0.083  -1.581  1.00  0.00     0.054 A 
ATOM      9  C   UNL     1       8.945   0.755  -1.098  1.00  0.00     0.051 A 
ATOM     10  C   UNL     1       7.459  -0.786  -2.145  1.00  0.00     0.166 A 
ATOM     11  C   UNL     1       8.747  -0.363  -1.902  1.00  0.00     0.165 A 
ATOM     12  O   UNL     1       7.528  -1.898  -2.958  1.00  0.00    -0.454 OA
ATOM     13  O   UNL     1       9.589  -1.234  -2.577  1.00  0.00    -0.454 OA
ATOM     14  C   UNL     1       8.862  -2.275  -3.185  1.00  0.00     0.468 C 
ENDBRANCH   5   6
ENDBRANCH   1   5
TORSDOF 3
ENDMDL
MODEL 2
REMARK VINA RESULT:      -7.4      1.937      2.436
REMARK SMILES CC(=O)CCc1ccc2c(c1)OCO2
REMARK SMILES IDX 4 1 2 2 1 3 3 4 5 5 6 6 7 7 11 8 8 9 10 10 9 11 12 12 14 13
REMARK SMILES IDX 13 14
REMARK H PARENT
REMARK Flexibility Score: inf
ROOT
ATOM      1  C   UNL     1       5.760   1.347  -0.369  1.00  0.00     0.080 C 
ENDROOT
BRANCH   1   2
ATOM      2  C   UNL     1       5.134   1.312   0.982  1.00  0.00     0.130 C 
ATOM      3  C   UNL     1       5.386   0.195   1.931  1.00  0.00     0.087 C 
ATOM      4  O   UNL     1       4.390   2.206   1.351  1.00  0.00    -0.300 OA
ENDBRANCH   1   2
BRANCH   1   5
ATOM      5  C   UNL     1       7.249   1.070  -0.293  1.00  0.00     0.043 C 
BRANCH   5   6
ATOM      6  C   UNL     1       7.594  -0.230  -0.896  1.00  0.00    -0.044 A 
ATOM      7  C   UNL     1       7.606  -0.414  -2.283  1.00  0.00     0.008 A 
ATOM      8  C   UNL     1       7.916  -1.294  -0.085  1.00  0.00     0.054 A 
ATOM      9  C   UNL     1       7.939  -1.656  -2.792  1.00  0.00     0.051 A 
ATOM     10  C   UNL     1       8.253  -2.547  -0.604  1.00  0.00     0.166 A 
ATOM     11  C   UNL     1       8.264  -2.730  -1.969  1.00  0.00     0.165 A 
ATOM     12  O   UNL     1       8.605  -3.744  -0.017  1.00  0.00    -0.454 OA
ATOM     13  O   UNL     1       8.628  -4.048  -2.194  1.00  0.00    -0.454 OA
ATOM     14  C   UNL     1       8.941  -4.702  -0.988  1.00  0.00     0.468 C 
ENDBRANCH   5   6
ENDBRANCH   1   5
TORSDOF 3
ENDMDL
MODEL 3
REMARK VINA RESULT:      -7.1      2.043      2.625
REMARK SMILES CC(=O)CCc1ccc2c(c1)OCO2
REMARK SMILES IDX 4 1 2 2 1 3 3 4 5 5 6 6 7 7 11 8 8 9 10 10 9 11 12 12 14 13
REMARK SMILES IDX 13 14
REMARK H PARENT
REMARK Flexibility Score: inf
ROOT
ATOM      1  C   UNL     1       5.918   2.534   1.470  1.00  0.00     0.080 C 
ENDROOT
BRANCH   1   2
ATOM      2  C   UNL     1       6.454   3.900   1.213  1.00  0.00     0.130 C 
ATOM      3  C   UNL     1       6.947   4.765   2.318  1.00  0.00     0.087 C 
ATOM      4  O   UNL     1       6.502   4.351   0.080  1.00  0.00    -0.300 OA
ENDBRANCH   1   2
BRANCH   1   5
ATOM      5  C   UNL     1       5.411   1.893   0.193  1.00  0.00     0.043 C 
BRANCH   5   6
ATOM      6  C   UNL     1       6.174   0.680  -0.150  1.00  0.00    -0.044 A 
ATOM      7  C   UNL     1       6.384  -0.343   0.782  1.00  0.00     0.008 A 
ATOM      8  C   UNL     1       6.696   0.537  -1.416  1.00  0.00     0.054 A 
ATOM      9  C   UNL     1       7.108  -1.459   0.403  1.00  0.00     0.051 A 
ATOM     10  C   UNL     1       7.426  -0.593  -1.795  1.00  0.00     0.166 A 
ATOM     11  C   UNL     1       7.634  -1.599  -0.878  1.00  0.00     0.165 A 
ATOM     12  O   UNL     1       8.038  -0.965  -2.973  1.00  0.00    -0.454 OA
ATOM     13  O   UNL     1       8.376  -2.578  -1.518  1.00  0.00    -0.454 OA
ATOM     14  C   UNL     1       8.577  -2.258  -2.874  1.00  0.00     0.468 C 
ENDBRANCH   5   6
ENDBRANCH   1   5
TORSDOF 3
ENDMDL
