@<TRIPOS>MOLECULE
/home/cewinharhar/GITHUB/reincatalyze/data/processed/docking_pred/2023-May-22-1531_sub9_nm5_bs15_s42_ex16_mel10_mts1000_k50_ec02_g099_lra9e-4_lrc1e-3/f74925e0f2dbd9eb14447f51d5c862455f02ecd6_ligand_9.pdbqt
 14 15 0 0 0
SMALL
GASTEIGER

@<TRIPOS>ATOM
      1  C          5.7600    1.3470   -0.3690 C.3     1  UNL1        0.0800
      2  C          5.1340    1.3120    0.9820 C.2     1  UNL1        0.1300
      3  C          5.3860    0.1950    1.9310 C.3     1  UNL1        0.0870
      4  O          4.3900    2.2060    1.3510 O.2     1  UNL1       -0.3000
      5  C          7.2490    1.0700   -0.2930 C.3     1  UNL1        0.0430
      6  C          7.5940   -0.2300   -0.8960 C.2     1  UNL1       -0.0440
      7  C          7.6060   -0.4140   -2.2830 C.2     1  UNL1        0.0080
      8  C          7.9160   -1.2940   -0.0850 C.2     1  UNL1        0.0540
      9  C          7.9390   -1.6560   -2.7920 C.2     1  UNL1        0.0510
     10  C          8.2530   -2.5470   -0.6040 C.2     1  UNL1        0.1660
     11  C          8.2640   -2.7300   -1.9690 C.2     1  UNL1        0.1650
     12  O          8.6050   -3.7440   -0.0170 O.2     1  UNL1       -0.4540
     13  O          8.6280   -4.0480   -2.1940 O.2     1  UNL1       -0.4540
     14  C          8.9410   -4.7020   -0.9880 C.3     1  UNL1        0.4680
@<TRIPOS>BOND
     1     9     7    1
     2     9    11    2
     3     7     6    2
     4    13    11    1
     5    13    14    1
     6    11    10    1
     7    14    12    1
     8     6     5    1
     9     6     8    1
    10    10     8    2
    11    10    12    1
    12     1     5    1
    13     1     2    1
    14     2     4    2
    15     2     3    1
