@<TRIPOS>MOLECULE
/home/cewinharhar/GITHUB/reincatalyze/data/processed/docking_pred/2023-May-22-1531_sub9_nm5_bs15_s42_ex16_mel10_mts1000_k50_ec02_g099_lra9e-4_lrc1e-3/f74925e0f2dbd9eb14447f51d5c862455f02ecd6_ligand_9.pdbqt
 14 15 0 0 0
SMALL
GASTEIGER

@<TRIPOS>ATOM
      1  C          5.9180    2.5340    1.4700 C.3     1  UNL1        0.0800
      2  C          6.4540    3.9000    1.2130 C.2     1  UNL1        0.1300
      3  C          6.9470    4.7650    2.3180 C.3     1  UNL1        0.0870
      4  O          6.5020    4.3510    0.0800 O.2     1  UNL1       -0.3000
      5  C          5.4110    1.8930    0.1930 C.3     1  UNL1        0.0430
      6  C          6.1740    0.6800   -0.1500 C.2     1  UNL1       -0.0440
      7  C          6.3840   -0.3430    0.7820 C.2     1  UNL1        0.0080
      8  C          6.6960    0.5370   -1.4160 C.2     1  UNL1        0.0540
      9  C          7.1080   -1.4590    0.4030 C.2     1  UNL1        0.0510
     10  C          7.4260   -0.5930   -1.7950 C.2     1  UNL1        0.1660
     11  C          7.6340   -1.5990   -0.8780 C.2     1  UNL1        0.1650
     12  O          8.0380   -0.9650   -2.9730 O.2     1  UNL1       -0.4540
     13  O          8.3760   -2.5780   -1.5180 O.2     1  UNL1       -0.4540
     14  C          8.5770   -2.2580   -2.8740 C.3     1  UNL1        0.4680
@<TRIPOS>BOND
     1    12    14    1
     2    12    10    1
     3    14    13    1
     4    10     8    1
     5    10    11    2
     6    13    11    1
     7     8     6    2
     8    11     9    1
     9     6     5    1
    10     6     7    1
    11     4     2    2
    12     5     1    1
    13     9     7    2
    14     2     1    1
    15     2     3    1
