@<TRIPOS>MOLECULE
/home/cewinharhar/GITHUB/reincatalyze/data/processed/docking_pred/2023-May-22-1531_sub9_nm5_bs15_s42_ex16_mel10_mts1000_k50_ec02_g099_lra9e-4_lrc1e-3/fc1d4194c005f01296b9c57c803e441f6dc40ccd_ligand_9.pdbqt
 14 15 0 0 0
SMALL
GASTEIGER

@<TRIPOS>ATOM
      1  C          5.4410    2.9290    0.0780 C.3     1  UNL1        0.0800
      2  C          6.2980    3.7950    0.9350 C.2     1  UNL1        0.1300
      3  C          7.2530    4.7730    0.3480 C.3     1  UNL1        0.0870
      4  O          6.2410    3.7250    2.1520 O.2     1  UNL1       -0.3000
      5  C          5.1330    1.6110    0.7600 C.3     1  UNL1        0.0430
      6  C          5.9820    0.5200    0.2490 C.2     1  UNL1       -0.0440
      7  C          6.3280   -0.5760    1.0480 C.2     1  UNL1        0.0080
      8  C          6.4500    0.5690   -1.0450 C.2     1  UNL1        0.0540
      9  C          7.1270   -1.5700    0.5140 C.2     1  UNL1        0.0510
     10  C          7.2570   -0.4390   -1.5800 C.2     1  UNL1        0.1660
     11  C          7.5990   -1.5170   -0.7940 C.2     1  UNL1        0.1650
     12  O          7.8410   -0.6190   -2.8160 O.2     1  UNL1       -0.4540
     13  O          8.3920   -2.3460   -1.5730 O.2     1  UNL1       -0.4540
     14  C          8.4960   -1.8590   -2.8890 C.3     1  UNL1        0.4680
@<TRIPOS>BOND
     1    14    12    1
     2    14    13    1
     3    12    10    1
     4    10     8    1
     5    10    11    2
     6    13    11    1
     7     8     6    2
     8    11     9    1
     9     1     5    1
    10     1     2    1
    11     6     5    1
    12     6     7    1
    13     3     2    1
    14     9     7    2
    15     2     4    2
