@<TRIPOS>MOLECULE
/home/cewinharhar/GITHUB/reincatalyze/data/processed/docking_pred/2023-May-22-1531_sub9_nm5_bs15_s42_ex16_mel10_mts1000_k50_ec02_g099_lra9e-4_lrc1e-3/fc1d4194c005f01296b9c57c803e441f6dc40ccd_ligand_9.pdbqt
 14 15 0 0 0
SMALL
GASTEIGER

@<TRIPOS>ATOM
      1  C          5.7660    1.3570   -0.3530 C.3     1  UNL1        0.0800
      2  C          5.1450    1.3140    1.0000 C.2     1  UNL1        0.1300
      3  C          5.4150    0.2000    1.9480 C.3     1  UNL1        0.0870
      4  O          4.3910    2.1990    1.3720 O.2     1  UNL1       -0.3000
      5  C          7.2560    1.0840   -0.2840 C.3     1  UNL1        0.0430
      6  C          7.6010   -0.2150   -0.8890 C.2     1  UNL1       -0.0440
      7  C          7.6190   -0.3960   -2.2770 C.2     1  UNL1        0.0080
      8  C          7.9180   -1.2820   -0.0790 C.2     1  UNL1        0.0540
      9  C          7.9520   -1.6370   -2.7870 C.2     1  UNL1        0.0510
     10  C          8.2540   -2.5350   -0.6000 C.2     1  UNL1        0.1660
     11  C          8.2710   -2.7140   -1.9660 C.2     1  UNL1        0.1650
     12  O          8.6010   -3.7340   -0.0150 O.2     1  UNL1       -0.4540
     13  O          8.6330   -4.0320   -2.1930 O.2     1  UNL1       -0.4540
     14  C          8.9400   -4.6900   -0.9860 C.3     1  UNL1        0.4680
@<TRIPOS>BOND
     1     9     7    1
     2     9    11    2
     3     7     6    2
     4    13    11    1
     5    13    14    1
     6    11    10    1
     7    14    12    1
     8     6     5    1
     9     6     8    1
    10    10     8    2
    11    10    12    1
    12     1     5    1
    13     1     2    1
    14     2     4    2
    15     2     3    1
