MODEL 1
REMARK VINA RESULT:      -8.0      0.000      0.000
REMARK SMILES CC(=O)CCc1ccc2c(c1)OCO2
REMARK SMILES IDX 4 1 2 2 1 3 3 4 5 5 6 6 7 7 11 8 8 9 10 10 9 11 12 12 14 13
REMARK SMILES IDX 13 14
REMARK H PARENT
REMARK Flexibility Score: inf
ROOT
ATOM      1  C   UNL     1       5.441   2.929   0.078  1.00  0.00     0.080 C 
ENDROOT
BRANCH   1   2
ATOM      2  C   UNL     1       6.298   3.795   0.935  1.00  0.00     0.130 C 
ATOM      3  C   UNL     1       7.253   4.773   0.348  1.00  0.00     0.087 C 
ATOM      4  O   UNL     1       6.241   3.725   2.152  1.00  0.00    -0.300 OA
ENDBRANCH   1   2
BRANCH   1   5
ATOM      5  C   UNL     1       5.133   1.611   0.760  1.00  0.00     0.043 C 
BRANCH   5   6
ATOM      6  C   UNL     1       5.982   0.520   0.249  1.00  0.00    -0.044 A 
ATOM      7  C   UNL     1       6.328  -0.576   1.048  1.00  0.00     0.008 A 
ATOM      8  C   UNL     1       6.450   0.569  -1.045  1.00  0.00     0.054 A 
ATOM      9  C   UNL     1       7.127  -1.570   0.514  1.00  0.00     0.051 A 
ATOM     10  C   UNL     1       7.257  -0.439  -1.580  1.00  0.00     0.166 A 
ATOM     11  C   UNL     1       7.599  -1.517  -0.794  1.00  0.00     0.165 A 
ATOM     12  O   UNL     1       7.841  -0.619  -2.816  1.00  0.00    -0.454 OA
ATOM     13  O   UNL     1       8.392  -2.346  -1.573  1.00  0.00    -0.454 OA
ATOM     14  C   UNL     1       8.496  -1.859  -2.889  1.00  0.00     0.468 C 
ENDBRANCH   5   6
ENDBRANCH   1   5
TORSDOF 3
ENDMDL
MODEL 2
REMARK VINA RESULT:      -7.7      1.881      2.613
REMARK SMILES CC(=O)CCc1ccc2c(c1)OCO2
REMARK SMILES IDX 4 1 2 2 1 3 3 4 5 5 6 6 7 7 11 8 8 9 10 10 9 11 12 12 14 13
REMARK SMILES IDX 13 14
REMARK H PARENT
REMARK Flexibility Score: inf
ROOT
ATOM      1  C   UNL     1       5.506   1.924   1.256  1.00  0.00     0.080 C 
ENDROOT
BRANCH   1   2
ATOM      2  C   UNL     1       5.065   0.710   1.998  1.00  0.00     0.130 C 
ATOM      3  C   UNL     1       5.953  -0.473   2.159  1.00  0.00     0.087 C 
ATOM      4  O   UNL     1       3.953   0.651   2.499  1.00  0.00    -0.300 OA
ENDBRANCH   1   2
BRANCH   1   5
ATOM      5  C   UNL     1       5.384   1.728  -0.242  1.00  0.00     0.043 C 
BRANCH   5   6
ATOM      6  C   UNL     1       6.554   1.026  -0.798  1.00  0.00    -0.044 A 
ATOM      7  C   UNL     1       7.860   1.459  -0.541  1.00  0.00     0.008 A 
ATOM      8  C   UNL     1       6.371  -0.086  -1.589  1.00  0.00     0.054 A 
ATOM      9  C   UNL     1       8.920   0.760  -1.090  1.00  0.00     0.051 A 
ATOM     10  C   UNL     1       7.445  -0.790  -2.141  1.00  0.00     0.166 A 
ATOM     11  C   UNL     1       8.730  -0.363  -1.889  1.00  0.00     0.165 A 
ATOM     12  O   UNL     1       7.523  -1.906  -2.947  1.00  0.00    -0.454 OA
ATOM     13  O   UNL     1       9.579  -1.236  -2.552  1.00  0.00    -0.454 OA
ATOM     14  C   UNL     1       8.859  -2.281  -3.160  1.00  0.00     0.468 C 
ENDBRANCH   5   6
ENDBRANCH   1   5
TORSDOF 3
ENDMDL
MODEL 3
REMARK VINA RESULT:      -7.5      1.969      3.018
REMARK SMILES CC(=O)CCc1ccc2c(c1)OCO2
REMARK SMILES IDX 4 1 2 2 1 3 3 4 5 5 6 6 7 7 11 8 8 9 10 10 9 11 12 12 14 13
REMARK SMILES IDX 13 14
REMARK H PARENT
REMARK Flexibility Score: inf
ROOT
ATOM      1  C   UNL     1       5.766   1.357  -0.353  1.00  0.00     0.080 C 
ENDROOT
BRANCH   1   2
ATOM      2  C   UNL     1       5.145   1.314   1.000  1.00  0.00     0.130 C 
ATOM      3  C   UNL     1       5.415   0.200   1.948  1.00  0.00     0.087 C 
ATOM      4  O   UNL     1       4.391   2.199   1.372  1.00  0.00    -0.300 OA
ENDBRANCH   1   2
BRANCH   1   5
ATOM      5  C   UNL     1       7.256   1.084  -0.284  1.00  0.00     0.043 C 
BRANCH   5   6
ATOM      6  C   UNL     1       7.601  -0.215  -0.889  1.00  0.00    -0.044 A 
ATOM      7  C   UNL     1       7.619  -0.396  -2.277  1.00  0.00     0.008 A 
ATOM      8  C   UNL     1       7.918  -1.282  -0.079  1.00  0.00     0.054 A 
ATOM      9  C   UNL     1       7.952  -1.637  -2.787  1.00  0.00     0.051 A 
ATOM     10  C   UNL     1       8.254  -2.535  -0.600  1.00  0.00     0.166 A 
ATOM     11  C   UNL     1       8.271  -2.714  -1.966  1.00  0.00     0.165 A 
ATOM     12  O   UNL     1       8.601  -3.734  -0.015  1.00  0.00    -0.454 OA
ATOM     13  O   UNL     1       8.633  -4.032  -2.193  1.00  0.00    -0.454 OA
ATOM     14  C   UNL     1       8.940  -4.690  -0.986  1.00  0.00     0.468 C 
ENDBRANCH   5   6
ENDBRANCH   1   5
TORSDOF 3
ENDMDL
