MODEL 1
REMARK VINA RESULT:      -7.9      0.000      0.000
REMARK SMILES CC(=O)CCc1ccc2c(c1)OCO2
REMARK SMILES IDX 4 1 2 2 1 3 3 4 5 5 6 6 7 7 11 8 8 9 10 10 9 11 12 12 14 13
REMARK SMILES IDX 13 14
REMARK H PARENT
REMARK Flexibility Score: inf
ROOT
ATOM      1  C   UNL     1       5.391   2.974   0.148  1.00  0.00     0.080 C 
ENDROOT
BRANCH   1   2
ATOM      2  C   UNL     1       6.212   3.885   0.993  1.00  0.00     0.130 C 
ATOM      3  C   UNL     1       7.248   4.775   0.402  1.00  0.00     0.087 C 
ATOM      4  O   UNL     1       6.058   3.928   2.202  1.00  0.00    -0.300 OA
ENDBRANCH   1   2
BRANCH   1   5
ATOM      5  C   UNL     1       5.128   1.658   0.853  1.00  0.00     0.043 C 
BRANCH   5   6
ATOM      6  C   UNL     1       5.965   0.572   0.314  1.00  0.00    -0.044 A 
ATOM      7  C   UNL     1       6.312  -0.540   1.090  1.00  0.00     0.008 A 
ATOM      8  C   UNL     1       6.421   0.642  -0.983  1.00  0.00     0.054 A 
ATOM      9  C   UNL     1       7.101  -1.529   0.530  1.00  0.00     0.051 A 
ATOM     10  C   UNL     1       7.217  -0.361  -1.544  1.00  0.00     0.166 A 
ATOM     11  C   UNL     1       7.560  -1.455  -0.781  1.00  0.00     0.165 A 
ATOM     12  O   UNL     1       7.787  -0.521  -2.789  1.00  0.00    -0.454 OA
ATOM     13  O   UNL     1       8.341  -2.273  -1.582  1.00  0.00    -0.454 OA
ATOM     14  C   UNL     1       8.435  -1.764  -2.891  1.00  0.00     0.468 C 
ENDBRANCH   5   6
ENDBRANCH   1   5
TORSDOF 3
ENDMDL
MODEL 2
REMARK VINA RESULT:      -7.7      1.038      2.017
REMARK SMILES CC(=O)CCc1ccc2c(c1)OCO2
REMARK SMILES IDX 4 1 2 2 1 3 3 4 5 5 6 6 7 7 11 8 8 9 10 10 9 11 12 12 14 13
REMARK SMILES IDX 13 14
REMARK H PARENT
REMARK Flexibility Score: inf
ROOT
ATOM      1  C   UNL     1       5.457   2.897   0.287  1.00  0.00     0.080 C 
ENDROOT
BRANCH   1   2
ATOM      2  C   UNL     1       6.375   3.754   1.088  1.00  0.00     0.130 C 
ATOM      3  C   UNL     1       7.246   4.775   0.448  1.00  0.00     0.087 C 
ATOM      4  O   UNL     1       6.439   3.641   2.301  1.00  0.00    -0.300 OA
ENDBRANCH   1   2
BRANCH   1   5
ATOM      5  C   UNL     1       5.224   1.559   0.962  1.00  0.00     0.043 C 
BRANCH   5   6
ATOM      6  C   UNL     1       6.045   0.494   0.360  1.00  0.00    -0.044 A 
ATOM      7  C   UNL     1       6.399   0.517  -0.994  1.00  0.00     0.008 A 
ATOM      8  C   UNL     1       6.482  -0.553   1.139  1.00  0.00     0.054 A 
ATOM      9  C   UNL     1       7.173  -0.510  -1.503  1.00  0.00     0.051 A 
ATOM     10  C   UNL     1       7.264  -1.589   0.620  1.00  0.00     0.166 A 
ATOM     11  C   UNL     1       7.612  -1.567  -0.712  1.00  0.00     0.165 A 
ATOM     12  O   UNL     1       7.814  -2.723   1.179  1.00  0.00    -0.454 OA
ATOM     13  O   UNL     1       8.377  -2.700  -0.946  1.00  0.00    -0.454 OA
ATOM     14  C   UNL     1       8.605  -3.413   0.246  1.00  0.00     0.468 C 
ENDBRANCH   5   6
ENDBRANCH   1   5
TORSDOF 3
ENDMDL
MODEL 3
REMARK VINA RESULT:      -7.6      1.892      2.635
REMARK SMILES CC(=O)CCc1ccc2c(c1)OCO2
REMARK SMILES IDX 4 1 2 2 1 3 3 4 5 5 6 6 7 7 11 8 8 9 10 10 9 11 12 12 14 13
REMARK SMILES IDX 13 14
REMARK H PARENT
REMARK Flexibility Score: inf
ROOT
ATOM      1  C   UNL     1       5.543   1.918   1.270  1.00  0.00     0.080 C 
ENDROOT
BRANCH   1   2
ATOM      2  C   UNL     1       5.110   0.698   2.006  1.00  0.00     0.130 C 
ATOM      3  C   UNL     1       6.016  -0.467   2.187  1.00  0.00     0.087 C 
ATOM      4  O   UNL     1       3.990   0.619   2.485  1.00  0.00    -0.300 OA
ENDBRANCH   1   2
BRANCH   1   5
ATOM      5  C   UNL     1       5.414   1.731  -0.229  1.00  0.00     0.043 C 
BRANCH   5   6
ATOM      6  C   UNL     1       6.579   1.027  -0.794  1.00  0.00    -0.044 A 
ATOM      7  C   UNL     1       7.887   1.457  -0.543  1.00  0.00     0.008 A 
ATOM      8  C   UNL     1       6.388  -0.082  -1.586  1.00  0.00     0.054 A 
ATOM      9  C   UNL     1       8.942   0.756  -1.100  1.00  0.00     0.051 A 
ATOM     10  C   UNL     1       7.457  -0.788  -2.145  1.00  0.00     0.166 A 
ATOM     11  C   UNL     1       8.745  -0.365  -1.901  1.00  0.00     0.165 A 
ATOM     12  O   UNL     1       7.527  -1.902  -2.954  1.00  0.00    -0.454 OA
ATOM     13  O   UNL     1       9.587  -1.239  -2.570  1.00  0.00    -0.454 OA
ATOM     14  C   UNL     1       8.861  -2.281  -3.177  1.00  0.00     0.468 C 
ENDBRANCH   5   6
ENDBRANCH   1   5
TORSDOF 3
ENDMDL
