@<TRIPOS>MOLECULE
/home/cewinharhar/GITHUB/reincatalyze/data/processed/docking_pred/2023-May-22-1531_sub9_nm5_bs15_s42_ex16_mel10_mts1000_k50_ec02_g099_lra9e-4_lrc1e-3/fd0126b23dad862f417327e64da043fff24e40de_ligand_9.pdbqt
 14 15 0 0 0
SMALL
GASTEIGER

@<TRIPOS>ATOM
      1  C          5.5430    1.9180    1.2700 C.3     1  UNL1        0.0800
      2  C          5.1100    0.6980    2.0060 C.2     1  UNL1        0.1300
      3  C          6.0160   -0.4670    2.1870 C.3     1  UNL1        0.0870
      4  O          3.9900    0.6190    2.4850 O.2     1  UNL1       -0.3000
      5  C          5.4140    1.7310   -0.2290 C.3     1  UNL1        0.0430
      6  C          6.5790    1.0270   -0.7940 C.2     1  UNL1       -0.0440
      7  C          7.8870    1.4570   -0.5430 C.2     1  UNL1        0.0080
      8  C          6.3880   -0.0820   -1.5860 C.2     1  UNL1        0.0540
      9  C          8.9420    0.7560   -1.1000 C.2     1  UNL1        0.0510
     10  C          7.4570   -0.7880   -2.1450 C.2     1  UNL1        0.1660
     11  C          8.7450   -0.3650   -1.9010 C.2     1  UNL1        0.1650
     12  O          7.5270   -1.9020   -2.9540 O.2     1  UNL1       -0.4540
     13  O          9.5870   -1.2390   -2.5700 O.2     1  UNL1       -0.4540
     14  C          8.8610   -2.2810   -3.1770 C.3     1  UNL1        0.4680
@<TRIPOS>BOND
     1    14    12    1
     2    14    13    1
     3    12    10    1
     4    13    11    1
     5    10    11    2
     6    10     8    1
     7    11     9    1
     8     8     6    2
     9     9     7    2
    10     6     7    1
    11     6     5    1
    12     5     1    1
    13     1     2    1
    14     2     3    1
    15     2     4    2
