@<TRIPOS>MOLECULE
/home/cewinharhar/GITHUB/reincatalyze/data/processed/docking_pred/2023-May-22-1531_sub9_nm5_bs15_s42_ex16_mel10_mts1000_k50_ec02_g099_lra9e-4_lrc1e-3/fd0126b23dad862f417327e64da043fff24e40de_ligand_9.pdbqt
 14 15 0 0 0
SMALL
GASTEIGER

@<TRIPOS>ATOM
      1  C          5.4570    2.8970    0.2870 C.3     1  UNL1        0.0800
      2  C          6.3750    3.7540    1.0880 C.2     1  UNL1        0.1300
      3  C          7.2460    4.7750    0.4480 C.3     1  UNL1        0.0870
      4  O          6.4390    3.6410    2.3010 O.2     1  UNL1       -0.3000
      5  C          5.2240    1.5590    0.9620 C.3     1  UNL1        0.0430
      6  C          6.0450    0.4940    0.3600 C.2     1  UNL1       -0.0440
      7  C          6.3990    0.5170   -0.9940 C.2     1  UNL1        0.0080
      8  C          6.4820   -0.5530    1.1390 C.2     1  UNL1        0.0540
      9  C          7.1730   -0.5100   -1.5030 C.2     1  UNL1        0.0510
     10  C          7.2640   -1.5890    0.6200 C.2     1  UNL1        0.1660
     11  C          7.6120   -1.5670   -0.7120 C.2     1  UNL1        0.1650
     12  O          7.8140   -2.7230    1.1790 O.2     1  UNL1       -0.4540
     13  O          8.3770   -2.7000   -0.9460 O.2     1  UNL1       -0.4540
     14  C          8.6050   -3.4130    0.2460 C.3     1  UNL1        0.4680
@<TRIPOS>BOND
     1     9     7    1
     2     9    11    2
     3     7     6    2
     4    13    11    1
     5    13    14    1
     6    11    10    1
     7    14    12    1
     8     1     5    1
     9     1     2    1
    10     6     5    1
    11     6     8    1
    12     3     2    1
    13    10     8    2
    14    10    12    1
    15     2     4    2
