@<TRIPOS>MOLECULE
/home/cewinharhar/GITHUB/reincatalyze/data/processed/docking_pred/2023-May-22-1531_sub9_nm5_bs15_s42_ex16_mel10_mts1000_k50_ec02_g099_lra9e-4_lrc1e-3/fd0126b23dad862f417327e64da043fff24e40de_ligand_9.pdbqt
 14 15 0 0 0
SMALL
GASTEIGER

@<TRIPOS>ATOM
      1  C          5.3910    2.9740    0.1480 C.3     1  UNL1        0.0800
      2  C          6.2120    3.8850    0.9930 C.2     1  UNL1        0.1300
      3  C          7.2480    4.7750    0.4020 C.3     1  UNL1        0.0870
      4  O          6.0580    3.9280    2.2020 O.2     1  UNL1       -0.3000
      5  C          5.1280    1.6580    0.8530 C.3     1  UNL1        0.0430
      6  C          5.9650    0.5720    0.3140 C.2     1  UNL1       -0.0440
      7  C          6.3120   -0.5400    1.0900 C.2     1  UNL1        0.0080
      8  C          6.4210    0.6420   -0.9830 C.2     1  UNL1        0.0540
      9  C          7.1010   -1.5290    0.5300 C.2     1  UNL1        0.0510
     10  C          7.2170   -0.3610   -1.5440 C.2     1  UNL1        0.1660
     11  C          7.5600   -1.4550   -0.7810 C.2     1  UNL1        0.1650
     12  O          7.7870   -0.5210   -2.7890 O.2     1  UNL1       -0.4540
     13  O          8.3410   -2.2730   -1.5820 O.2     1  UNL1       -0.4540
     14  C          8.4350   -1.7640   -2.8910 C.3     1  UNL1        0.4680
@<TRIPOS>BOND
     1    14    12    1
     2    14    13    1
     3    12    10    1
     4    13    11    1
     5    10     8    1
     6    10    11    2
     7     8     6    2
     8    11     9    1
     9     1     5    1
    10     1     2    1
    11     6     5    1
    12     6     7    1
    13     3     2    1
    14     9     7    2
    15     2     4    2
