@<TRIPOS>MOLECULE
/home/cewinharhar/GITHUB/reincatalyze/data/processed/docking_pred/2023-May-22-1531_sub9_nm5_bs15_s42_ex16_mel10_mts1000_k50_ec02_g099_lra9e-4_lrc1e-3/ff0363d9ee1910d446632d9597fe578fef33cb13_ligand_9.pdbqt
 14 15 0 0 0
SMALL
GASTEIGER

@<TRIPOS>ATOM
      1  C          5.5460    2.8830   -0.0530 C.3     1  UNL1        0.0800
      2  C          6.3400    3.7240    0.8850 C.2     1  UNL1        0.1300
      3  C          7.2720    4.7750    0.3940 C.3     1  UNL1        0.0870
      4  O          6.2490    3.5740    2.0930 O.2     1  UNL1       -0.3000
      5  C          5.1930    1.5470    0.5700 C.3     1  UNL1        0.0430
      6  C          6.0550    0.4640    0.0660 C.2     1  UNL1       -0.0440
      7  C          6.4610    0.4130   -1.2730 C.2     1  UNL1        0.0080
      8  C          6.4800   -0.5260    0.9230 C.2     1  UNL1        0.0540
      9  C          7.2710   -0.6280   -1.6890 C.2     1  UNL1        0.0510
     10  C          7.3000   -1.5750    0.4970 C.2     1  UNL1        0.1660
     11  C          7.6990   -1.6260   -0.8200 C.2     1  UNL1        0.1650
     12  O          7.8470   -2.6620    1.1450 O.2     1  UNL1       -0.4540
     13  O          8.4910   -2.7550   -0.9550 O.2     1  UNL1       -0.4540
     14  C          8.6860   -3.3910    0.2860 C.3     1  UNL1        0.4680
@<TRIPOS>BOND
     1     9     7    1
     2     9    11    2
     3     7     6    2
     4    13    11    1
     5    13    14    1
     6    11    10    1
     7     1     5    1
     8     1     2    1
     9     6     5    1
    10     6     8    1
    11    14    12    1
    12     3     2    1
    13    10     8    2
    14    10    12    1
    15     2     4    2
