@<TRIPOS>MOLECULE
/home/cewinharhar/GITHUB/reincatalyze/data/processed/docking_pred/2023-May-22-1531_sub9_nm5_bs15_s42_ex16_mel10_mts1000_k50_ec02_g099_lra9e-4_lrc1e-3/ff0363d9ee1910d446632d9597fe578fef33cb13_ligand_9.pdbqt
 14 15 0 0 0
SMALL
GASTEIGER

@<TRIPOS>ATOM
      1  C          5.3860    2.9890    0.1600 C.3     1  UNL1        0.0800
      2  C          6.2590    3.8510    1.0050 C.2     1  UNL1        0.1300
      3  C          7.2580    4.7750    0.4060 C.3     1  UNL1        0.0870
      4  O          6.1780    3.8220    2.2220 O.2     1  UNL1       -0.3000
      5  C          5.0920    1.6670    0.8410 C.3     1  UNL1        0.0430
      6  C          5.9470    0.5830    0.3230 C.2     1  UNL1       -0.0440
      7  C          6.3220   -0.5010    1.1240 C.2     1  UNL1        0.0080
      8  C          6.3910    0.6280   -0.9790 C.2     1  UNL1        0.0540
      9  C          7.1250   -1.4890    0.5830 C.2     1  UNL1        0.0510
     10  C          7.2020   -0.3730   -1.5210 C.2     1  UNL1        0.1660
     11  C          7.5730   -1.4400   -0.7340 C.2     1  UNL1        0.1650
     12  O          7.7660   -0.5540   -2.7670 O.2     1  UNL1       -0.4540
     13  O          8.3630   -2.2640   -1.5200 O.2     1  UNL1       -0.4540
     14  C          8.4370   -1.7860   -2.8420 C.3     1  UNL1        0.4680
@<TRIPOS>BOND
     1    14    12    1
     2    14    13    1
     3    12    10    1
     4    10     8    1
     5    10    11    2
     6    13    11    1
     7     8     6    2
     8    11     9    1
     9     1     5    1
    10     1     2    1
    11     6     5    1
    12     6     7    1
    13     3     2    1
    14     9     7    2
    15     2     4    2
