MODEL 1
REMARK VINA RESULT:      -7.9      0.000      0.000
REMARK SMILES CC(=O)CCc1ccc2c(c1)OCO2
REMARK SMILES IDX 4 1 2 2 1 3 3 4 5 5 6 6 7 7 11 8 8 9 10 10 9 11 12 12 14 13
REMARK SMILES IDX 13 14
REMARK H PARENT
REMARK Flexibility Score: inf
ROOT
ATOM      1  C   UNL     1       5.386   2.989   0.160  1.00  0.00     0.080 C 
ENDROOT
BRANCH   1   2
ATOM      2  C   UNL     1       6.259   3.851   1.005  1.00  0.00     0.130 C 
ATOM      3  C   UNL     1       7.258   4.775   0.406  1.00  0.00     0.087 C 
ATOM      4  O   UNL     1       6.178   3.822   2.222  1.00  0.00    -0.300 OA
ENDBRANCH   1   2
BRANCH   1   5
ATOM      5  C   UNL     1       5.092   1.667   0.841  1.00  0.00     0.043 C 
BRANCH   5   6
ATOM      6  C   UNL     1       5.947   0.583   0.323  1.00  0.00    -0.044 A 
ATOM      7  C   UNL     1       6.322  -0.501   1.124  1.00  0.00     0.008 A 
ATOM      8  C   UNL     1       6.391   0.628  -0.979  1.00  0.00     0.054 A 
ATOM      9  C   UNL     1       7.125  -1.489   0.583  1.00  0.00     0.051 A 
ATOM     10  C   UNL     1       7.202  -0.373  -1.521  1.00  0.00     0.166 A 
ATOM     11  C   UNL     1       7.573  -1.440  -0.734  1.00  0.00     0.165 A 
ATOM     12  O   UNL     1       7.766  -0.554  -2.767  1.00  0.00    -0.454 OA
ATOM     13  O   UNL     1       8.363  -2.264  -1.520  1.00  0.00    -0.454 OA
ATOM     14  C   UNL     1       8.437  -1.786  -2.842  1.00  0.00     0.468 C 
ENDBRANCH   5   6
ENDBRANCH   1   5
TORSDOF 3
ENDMDL
MODEL 2
REMARK VINA RESULT:      -7.8      1.035      2.004
REMARK SMILES CC(=O)CCc1ccc2c(c1)OCO2
REMARK SMILES IDX 4 1 2 2 1 3 3 4 5 5 6 6 7 7 11 8 8 9 10 10 9 11 12 12 14 13
REMARK SMILES IDX 13 14
REMARK H PARENT
REMARK Flexibility Score: inf
ROOT
ATOM      1  C   UNL     1       5.546   2.883  -0.053  1.00  0.00     0.080 C 
ENDROOT
BRANCH   1   2
ATOM      2  C   UNL     1       6.340   3.724   0.885  1.00  0.00     0.130 C 
ATOM      3  C   UNL     1       7.272   4.775   0.394  1.00  0.00     0.087 C 
ATOM      4  O   UNL     1       6.249   3.574   2.093  1.00  0.00    -0.300 OA
ENDBRANCH   1   2
BRANCH   1   5
ATOM      5  C   UNL     1       5.193   1.547   0.570  1.00  0.00     0.043 C 
BRANCH   5   6
ATOM      6  C   UNL     1       6.055   0.464   0.066  1.00  0.00    -0.044 A 
ATOM      7  C   UNL     1       6.461   0.413  -1.273  1.00  0.00     0.008 A 
ATOM      8  C   UNL     1       6.480  -0.526   0.923  1.00  0.00     0.054 A 
ATOM      9  C   UNL     1       7.271  -0.628  -1.689  1.00  0.00     0.051 A 
ATOM     10  C   UNL     1       7.300  -1.575   0.497  1.00  0.00     0.166 A 
ATOM     11  C   UNL     1       7.699  -1.626  -0.820  1.00  0.00     0.165 A 
ATOM     12  O   UNL     1       7.847  -2.662   1.145  1.00  0.00    -0.454 OA
ATOM     13  O   UNL     1       8.491  -2.755  -0.955  1.00  0.00    -0.454 OA
ATOM     14  C   UNL     1       8.686  -3.391   0.286  1.00  0.00     0.468 C 
ENDBRANCH   5   6
ENDBRANCH   1   5
TORSDOF 3
ENDMDL
MODEL 3
REMARK VINA RESULT:      -7.6      1.889      2.626
REMARK SMILES CC(=O)CCc1ccc2c(c1)OCO2
REMARK SMILES IDX 4 1 2 2 1 3 3 4 5 5 6 6 7 7 11 8 8 9 10 10 9 11 12 12 14 13
REMARK SMILES IDX 13 14
REMARK H PARENT
REMARK Flexibility Score: inf
ROOT
ATOM      1  C   UNL     1       5.541   1.916   1.277  1.00  0.00     0.080 C 
ENDROOT
BRANCH   1   2
ATOM      2  C   UNL     1       5.125   0.692   2.017  1.00  0.00     0.130 C 
ATOM      3  C   UNL     1       6.040  -0.469   2.184  1.00  0.00     0.087 C 
ATOM      4  O   UNL     1       4.012   0.606   2.511  1.00  0.00    -0.300 OA
ENDBRANCH   1   2
BRANCH   1   5
ATOM      5  C   UNL     1       5.410   1.724  -0.221  1.00  0.00     0.043 C 
BRANCH   5   6
ATOM      6  C   UNL     1       6.576   1.023  -0.787  1.00  0.00    -0.044 A 
ATOM      7  C   UNL     1       7.884   1.451  -0.531  1.00  0.00     0.008 A 
ATOM      8  C   UNL     1       6.386  -0.082  -1.585  1.00  0.00     0.054 A 
ATOM      9  C   UNL     1       8.939   0.752  -1.089  1.00  0.00     0.051 A 
ATOM     10  C   UNL     1       7.456  -0.785  -2.146  1.00  0.00     0.166 A 
ATOM     11  C   UNL     1       8.744  -0.364  -1.896  1.00  0.00     0.165 A 
ATOM     12  O   UNL     1       7.528  -1.895  -2.961  1.00  0.00    -0.454 OA
ATOM     13  O   UNL     1       9.588  -1.234  -2.568  1.00  0.00    -0.454 OA
ATOM     14  C   UNL     1       8.863  -2.273  -3.182  1.00  0.00     0.468 C 
ENDBRANCH   5   6
ENDBRANCH   1   5
TORSDOF 3
ENDMDL
