@<TRIPOS>MOLECULE
/home/cewinharhar/GITHUB/reincatalyze/data/processed/docking_pred/2023-May-31-1438_sub9_nm5_bs15_s42_ex16_mel10_mts1000_k50_ec05_g099_lra9e-4_lrc3e-3/00fabcb6e86abbd64330e8a307762c5d347247e8_ligand_9.pdbqt
 14 15 0 0 0
SMALL
GASTEIGER

@<TRIPOS>ATOM
      1  C          5.7830    1.4090   -0.2810 C.3     1  UNL1        0.0800
      2  C          5.1170    1.2900    1.0460 C.2     1  UNL1        0.1300
      3  C          5.3630    0.1280    1.9420 C.3     1  UNL1        0.0870
      4  O          4.3450    2.1500    1.4390 O.2     1  UNL1       -0.3000
      5  C          7.2690    1.1310   -0.1790 C.3     1  UNL1        0.0430
      6  C          7.6280   -0.1550   -0.8030 C.2     1  UNL1       -0.0440
      7  C          7.6880   -0.3040   -2.1930 C.2     1  UNL1        0.0080
      8  C          7.9160   -1.2420   -0.0090 C.2     1  UNL1        0.0540
      9  C          8.0320   -1.5350   -2.7220 C.2     1  UNL1        0.0510
     10  C          8.2630   -2.4840   -0.5480 C.2     1  UNL1        0.1660
     11  C          8.3210   -2.6320   -1.9160 C.2     1  UNL1        0.1650
     12  O          8.5880   -3.6980    0.0190 O.2     1  UNL1       -0.4540
     13  O          8.6850   -3.9460   -2.1630 O.2     1  UNL1       -0.4540
     14  C          8.9530   -4.6330   -0.9630 C.3     1  UNL1        0.4680
@<TRIPOS>BOND
     1     9     7    1
     2     9    11    2
     3     7     6    2
     4    13    11    1
     5    13    14    1
     6    11    10    1
     7    14    12    1
     8     6     5    1
     9     6     8    1
    10    10     8    2
    11    10    12    1
    12     1     5    1
    13     1     2    1
    14     2     4    2
    15     2     3    1
