@<TRIPOS>MOLECULE
/home/cewinharhar/GITHUB/reincatalyze/data/processed/docking_pred/2023-May-31-1438_sub9_nm5_bs15_s42_ex16_mel10_mts1000_k50_ec05_g099_lra9e-4_lrc3e-3/00fabcb6e86abbd64330e8a307762c5d347247e8_ligand_9.pdbqt
 14 15 0 0 0
SMALL
GASTEIGER

@<TRIPOS>ATOM
      1  C          5.5650    1.9160    1.2910 C.3     1  UNL1        0.0800
      2  C          5.1320    0.6970    2.0290 C.2     1  UNL1        0.1300
      3  C          6.0400   -0.4660    2.2180 C.3     1  UNL1        0.0870
      4  O          4.0100    0.6170    2.5030 O.2     1  UNL1       -0.3000
      5  C          5.4260    1.7310   -0.2070 C.3     1  UNL1        0.0430
      6  C          6.5890    1.0290   -0.7810 C.2     1  UNL1       -0.0440
      7  C          7.8980    1.4600   -0.5390 C.2     1  UNL1        0.0080
      8  C          6.3940   -0.0790   -1.5730 C.2     1  UNL1        0.0540
      9  C          8.9500    0.7620   -1.1040 C.2     1  UNL1        0.0510
     10  C          7.4600   -0.7820   -2.1410 C.2     1  UNL1        0.1660
     11  C          8.7490   -0.3580   -1.9050 C.2     1  UNL1        0.1650
     12  O          7.5260   -1.8950   -2.9530 O.2     1  UNL1       -0.4540
     13  O          9.5880   -1.2290   -2.5820 O.2     1  UNL1       -0.4540
     14  C          8.8600   -2.2720   -3.1850 C.3     1  UNL1        0.4680
@<TRIPOS>BOND
     1    14    12    1
     2    14    13    1
     3    12    10    1
     4    13    11    1
     5    10    11    2
     6    10     8    1
     7    11     9    1
     8     8     6    2
     9     9     7    2
    10     6     7    1
    11     6     5    1
    12     5     1    1
    13     1     2    1
    14     2     3    1
    15     2     4    2
