MODEL 1
REMARK VINA RESULT:      -7.6      0.000      0.000
REMARK SMILES CC(=O)CCc1ccc2c(c1)OCO2
REMARK SMILES IDX 4 1 2 2 1 3 3 4 5 5 6 6 7 7 11 8 8 9 10 10 9 11 12 12 14 13
REMARK SMILES IDX 13 14
REMARK H PARENT
REMARK Flexibility Score: inf
ROOT
ATOM      1  C   UNL     1       5.565   1.916   1.291  1.00  0.00     0.080 C 
ENDROOT
BRANCH   1   2
ATOM      2  C   UNL     1       5.132   0.697   2.029  1.00  0.00     0.130 C 
ATOM      3  C   UNL     1       6.040  -0.466   2.218  1.00  0.00     0.087 C 
ATOM      4  O   UNL     1       4.010   0.617   2.503  1.00  0.00    -0.300 OA
ENDBRANCH   1   2
BRANCH   1   5
ATOM      5  C   UNL     1       5.426   1.731  -0.207  1.00  0.00     0.043 C 
BRANCH   5   6
ATOM      6  C   UNL     1       6.589   1.029  -0.781  1.00  0.00    -0.044 A 
ATOM      7  C   UNL     1       7.898   1.460  -0.539  1.00  0.00     0.008 A 
ATOM      8  C   UNL     1       6.394  -0.079  -1.573  1.00  0.00     0.054 A 
ATOM      9  C   UNL     1       8.950   0.762  -1.104  1.00  0.00     0.051 A 
ATOM     10  C   UNL     1       7.460  -0.782  -2.141  1.00  0.00     0.166 A 
ATOM     11  C   UNL     1       8.749  -0.358  -1.905  1.00  0.00     0.165 A 
ATOM     12  O   UNL     1       7.526  -1.895  -2.953  1.00  0.00    -0.454 OA
ATOM     13  O   UNL     1       9.588  -1.229  -2.582  1.00  0.00    -0.454 OA
ATOM     14  C   UNL     1       8.860  -2.272  -3.185  1.00  0.00     0.468 C 
ENDBRANCH   5   6
ENDBRANCH   1   5
TORSDOF 3
ENDMDL
MODEL 2
REMARK VINA RESULT:      -7.4      1.929      2.377
REMARK SMILES CC(=O)CCc1ccc2c(c1)OCO2
REMARK SMILES IDX 4 1 2 2 1 3 3 4 5 5 6 6 7 7 11 8 8 9 10 10 9 11 12 12 14 13
REMARK SMILES IDX 13 14
REMARK H PARENT
REMARK Flexibility Score: inf
ROOT
ATOM      1  C   UNL     1       5.783   1.409  -0.281  1.00  0.00     0.080 C 
ENDROOT
BRANCH   1   2
ATOM      2  C   UNL     1       5.117   1.290   1.046  1.00  0.00     0.130 C 
ATOM      3  C   UNL     1       5.363   0.128   1.942  1.00  0.00     0.087 C 
ATOM      4  O   UNL     1       4.345   2.150   1.439  1.00  0.00    -0.300 OA
ENDBRANCH   1   2
BRANCH   1   5
ATOM      5  C   UNL     1       7.269   1.131  -0.179  1.00  0.00     0.043 C 
BRANCH   5   6
ATOM      6  C   UNL     1       7.628  -0.155  -0.803  1.00  0.00    -0.044 A 
ATOM      7  C   UNL     1       7.688  -0.304  -2.193  1.00  0.00     0.008 A 
ATOM      8  C   UNL     1       7.916  -1.242  -0.009  1.00  0.00     0.054 A 
ATOM      9  C   UNL     1       8.032  -1.535  -2.722  1.00  0.00     0.051 A 
ATOM     10  C   UNL     1       8.263  -2.484  -0.548  1.00  0.00     0.166 A 
ATOM     11  C   UNL     1       8.321  -2.632  -1.916  1.00  0.00     0.165 A 
ATOM     12  O   UNL     1       8.588  -3.698   0.019  1.00  0.00    -0.454 OA
ATOM     13  O   UNL     1       8.685  -3.946  -2.163  1.00  0.00    -0.454 OA
ATOM     14  C   UNL     1       8.953  -4.633  -0.963  1.00  0.00     0.468 C 
ENDBRANCH   5   6
ENDBRANCH   1   5
TORSDOF 3
ENDMDL
MODEL 3
REMARK VINA RESULT:      -7.2      2.049      2.625
REMARK SMILES CC(=O)CCc1ccc2c(c1)OCO2
REMARK SMILES IDX 4 1 2 2 1 3 3 4 5 5 6 6 7 7 11 8 8 9 10 10 9 11 12 12 14 13
REMARK SMILES IDX 13 14
REMARK H PARENT
REMARK Flexibility Score: inf
ROOT
ATOM      1  C   UNL     1       5.402  -0.076   2.026  1.00  0.00     0.080 C 
ENDROOT
BRANCH   1   2
ATOM      2  C   UNL     1       4.550   1.120   1.775  1.00  0.00     0.130 C 
ATOM      3  C   UNL     1       4.896   2.120   0.729  1.00  0.00     0.087 C 
ATOM      4  O   UNL     1       3.536   1.315   2.425  1.00  0.00    -0.300 OA
ENDBRANCH   1   2
BRANCH   1   5
ATOM      5  C   UNL     1       6.839   0.177   1.616  1.00  0.00     0.043 C 
BRANCH   5   6
ATOM      6  C   UNL     1       7.271  -0.738   0.544  1.00  0.00    -0.044 A 
ATOM      7  C   UNL     1       7.146  -0.395  -0.807  1.00  0.00     0.008 A 
ATOM      8  C   UNL     1       7.812  -1.961   0.868  1.00  0.00     0.054 A 
ATOM      9  C   UNL     1       7.569  -1.294  -1.769  1.00  0.00     0.051 A 
ATOM     10  C   UNL     1       8.239  -2.866  -0.108  1.00  0.00     0.166 A 
ATOM     11  C   UNL     1       8.116  -2.530  -1.438  1.00  0.00     0.165 A 
ATOM     12  O   UNL     1       8.801  -4.124  -0.043  1.00  0.00    -0.454 OA
ATOM     13  O   UNL     1       8.611  -3.598  -2.169  1.00  0.00    -0.454 OA
ATOM     14  C   UNL     1       9.139  -4.592  -1.323  1.00  0.00     0.468 C 
ENDBRANCH   5   6
ENDBRANCH   1   5
TORSDOF 3
ENDMDL
MODEL 4
REMARK VINA RESULT:      -7.0      1.257      1.485
REMARK SMILES CC(=O)CCc1ccc2c(c1)OCO2
REMARK SMILES IDX 4 1 2 2 1 3 3 4 5 5 6 6 7 7 11 8 8 9 10 10 9 11 12 12 14 13
REMARK SMILES IDX 13 14
REMARK H PARENT
REMARK Flexibility Score: inf
ROOT
ATOM      1  C   UNL     1       6.394   1.206   0.876  1.00  0.00     0.080 C 
ENDROOT
BRANCH   1   2
ATOM      2  C   UNL     1       5.693   0.405   1.918  1.00  0.00     0.130 C 
ATOM      3  C   UNL     1       6.300  -0.822   2.500  1.00  0.00     0.087 C 
ATOM      4  O   UNL     1       4.592   0.735   2.327  1.00  0.00    -0.300 OA
ENDBRANCH   1   2
BRANCH   1   5
ATOM      5  C   UNL     1       5.872   0.884  -0.510  1.00  0.00     0.043 C 
BRANCH   5   6
ATOM      6  C   UNL     1       6.826   0.063  -1.276  1.00  0.00    -0.044 A 
ATOM      7  C   UNL     1       7.523   0.581  -2.374  1.00  0.00     0.008 A 
ATOM      8  C   UNL     1       7.047  -1.246  -0.911  1.00  0.00     0.054 A 
ATOM      9  C   UNL     1       8.407  -0.236  -3.055  1.00  0.00     0.051 A 
ATOM     10  C   UNL     1       7.942  -2.068  -1.602  1.00  0.00     0.166 A 
ATOM     11  C   UNL     1       8.627  -1.559  -2.683  1.00  0.00     0.165 A 
ATOM     12  O   UNL     1       8.330  -3.381  -1.439  1.00  0.00    -0.454 OA
ATOM     13  O   UNL     1       9.430  -2.580  -3.166  1.00  0.00    -0.454 OA
ATOM     14  C   UNL     1       9.341  -3.725  -2.352  1.00  0.00     0.468 C 
ENDBRANCH   5   6
ENDBRANCH   1   5
TORSDOF 3
ENDMDL
MODEL 5
REMARK VINA RESULT:      -7.0      1.979      2.509
REMARK SMILES CC(=O)CCc1ccc2c(c1)OCO2
REMARK SMILES IDX 4 1 2 2 1 3 3 4 5 5 6 6 7 7 11 8 8 9 10 10 9 11 12 12 14 13
REMARK SMILES IDX 13 14
REMARK H PARENT
REMARK Flexibility Score: inf
ROOT
ATOM      1  C   UNL     1       6.788   0.848   1.429  1.00  0.00     0.080 C 
ENDROOT
BRANCH   1   2
ATOM      2  C   UNL     1       5.332   1.158   1.467  1.00  0.00     0.130 C 
ATOM      3  C   UNL     1       4.719   2.146   0.540  1.00  0.00     0.087 C 
ATOM      4  O   UNL     1       4.594   0.606   2.269  1.00  0.00    -0.300 OA
ENDBRANCH   1   2
BRANCH   1   5
ATOM      5  C   UNL     1       7.362   1.070   0.043  1.00  0.00     0.043 C 
BRANCH   5   6
ATOM      6  C   UNL     1       7.675  -0.204  -0.629  1.00  0.00    -0.044 A 
ATOM      7  C   UNL     1       7.675  -0.315  -2.024  1.00  0.00     0.008 A 
ATOM      8  C   UNL     1       7.980  -1.315   0.123  1.00  0.00     0.054 A 
ATOM      9  C   UNL     1       7.978  -1.536  -2.600  1.00  0.00     0.051 A 
ATOM     10  C   UNL     1       8.286  -2.547  -0.463  1.00  0.00     0.166 A 
ATOM     11  C   UNL     1       8.285  -2.658  -1.836  1.00  0.00     0.165 A 
ATOM     12  O   UNL     1       8.616  -3.780   0.058  1.00  0.00    -0.454 OA
ATOM     13  O   UNL     1       8.618  -3.970  -2.132  1.00  0.00    -0.454 OA
ATOM     14  C   UNL     1       8.925  -4.693  -0.964  1.00  0.00     0.468 C 
ENDBRANCH   5   6
ENDBRANCH   1   5
TORSDOF 3
ENDMDL
