@<TRIPOS>MOLECULE
/home/cewinharhar/GITHUB/reincatalyze/data/processed/docking_pred/2023-May-31-1438_sub9_nm5_bs15_s42_ex16_mel10_mts1000_k50_ec05_g099_lra9e-4_lrc3e-3/01f25cbd7413d58f388abe94d9cfceb48e05f66f_ligand_9.pdbqt
 14 15 0 0 0
SMALL
GASTEIGER

@<TRIPOS>ATOM
      1  C          5.5260    1.8840    1.2910 C.3     1  UNL1        0.0800
      2  C          5.0770    0.6620    2.0150 C.2     1  UNL1        0.1300
      3  C          5.9600   -0.5250    2.1650 C.3     1  UNL1        0.0870
      4  O          3.9620    0.6000    2.5080 O.2     1  UNL1       -0.3000
      5  C          5.3990    1.7140   -0.2090 C.3     1  UNL1        0.0430
      6  C          6.5660    1.0200   -0.7810 C.2     1  UNL1       -0.0440
      7  C          7.8730    1.4590   -0.5380 C.2     1  UNL1        0.0080
      8  C          6.3800   -0.0910   -1.5730 C.2     1  UNL1        0.0540
      9  C          8.9300    0.7670   -1.1000 C.2     1  UNL1        0.0510
     10  C          7.4520   -0.7870   -2.1390 C.2     1  UNL1        0.1660
     11  C          8.7370   -0.3540   -1.9010 C.2     1  UNL1        0.1650
     12  O          7.5260   -1.9000   -2.9490 O.2     1  UNL1       -0.4540
     13  O          9.5830   -1.2200   -2.5760 O.2     1  UNL1       -0.4540
     14  C          8.8620   -2.2680   -3.1790 C.3     1  UNL1        0.4680
@<TRIPOS>BOND
     1    14    12    1
     2    14    13    1
     3    12    10    1
     4    13    11    1
     5    10    11    2
     6    10     8    1
     7    11     9    1
     8     8     6    2
     9     9     7    2
    10     6     7    1
    11     6     5    1
    12     5     1    1
    13     1     2    1
    14     2     3    1
    15     2     4    2
