MODEL 1
REMARK VINA RESULT:      -7.7      0.000      0.000
REMARK SMILES CC(=O)CCc1ccc2c(c1)OCO2
REMARK SMILES IDX 4 1 2 2 1 3 3 4 5 5 6 6 7 7 11 8 8 9 10 10 9 11 12 12 14 13
REMARK SMILES IDX 13 14
REMARK H PARENT
REMARK Flexibility Score: inf
ROOT
ATOM      1  C   UNL     1       5.526   1.884   1.291  1.00  0.00     0.080 C 
ENDROOT
BRANCH   1   2
ATOM      2  C   UNL     1       5.077   0.662   2.015  1.00  0.00     0.130 C 
ATOM      3  C   UNL     1       5.960  -0.525   2.165  1.00  0.00     0.087 C 
ATOM      4  O   UNL     1       3.962   0.600   2.508  1.00  0.00    -0.300 OA
ENDBRANCH   1   2
BRANCH   1   5
ATOM      5  C   UNL     1       5.399   1.714  -0.209  1.00  0.00     0.043 C 
BRANCH   5   6
ATOM      6  C   UNL     1       6.566   1.020  -0.781  1.00  0.00    -0.044 A 
ATOM      7  C   UNL     1       7.873   1.459  -0.538  1.00  0.00     0.008 A 
ATOM      8  C   UNL     1       6.380  -0.091  -1.573  1.00  0.00     0.054 A 
ATOM      9  C   UNL     1       8.930   0.767  -1.100  1.00  0.00     0.051 A 
ATOM     10  C   UNL     1       7.452  -0.787  -2.139  1.00  0.00     0.166 A 
ATOM     11  C   UNL     1       8.737  -0.354  -1.901  1.00  0.00     0.165 A 
ATOM     12  O   UNL     1       7.526  -1.900  -2.949  1.00  0.00    -0.454 OA
ATOM     13  O   UNL     1       9.583  -1.220  -2.576  1.00  0.00    -0.454 OA
ATOM     14  C   UNL     1       8.862  -2.268  -3.179  1.00  0.00     0.468 C 
ENDBRANCH   5   6
ENDBRANCH   1   5
TORSDOF 3
ENDMDL
MODEL 2
REMARK VINA RESULT:      -7.5      1.924      2.364
REMARK SMILES CC(=O)CCc1ccc2c(c1)OCO2
REMARK SMILES IDX 4 1 2 2 1 3 3 4 5 5 6 6 7 7 11 8 8 9 10 10 9 11 12 12 14 13
REMARK SMILES IDX 13 14
REMARK H PARENT
REMARK Flexibility Score: inf
ROOT
ATOM      1  C   UNL     1       5.747   1.409  -0.241  1.00  0.00     0.080 C 
ENDROOT
BRANCH   1   2
ATOM      2  C   UNL     1       5.090   1.269   1.088  1.00  0.00     0.130 C 
ATOM      3  C   UNL     1       5.383   0.120   1.986  1.00  0.00     0.087 C 
ATOM      4  O   UNL     1       4.286   2.098   1.481  1.00  0.00    -0.300 OA
ENDBRANCH   1   2
BRANCH   1   5
ATOM      5  C   UNL     1       7.236   1.139  -0.151  1.00  0.00     0.043 C 
BRANCH   5   6
ATOM      6  C   UNL     1       7.597  -0.145  -0.777  1.00  0.00    -0.044 A 
ATOM      7  C   UNL     1       7.641  -0.296  -2.168  1.00  0.00     0.008 A 
ATOM      8  C   UNL     1       7.903  -1.228   0.015  1.00  0.00     0.054 A 
ATOM      9  C   UNL     1       7.988  -1.525  -2.699  1.00  0.00     0.051 A 
ATOM     10  C   UNL     1       8.254  -2.468  -0.527  1.00  0.00     0.166 A 
ATOM     11  C   UNL     1       8.296  -2.618  -1.895  1.00  0.00     0.165 A 
ATOM     12  O   UNL     1       8.595  -3.678   0.039  1.00  0.00    -0.454 OA
ATOM     13  O   UNL     1       8.667  -3.930  -2.144  1.00  0.00    -0.454 OA
ATOM     14  C   UNL     1       8.954  -4.612  -0.946  1.00  0.00     0.468 C 
ENDBRANCH   5   6
ENDBRANCH   1   5
TORSDOF 3
ENDMDL
MODEL 3
REMARK VINA RESULT:      -7.2      2.050      2.619
REMARK SMILES CC(=O)CCc1ccc2c(c1)OCO2
REMARK SMILES IDX 4 1 2 2 1 3 3 4 5 5 6 6 7 7 11 8 8 9 10 10 9 11 12 12 14 13
REMARK SMILES IDX 13 14
REMARK H PARENT
REMARK Flexibility Score: inf
ROOT
ATOM      1  C   UNL     1       5.413  -0.063   2.011  1.00  0.00     0.080 C 
ENDROOT
BRANCH   1   2
ATOM      2  C   UNL     1       4.562   1.133   1.761  1.00  0.00     0.130 C 
ATOM      3  C   UNL     1       4.906   2.132   0.714  1.00  0.00     0.087 C 
ATOM      4  O   UNL     1       3.549   1.329   2.414  1.00  0.00    -0.300 OA
ENDBRANCH   1   2
BRANCH   1   5
ATOM      5  C   UNL     1       6.850   0.188   1.597  1.00  0.00     0.043 C 
BRANCH   5   6
ATOM      6  C   UNL     1       7.280  -0.732   0.529  1.00  0.00    -0.044 A 
ATOM      7  C   UNL     1       7.160  -0.392  -0.824  1.00  0.00     0.008 A 
ATOM      8  C   UNL     1       7.815  -1.956   0.858  1.00  0.00     0.054 A 
ATOM      9  C   UNL     1       7.581  -1.296  -1.782  1.00  0.00     0.051 A 
ATOM     10  C   UNL     1       8.240  -2.866  -0.115  1.00  0.00     0.166 A 
ATOM     11  C   UNL     1       8.122  -2.534  -1.446  1.00  0.00     0.165 A 
ATOM     12  O   UNL     1       8.796  -4.126  -0.044  1.00  0.00    -0.454 OA
ATOM     13  O   UNL     1       8.613  -3.607  -2.172  1.00  0.00    -0.454 OA
ATOM     14  C   UNL     1       9.135  -4.600  -1.322  1.00  0.00     0.468 C 
ENDBRANCH   5   6
ENDBRANCH   1   5
TORSDOF 3
ENDMDL
MODEL 4
REMARK VINA RESULT:      -7.1      1.254      1.469
REMARK SMILES CC(=O)CCc1ccc2c(c1)OCO2
REMARK SMILES IDX 4 1 2 2 1 3 3 4 5 5 6 6 7 7 11 8 8 9 10 10 9 11 12 12 14 13
REMARK SMILES IDX 13 14
REMARK H PARENT
REMARK Flexibility Score: inf
ROOT
ATOM      1  C   UNL     1       6.385   1.220   0.918  1.00  0.00     0.080 C 
ENDROOT
BRANCH   1   2
ATOM      2  C   UNL     1       5.666   0.402   1.935  1.00  0.00     0.130 C 
ATOM      3  C   UNL     1       6.276  -0.818   2.529  1.00  0.00     0.087 C 
ATOM      4  O   UNL     1       4.548   0.712   2.312  1.00  0.00    -0.300 OA
ENDBRANCH   1   2
BRANCH   1   5
ATOM      5  C   UNL     1       5.875   0.933  -0.480  1.00  0.00     0.043 C 
BRANCH   5   6
ATOM      6  C   UNL     1       6.821   0.104  -1.248  1.00  0.00    -0.044 A 
ATOM      7  C   UNL     1       7.505   0.611  -2.359  1.00  0.00     0.008 A 
ATOM      8  C   UNL     1       7.046  -1.201  -0.871  1.00  0.00     0.054 A 
ATOM      9  C   UNL     1       8.381  -0.214  -3.040  1.00  0.00     0.051 A 
ATOM     10  C   UNL     1       7.934  -2.030  -1.563  1.00  0.00     0.166 A 
ATOM     11  C   UNL     1       8.606  -1.533  -2.657  1.00  0.00     0.165 A 
ATOM     12  O   UNL     1       8.323  -3.341  -1.390  1.00  0.00    -0.454 OA
ATOM     13  O   UNL     1       9.405  -2.559  -3.137  1.00  0.00    -0.454 OA
ATOM     14  C   UNL     1       9.324  -3.695  -2.310  1.00  0.00     0.468 C 
ENDBRANCH   5   6
ENDBRANCH   1   5
TORSDOF 3
ENDMDL
MODEL 5
REMARK VINA RESULT:      -6.9      2.031      2.597
REMARK SMILES CC(=O)CCc1ccc2c(c1)OCO2
REMARK SMILES IDX 4 1 2 2 1 3 3 4 5 5 6 6 7 7 11 8 8 9 10 10 9 11 12 12 14 13
REMARK SMILES IDX 13 14
REMARK H PARENT
REMARK Flexibility Score: inf
ROOT
ATOM      1  C   UNL     1       6.664   0.409   1.412  1.00  0.00     0.080 C 
ENDROOT
BRANCH   1   2
ATOM      2  C   UNL     1       5.324   1.044   1.561  1.00  0.00     0.130 C 
ATOM      3  C   UNL     1       4.859   2.113   0.637  1.00  0.00     0.087 C 
ATOM      4  O   UNL     1       4.565   0.702   2.453  1.00  0.00    -0.300 OA
ENDBRANCH   1   2
BRANCH   1   5
ATOM      5  C   UNL     1       7.274   0.723   0.060  1.00  0.00     0.043 C 
BRANCH   5   6
ATOM      6  C   UNL     1       7.710  -0.499  -0.639  1.00  0.00    -0.044 A 
ATOM      7  C   UNL     1       7.916  -0.518  -2.024  1.00  0.00     0.008 A 
ATOM      8  C   UNL     1       7.926  -1.654   0.077  1.00  0.00     0.054 A 
ATOM      9  C   UNL     1       8.327  -1.693  -2.625  1.00  0.00     0.051 A 
ATOM     10  C   UNL     1       8.342  -2.840  -0.536  1.00  0.00     0.166 A 
ATOM     11  C   UNL     1       8.544  -2.860  -1.898  1.00  0.00     0.165 A 
ATOM     12  O   UNL     1       8.620  -4.101  -0.052  1.00  0.00    -0.454 OA
ATOM     13  O   UNL     1       8.947  -4.145  -2.225  1.00  0.00    -0.454 OA
ATOM     14  C   UNL     1       9.096  -4.940  -1.073  1.00  0.00     0.468 C 
ENDBRANCH   5   6
ENDBRANCH   1   5
TORSDOF 3
ENDMDL
