@<TRIPOS>MOLECULE
/home/cewinharhar/GITHUB/reincatalyze/data/processed/docking_pred/2023-May-31-1438_sub9_nm5_bs15_s42_ex16_mel10_mts1000_k50_ec05_g099_lra9e-4_lrc3e-3/01f25cbd7413d58f388abe94d9cfceb48e05f66f_ligand_9.pdbqt
 14 15 0 0 0
SMALL
GASTEIGER

@<TRIPOS>ATOM
      1  C          5.7470    1.4090   -0.2410 C.3     1  UNL1        0.0800
      2  C          5.0900    1.2690    1.0880 C.2     1  UNL1        0.1300
      3  C          5.3830    0.1200    1.9860 C.3     1  UNL1        0.0870
      4  O          4.2860    2.0980    1.4810 O.2     1  UNL1       -0.3000
      5  C          7.2360    1.1390   -0.1510 C.3     1  UNL1        0.0430
      6  C          7.5970   -0.1450   -0.7770 C.2     1  UNL1       -0.0440
      7  C          7.6410   -0.2960   -2.1680 C.2     1  UNL1        0.0080
      8  C          7.9030   -1.2280    0.0150 C.2     1  UNL1        0.0540
      9  C          7.9880   -1.5250   -2.6990 C.2     1  UNL1        0.0510
     10  C          8.2540   -2.4680   -0.5270 C.2     1  UNL1        0.1660
     11  C          8.2960   -2.6180   -1.8950 C.2     1  UNL1        0.1650
     12  O          8.5950   -3.6780    0.0390 O.2     1  UNL1       -0.4540
     13  O          8.6670   -3.9300   -2.1440 O.2     1  UNL1       -0.4540
     14  C          8.9540   -4.6120   -0.9460 C.3     1  UNL1        0.4680
@<TRIPOS>BOND
     1     9     7    1
     2     9    11    2
     3     7     6    2
     4    13    11    1
     5    13    14    1
     6    11    10    1
     7    14    12    1
     8     6     5    1
     9     6     8    1
    10    10     8    2
    11    10    12    1
    12     1     5    1
    13     1     2    1
    14     2     4    2
    15     2     3    1
