@<TRIPOS>MOLECULE
/home/cewinharhar/GITHUB/reincatalyze/data/processed/docking_pred/2023-May-31-1438_sub9_nm5_bs15_s42_ex16_mel10_mts1000_k50_ec05_g099_lra9e-4_lrc3e-3/01f25cbd7413d58f388abe94d9cfceb48e05f66f_ligand_9.pdbqt
 14 15 0 0 0
SMALL
GASTEIGER

@<TRIPOS>ATOM
      1  C          6.3850    1.2200    0.9180 C.3     1  UNL1        0.0800
      2  C          5.6660    0.4020    1.9350 C.2     1  UNL1        0.1300
      3  C          6.2760   -0.8180    2.5290 C.3     1  UNL1        0.0870
      4  O          4.5480    0.7120    2.3120 O.2     1  UNL1       -0.3000
      5  C          5.8750    0.9330   -0.4800 C.3     1  UNL1        0.0430
      6  C          6.8210    0.1040   -1.2480 C.2     1  UNL1       -0.0440
      7  C          7.5050    0.6110   -2.3590 C.2     1  UNL1        0.0080
      8  C          7.0460   -1.2010   -0.8710 C.2     1  UNL1        0.0540
      9  C          8.3810   -0.2140   -3.0400 C.2     1  UNL1        0.0510
     10  C          7.9340   -2.0300   -1.5630 C.2     1  UNL1        0.1660
     11  C          8.6060   -1.5330   -2.6570 C.2     1  UNL1        0.1650
     12  O          8.3230   -3.3410   -1.3900 O.2     1  UNL1       -0.4540
     13  O          9.4050   -2.5590   -3.1370 O.2     1  UNL1       -0.4540
     14  C          9.3240   -3.6950   -2.3100 C.3     1  UNL1        0.4680
@<TRIPOS>BOND
     1    13    11    1
     2    13    14    1
     3     9    11    2
     4     9     7    1
     5    11    10    1
     6     7     6    2
     7    14    12    1
     8    10    12    1
     9    10     8    2
    10     6     8    1
    11     6     5    1
    12     5     1    1
    13     1     2    1
    14     2     4    2
    15     2     3    1
