@<TRIPOS>MOLECULE
/home/cewinharhar/GITHUB/reincatalyze/data/processed/docking_pred/2023-May-31-1438_sub9_nm5_bs15_s42_ex16_mel10_mts1000_k50_ec05_g099_lra9e-4_lrc3e-3/02381cbfeedb5f98de7c9f38a4017f955763d16c_ligand_9.pdbqt
 14 15 0 0 0
SMALL
GASTEIGER

@<TRIPOS>ATOM
      1  C          5.8570    1.5990    0.9030 C.3     1  UNL1        0.0800
      2  C          5.3860    0.5700    1.8720 C.2     1  UNL1        0.1300
      3  C          6.2180   -0.6130    2.2210 C.3     1  UNL1        0.0870
      4  O          4.2960    0.6690    2.4110 O.2     1  UNL1       -0.3000
      5  C          5.7730    1.0910   -0.5230 C.3     1  UNL1        0.0430
      6  C          7.0180    0.4210   -0.9380 C.2     1  UNL1       -0.0440
      7  C          8.2710    1.0100   -0.7340 C.2     1  UNL1        0.0080
      8  C          6.9590   -0.8150   -1.5400 C.2     1  UNL1        0.0540
      9  C          9.4060    0.3330   -1.1430 C.2     1  UNL1        0.0510
     10  C          8.1090   -1.4960   -1.9520 C.2     1  UNL1        0.1660
     11  C          9.3420   -0.9160   -1.7520 C.2     1  UNL1        0.1650
     12  O          8.3110   -2.7140   -2.5640 O.2     1  UNL1       -0.4540
     13  O         10.2860   -1.8010   -2.2500 O.2     1  UNL1       -0.4540
     14  C          9.6820   -2.9930   -2.6910 C.3     1  UNL1        0.4680
@<TRIPOS>BOND
     1    14    12    1
     2    14    13    1
     3    12    10    1
     4    13    11    1
     5    10    11    2
     6    10     8    1
     7    11     9    1
     8     8     6    2
     9     9     7    2
    10     6     7    1
    11     6     5    1
    12     5     1    1
    13     1     2    1
    14     2     3    1
    15     2     4    2
