@<TRIPOS>MOLECULE
/home/cewinharhar/GITHUB/reincatalyze/data/processed/docking_pred/2023-May-31-1438_sub9_nm5_bs15_s42_ex16_mel10_mts1000_k50_ec05_g099_lra9e-4_lrc3e-3/0310d41f91ab2de901a6698b161cc991790b6b4b_ligand_9.pdbqt
 14 15 0 0 0
SMALL
GASTEIGER

@<TRIPOS>ATOM
      1  C          6.3550    1.1870    0.9480 C.3     1  UNL1        0.0800
      2  C          5.6520    0.3460    1.9570 C.2     1  UNL1        0.1300
      3  C          6.2680   -0.8900    2.5080 C.3     1  UNL1        0.0870
      4  O          4.5420    0.6510    2.3630 O.2     1  UNL1       -0.3000
      5  C          5.8470    0.9060   -0.4520 C.3     1  UNL1        0.0430
      6  C          6.8020    0.0930   -1.2270 C.2     1  UNL1       -0.0440
      7  C          7.4970    0.6230   -2.3200 C.2     1  UNL1        0.0080
      8  C          7.0250   -1.2180   -0.8750 C.2     1  UNL1        0.0540
      9  C          8.3820   -0.1860   -3.0090 C.2     1  UNL1        0.0510
     10  C          7.9210   -2.0320   -1.5740 C.2     1  UNL1        0.1660
     11  C          8.6040   -1.5120   -2.6500 C.2     1  UNL1        0.1650
     12  O          8.3100   -3.3460   -1.4240 O.2     1  UNL1       -0.4540
     13  O          9.4090   -2.5280   -3.1430 O.2     1  UNL1       -0.4540
     14  C          9.3210   -3.6810   -2.3400 C.3     1  UNL1        0.4680
@<TRIPOS>BOND
     1    13    11    1
     2    13    14    1
     3     9    11    2
     4     9     7    1
     5    11    10    1
     6    14    12    1
     7     7     6    2
     8    10    12    1
     9    10     8    2
    10     6     8    1
    11     6     5    1
    12     5     1    1
    13     1     2    1
    14     2     4    2
    15     2     3    1
