@<TRIPOS>MOLECULE
/home/cewinharhar/GITHUB/reincatalyze/data/processed/docking_pred/2023-May-31-1438_sub9_nm5_bs15_s42_ex16_mel10_mts1000_k50_ec05_g099_lra9e-4_lrc3e-3/0310d41f91ab2de901a6698b161cc991790b6b4b_ligand_9.pdbqt
 14 15 0 0 0
SMALL
GASTEIGER

@<TRIPOS>ATOM
      1  C          5.7560    1.2860   -0.4030 C.3     1  UNL1        0.0800
      2  C          5.2550    1.2680    1.0000 C.2     1  UNL1        0.1300
      3  C          5.6270    0.1840    1.9480 C.3     1  UNL1        0.0870
      4  O          4.5190    2.1500    1.4140 O.2     1  UNL1       -0.3000
      5  C          7.2600    1.0980   -0.4520 C.3     1  UNL1        0.0430
      6  C          7.6280   -0.2190   -1.0020 C.2     1  UNL1       -0.0440
      7  C          7.6960   -0.4450   -2.3810 C.2     1  UNL1        0.0080
      8  C          7.9150   -1.2590   -0.1470 C.2     1  UNL1        0.0540
      9  C          8.0480   -1.7020   -2.8390 C.2     1  UNL1        0.0510
     10  C          8.2710   -2.5280   -0.6150 C.2     1  UNL1        0.1660
     11  C          8.3380   -2.7510   -1.9720 C.2     1  UNL1        0.1650
     12  O          8.5970   -3.7060    0.0210 O.2     1  UNL1       -0.4540
     13  O          8.7080   -4.0750   -2.1430 O.2     1  UNL1       -0.4540
     14  C          8.9710   -4.6930   -0.9060 C.3     1  UNL1        0.4680
@<TRIPOS>BOND
     1     9     7    1
     2     9    11    2
     3     7     6    2
     4    13    11    1
     5    13    14    1
     6    11    10    1
     7     6     5    1
     8     6     8    1
     9    14    12    1
    10    10     8    2
    11    10    12    1
    12     5     1    1
    13     1     2    1
    14     2     4    2
    15     2     3    1
