@<TRIPOS>MOLECULE
/home/cewinharhar/GITHUB/reincatalyze/data/processed/docking_pred/2023-May-31-1438_sub9_nm5_bs15_s42_ex16_mel10_mts1000_k50_ec05_g099_lra9e-4_lrc3e-3/0310d41f91ab2de901a6698b161cc991790b6b4b_ligand_9.pdbqt
 14 15 0 0 0
SMALL
GASTEIGER

@<TRIPOS>ATOM
      1  C          5.4430   -0.0220    2.0430 C.3     1  UNL1        0.0800
      2  C          4.5560    1.1420    1.7670 C.2     1  UNL1        0.1300
      3  C          4.8710    2.1290    0.7000 C.3     1  UNL1        0.0870
      4  O          3.5370    1.3210    2.4150 O.2     1  UNL1       -0.3000
      5  C          6.8640    0.2500    1.5890 C.3     1  UNL1        0.0430
      6  C          7.2860   -0.6800    0.5270 C.2     1  UNL1       -0.0440
      7  C          7.1710   -0.3470   -0.8270 C.2     1  UNL1        0.0080
      8  C          7.8100   -1.9080    0.8640 C.2     1  UNL1        0.0540
      9  C          7.5850   -1.2600   -1.7810 C.2     1  UNL1        0.0510
     10  C          8.2270   -2.8270   -0.1040 C.2     1  UNL1        0.1660
     11  C          8.1130   -2.5010   -1.4370 C.2     1  UNL1        0.1650
     12  O          8.7700   -4.0920   -0.0260 O.2     1  UNL1       -0.4540
     13  O          8.5950   -3.5820   -2.1570 O.2     1  UNL1       -0.4540
     14  C          9.1060   -4.5760   -1.3010 C.3     1  UNL1        0.4680
@<TRIPOS>BOND
     1    13    11    1
     2    13    14    1
     3     9    11    2
     4     9     7    1
     5    11    10    1
     6    14    12    1
     7     7     6    2
     8    10    12    1
     9    10     8    2
    10     6     8    1
    11     6     5    1
    12     3     2    1
    13     5     1    1
    14     2     1    1
    15     2     4    2
