MODEL 1
REMARK VINA RESULT:      -7.6      0.000      0.000
REMARK SMILES CC(=O)CCc1ccc2c(c1)OCO2
REMARK SMILES IDX 4 1 2 2 1 3 3 4 5 5 6 6 7 7 11 8 8 9 10 10 9 11 12 12 14 13
REMARK SMILES IDX 13 14
REMARK H PARENT
REMARK Flexibility Score: inf
ROOT
ATOM      1  C   UNL     1       5.534   1.940   1.259  1.00  0.00     0.080 C 
ENDROOT
BRANCH   1   2
ATOM      2  C   UNL     1       5.116   0.720   2.005  1.00  0.00     0.130 C 
ATOM      3  C   UNL     1       6.036  -0.434   2.192  1.00  0.00     0.087 C 
ATOM      4  O   UNL     1       3.998   0.633   2.487  1.00  0.00    -0.300 OA
ENDBRANCH   1   2
BRANCH   1   5
ATOM      5  C   UNL     1       5.405   1.741  -0.238  1.00  0.00     0.043 C 
BRANCH   5   6
ATOM      6  C   UNL     1       6.571   1.034  -0.797  1.00  0.00    -0.044 A 
ATOM      7  C   UNL     1       7.879   1.458  -0.539  1.00  0.00     0.008 A 
ATOM      8  C   UNL     1       6.380  -0.074  -1.592  1.00  0.00     0.054 A 
ATOM      9  C   UNL     1       8.934   0.754  -1.090  1.00  0.00     0.051 A 
ATOM     10  C   UNL     1       7.449  -0.783  -2.146  1.00  0.00     0.166 A 
ATOM     11  C   UNL     1       8.737  -0.365  -1.894  1.00  0.00     0.165 A 
ATOM     12  O   UNL     1       7.520  -1.896  -2.956  1.00  0.00    -0.454 OA
ATOM     13  O   UNL     1       9.580  -1.241  -2.560  1.00  0.00    -0.454 OA
ATOM     14  C   UNL     1       8.854  -2.280  -3.172  1.00  0.00     0.468 C 
ENDBRANCH   5   6
ENDBRANCH   1   5
TORSDOF 3
ENDMDL
MODEL 2
REMARK VINA RESULT:      -7.3      1.932      2.442
REMARK SMILES CC(=O)CCc1ccc2c(c1)OCO2
REMARK SMILES IDX 4 1 2 2 1 3 3 4 5 5 6 6 7 7 11 8 8 9 10 10 9 11 12 12 14 13
REMARK SMILES IDX 13 14
REMARK H PARENT
REMARK Flexibility Score: inf
ROOT
ATOM      1  C   UNL     1       5.756   1.286  -0.403  1.00  0.00     0.080 C 
ENDROOT
BRANCH   1   2
ATOM      2  C   UNL     1       5.255   1.268   1.000  1.00  0.00     0.130 C 
ATOM      3  C   UNL     1       5.627   0.184   1.948  1.00  0.00     0.087 C 
ATOM      4  O   UNL     1       4.519   2.150   1.414  1.00  0.00    -0.300 OA
ENDBRANCH   1   2
BRANCH   1   5
ATOM      5  C   UNL     1       7.260   1.098  -0.452  1.00  0.00     0.043 C 
BRANCH   5   6
ATOM      6  C   UNL     1       7.628  -0.219  -1.002  1.00  0.00    -0.044 A 
ATOM      7  C   UNL     1       7.696  -0.445  -2.381  1.00  0.00     0.008 A 
ATOM      8  C   UNL     1       7.915  -1.259  -0.147  1.00  0.00     0.054 A 
ATOM      9  C   UNL     1       8.048  -1.702  -2.839  1.00  0.00     0.051 A 
ATOM     10  C   UNL     1       8.271  -2.528  -0.615  1.00  0.00     0.166 A 
ATOM     11  C   UNL     1       8.338  -2.751  -1.972  1.00  0.00     0.165 A 
ATOM     12  O   UNL     1       8.597  -3.706   0.021  1.00  0.00    -0.454 OA
ATOM     13  O   UNL     1       8.708  -4.075  -2.143  1.00  0.00    -0.454 OA
ATOM     14  C   UNL     1       8.971  -4.693  -0.906  1.00  0.00     0.468 C 
ENDBRANCH   5   6
ENDBRANCH   1   5
TORSDOF 3
ENDMDL
MODEL 3
REMARK VINA RESULT:      -7.1      2.040      2.604
REMARK SMILES CC(=O)CCc1ccc2c(c1)OCO2
REMARK SMILES IDX 4 1 2 2 1 3 3 4 5 5 6 6 7 7 11 8 8 9 10 10 9 11 12 12 14 13
REMARK SMILES IDX 13 14
REMARK H PARENT
REMARK Flexibility Score: inf
ROOT
ATOM      1  C   UNL     1       5.443  -0.022   2.043  1.00  0.00     0.080 C 
ENDROOT
BRANCH   1   2
ATOM      2  C   UNL     1       4.556   1.142   1.767  1.00  0.00     0.130 C 
ATOM      3  C   UNL     1       4.871   2.129   0.700  1.00  0.00     0.087 C 
ATOM      4  O   UNL     1       3.537   1.321   2.415  1.00  0.00    -0.300 OA
ENDBRANCH   1   2
BRANCH   1   5
ATOM      5  C   UNL     1       6.864   0.250   1.589  1.00  0.00     0.043 C 
BRANCH   5   6
ATOM      6  C   UNL     1       7.286  -0.680   0.527  1.00  0.00    -0.044 A 
ATOM      7  C   UNL     1       7.171  -0.347  -0.827  1.00  0.00     0.008 A 
ATOM      8  C   UNL     1       7.810  -1.908   0.864  1.00  0.00     0.054 A 
ATOM      9  C   UNL     1       7.585  -1.260  -1.781  1.00  0.00     0.051 A 
ATOM     10  C   UNL     1       8.227  -2.827  -0.104  1.00  0.00     0.166 A 
ATOM     11  C   UNL     1       8.113  -2.501  -1.437  1.00  0.00     0.165 A 
ATOM     12  O   UNL     1       8.770  -4.092  -0.026  1.00  0.00    -0.454 OA
ATOM     13  O   UNL     1       8.595  -3.582  -2.157  1.00  0.00    -0.454 OA
ATOM     14  C   UNL     1       9.106  -4.576  -1.301  1.00  0.00     0.468 C 
ENDBRANCH   5   6
ENDBRANCH   1   5
TORSDOF 3
ENDMDL
MODEL 4
REMARK VINA RESULT:      -7.0      1.249      1.455
REMARK SMILES CC(=O)CCc1ccc2c(c1)OCO2
REMARK SMILES IDX 4 1 2 2 1 3 3 4 5 5 6 6 7 7 11 8 8 9 10 10 9 11 12 12 14 13
REMARK SMILES IDX 13 14
REMARK H PARENT
REMARK Flexibility Score: inf
ROOT
ATOM      1  C   UNL     1       6.355   1.187   0.948  1.00  0.00     0.080 C 
ENDROOT
BRANCH   1   2
ATOM      2  C   UNL     1       5.652   0.346   1.957  1.00  0.00     0.130 C 
ATOM      3  C   UNL     1       6.268  -0.890   2.508  1.00  0.00     0.087 C 
ATOM      4  O   UNL     1       4.542   0.651   2.363  1.00  0.00    -0.300 OA
ENDBRANCH   1   2
BRANCH   1   5
ATOM      5  C   UNL     1       5.847   0.906  -0.452  1.00  0.00     0.043 C 
BRANCH   5   6
ATOM      6  C   UNL     1       6.802   0.093  -1.227  1.00  0.00    -0.044 A 
ATOM      7  C   UNL     1       7.497   0.623  -2.320  1.00  0.00     0.008 A 
ATOM      8  C   UNL     1       7.025  -1.218  -0.875  1.00  0.00     0.054 A 
ATOM      9  C   UNL     1       8.382  -0.186  -3.009  1.00  0.00     0.051 A 
ATOM     10  C   UNL     1       7.921  -2.032  -1.574  1.00  0.00     0.166 A 
ATOM     11  C   UNL     1       8.604  -1.512  -2.650  1.00  0.00     0.165 A 
ATOM     12  O   UNL     1       8.310  -3.346  -1.424  1.00  0.00    -0.454 OA
ATOM     13  O   UNL     1       9.409  -2.528  -3.143  1.00  0.00    -0.454 OA
ATOM     14  C   UNL     1       9.321  -3.681  -2.340  1.00  0.00     0.468 C 
ENDBRANCH   5   6
ENDBRANCH   1   5
TORSDOF 3
ENDMDL
MODEL 5
REMARK VINA RESULT:      -6.9      1.973      2.498
REMARK SMILES CC(=O)CCc1ccc2c(c1)OCO2
REMARK SMILES IDX 4 1 2 2 1 3 3 4 5 5 6 6 7 7 11 8 8 9 10 10 9 11 12 12 14 13
REMARK SMILES IDX 13 14
REMARK H PARENT
REMARK Flexibility Score: inf
ROOT
ATOM      1  C   UNL     1       6.904   0.966   1.297  1.00  0.00     0.080 C 
ENDROOT
BRANCH   1   2
ATOM      2  C   UNL     1       5.431   1.144   1.420  1.00  0.00     0.130 C 
ATOM      3  C   UNL     1       4.695   2.150   0.608  1.00  0.00     0.087 C 
ATOM      4  O   UNL     1       4.780   0.464   2.197  1.00  0.00    -0.300 OA
ENDBRANCH   1   2
BRANCH   1   5
ATOM      5  C   UNL     1       7.361   1.133  -0.139  1.00  0.00     0.043 C 
BRANCH   5   6
ATOM      6  C   UNL     1       7.702  -0.161  -0.758  1.00  0.00    -0.044 A 
ATOM      7  C   UNL     1       7.799  -0.306  -2.147  1.00  0.00     0.008 A 
ATOM      8  C   UNL     1       7.934  -1.258   0.039  1.00  0.00     0.054 A 
ATOM      9  C   UNL     1       8.123  -1.544  -2.671  1.00  0.00     0.051 A 
ATOM     10  C   UNL     1       8.262  -2.508  -0.495  1.00  0.00     0.166 A 
ATOM     11  C   UNL     1       8.357  -2.652  -1.862  1.00  0.00     0.165 A 
ATOM     12  O   UNL     1       8.535  -3.732   0.076  1.00  0.00    -0.454 OA
ATOM     13  O   UNL     1       8.690  -3.975  -2.103  1.00  0.00    -0.454 OA
ATOM     14  C   UNL     1       8.902  -4.674  -0.899  1.00  0.00     0.468 C 
ENDBRANCH   5   6
ENDBRANCH   1   5
TORSDOF 3
ENDMDL
