@<TRIPOS>MOLECULE
/home/cewinharhar/GITHUB/reincatalyze/data/processed/docking_pred/2023-May-31-1438_sub9_nm5_bs15_s42_ex16_mel10_mts1000_k50_ec05_g099_lra9e-4_lrc3e-3/0310d41f91ab2de901a6698b161cc991790b6b4b_ligand_9.pdbqt
 14 15 0 0 0
SMALL
GASTEIGER

@<TRIPOS>ATOM
      1  C          6.9040    0.9660    1.2970 C.3     1  UNL1        0.0800
      2  C          5.4310    1.1440    1.4200 C.2     1  UNL1        0.1300
      3  C          4.6950    2.1500    0.6080 C.3     1  UNL1        0.0870
      4  O          4.7800    0.4640    2.1970 O.2     1  UNL1       -0.3000
      5  C          7.3610    1.1330   -0.1390 C.3     1  UNL1        0.0430
      6  C          7.7020   -0.1610   -0.7580 C.2     1  UNL1       -0.0440
      7  C          7.7990   -0.3060   -2.1470 C.2     1  UNL1        0.0080
      8  C          7.9340   -1.2580    0.0390 C.2     1  UNL1        0.0540
      9  C          8.1230   -1.5440   -2.6710 C.2     1  UNL1        0.0510
     10  C          8.2620   -2.5080   -0.4950 C.2     1  UNL1        0.1660
     11  C          8.3570   -2.6520   -1.8620 C.2     1  UNL1        0.1650
     12  O          8.5350   -3.7320    0.0760 O.2     1  UNL1       -0.4540
     13  O          8.6900   -3.9750   -2.1030 O.2     1  UNL1       -0.4540
     14  C          8.9020   -4.6740   -0.8990 C.3     1  UNL1        0.4680
@<TRIPOS>BOND
     1     9     7    1
     2     9    11    2
     3     7     6    2
     4    13    11    1
     5    13    14    1
     6    11    10    1
     7    14    12    1
     8     6     5    1
     9     6     8    1
    10    10     8    2
    11    10    12    1
    12     5     1    1
    13     3     2    1
    14     1     2    1
    15     2     4    2
