@<TRIPOS>MOLECULE
/home/cewinharhar/GITHUB/reincatalyze/data/processed/docking_pred/2023-May-31-1438_sub9_nm5_bs15_s42_ex16_mel10_mts1000_k50_ec05_g099_lra9e-4_lrc3e-3/034cecc51265c6b10d0b2cc1c9f67b1ec6b5e3be_ligand_9.pdbqt
 14 15 0 0 0
SMALL
GASTEIGER

@<TRIPOS>ATOM
      1  C          5.5050   -0.1330    2.0350 C.3     1  UNL1        0.0800
      2  C          4.6320    1.0490    1.7910 C.2     1  UNL1        0.1300
      3  C          4.9650    2.0660    0.7580 C.3     1  UNL1        0.0870
      4  O          3.6100    1.2170    2.4370 O.2     1  UNL1       -0.3000
      5  C          6.9270    0.1290    1.5790 C.3     1  UNL1        0.0430
      6  C          7.3400   -0.8010    0.5140 C.2     1  UNL1       -0.0440
      7  C          7.2020   -0.4740   -0.8400 C.2     1  UNL1        0.0080
      8  C          7.8780   -2.0230    0.8460 C.2     1  UNL1        0.0540
      9  C          7.6080   -1.3860   -1.7960 C.2     1  UNL1        0.0510
     10  C          8.2880   -2.9420   -0.1240 C.2     1  UNL1        0.1660
     11  C          8.1510   -2.6220   -1.4560 C.2     1  UNL1        0.1650
     12  O          8.8430   -4.2020   -0.0500 O.2     1  UNL1       -0.4540
     13  O          8.6310   -3.7020   -2.1800 O.2     1  UNL1       -0.4540
     14  C          9.1630   -4.6880   -1.3290 C.3     1  UNL1        0.4680
@<TRIPOS>BOND
     1    13    11    1
     2    13    14    1
     3     9    11    2
     4     9     7    1
     5    11    10    1
     6    14    12    1
     7     7     6    2
     8    10    12    1
     9    10     8    2
    10     6     8    1
    11     6     5    1
    12     3     2    1
    13     5     1    1
    14     2     1    1
    15     2     4    2
