@<TRIPOS>MOLECULE
/home/cewinharhar/GITHUB/reincatalyze/data/processed/docking_pred/2023-May-31-1438_sub9_nm5_bs15_s42_ex16_mel10_mts1000_k50_ec05_g099_lra9e-4_lrc3e-3/034cecc51265c6b10d0b2cc1c9f67b1ec6b5e3be_ligand_9.pdbqt
 14 15 0 0 0
SMALL
GASTEIGER

@<TRIPOS>ATOM
      1  C          8.3480    0.1890   -2.6760 C.3     1  UNL1        0.0800
      2  C          8.0580   -1.2700   -2.7660 C.2     1  UNL1        0.1300
      3  C          9.1310   -2.2640   -3.0320 C.3     1  UNL1        0.0870
      4  O          6.9220   -1.6930   -2.6220 O.2     1  UNL1       -0.3000
      5  C          8.8760    0.5610   -1.3050 C.3     1  UNL1        0.0430
      6  C          7.8430    0.4200   -0.2640 C.2     1  UNL1       -0.0440
      7  C          7.9510   -0.5370    0.7520 C.2     1  UNL1        0.0080
      8  C          6.7420    1.2460   -0.2790 C.2     1  UNL1        0.0540
      9  C          6.9500   -0.6230    1.7030 C.2     1  UNL1        0.0510
     10  C          5.7330    1.1560    0.6850 C.2     1  UNL1        0.1660
     11  C          5.8380    0.2130    1.6840 C.2     1  UNL1        0.1650
     12  O          4.5580    1.8490    0.8830 O.2     1  UNL1       -0.4540
     13  O          4.7140    0.3500    2.4840 O.2     1  UNL1       -0.4540
     14  C          3.9210    1.4350    2.0650 C.3     1  UNL1        0.4680
@<TRIPOS>BOND
     1     3     2    1
     2     2     1    1
     3     2     4    2
     4     1     5    1
     5     5     6    1
     6     8     6    2
     7     8    10    1
     8     6     7    1
     9    10    12    1
    10    10    11    2
    11     7     9    2
    12    12    14    1
    13    11     9    1
    14    11    13    1
    15    14    13    1
