@<TRIPOS>MOLECULE
/home/cewinharhar/GITHUB/reincatalyze/data/processed/docking_pred/2023-May-31-1438_sub9_nm5_bs15_s42_ex16_mel10_mts1000_k50_ec05_g099_lra9e-4_lrc3e-3/035d1107efb5fe3e99d2a33353f0da4e413613a6_ligand_9.pdbqt
 14 15 0 0 0
SMALL
GASTEIGER

@<TRIPOS>ATOM
      1  C          5.6150   -0.3430    2.1720 C.3     1  UNL1        0.0800
      2  C          4.6330    0.7540    1.9490 C.2     1  UNL1        0.1300
      3  C          4.8200    1.7630    0.8720 C.3     1  UNL1        0.0870
      4  O          3.6380    0.8570    2.6490 O.2     1  UNL1       -0.3000
      5  C          6.9770    0.0140    1.6090 C.3     1  UNL1        0.0430
      6  C          7.3800   -0.9040    0.5290 C.2     1  UNL1       -0.0440
      7  C          7.2090   -0.5690   -0.8190 C.2     1  UNL1        0.0080
      8  C          7.9410   -2.1210    0.8420 C.2     1  UNL1        0.0540
      9  C          7.6060   -1.4700   -1.7900 C.2     1  UNL1        0.0510
     10  C          8.3420   -3.0280   -0.1440 C.2     1  UNL1        0.1660
     11  C          8.1730   -2.7000   -1.4700 C.2     1  UNL1        0.1650
     12  O          8.9160   -4.2810   -0.0900 O.2     1  UNL1       -0.4540
     13  O          8.6520   -3.7680   -2.2120 O.2     1  UNL1       -0.4540
     14  C          9.2150   -4.7530   -1.3790 C.3     1  UNL1        0.4680
@<TRIPOS>BOND
     1    13    11    1
     2    13    14    1
     3     9    11    2
     4     9     7    1
     5    11    10    1
     6    14    12    1
     7     7     6    2
     8    10    12    1
     9    10     8    2
    10     6     8    1
    11     6     5    1
    12     3     2    1
    13     5     1    1
    14     2     1    1
    15     2     4    2
