@<TRIPOS>MOLECULE
/home/cewinharhar/GITHUB/reincatalyze/data/processed/docking_pred/2023-May-31-1438_sub9_nm5_bs15_s42_ex16_mel10_mts1000_k50_ec05_g099_lra9e-4_lrc3e-3/035d1107efb5fe3e99d2a33353f0da4e413613a6_ligand_9.pdbqt
 14 15 0 0 0
SMALL
GASTEIGER

@<TRIPOS>ATOM
      1  C          5.2710   -0.1430    2.2920 C.3     1  UNL1        0.0800
      2  C          4.3590    0.9860    1.9560 C.2     1  UNL1        0.1300
      3  C          4.6390    1.9030    0.8180 C.3     1  UNL1        0.0870
      4  O          3.3500    1.1930    2.6090 O.2     1  UNL1       -0.3000
      5  C          6.7100    0.1930    1.9570 C.3     1  UNL1        0.0430
      6  C          7.2570   -0.7090    0.9280 C.2     1  UNL1       -0.0440
      7  C          7.5500   -2.0490    1.2090 C.2     1  UNL1        0.0080
      8  C          7.4870   -0.2350   -0.3430 C.2     1  UNL1        0.0540
      9  C          8.0610   -2.8490    0.2030 C.2     1  UNL1        0.0510
     10  C          8.0030   -1.0480   -1.3570 C.2     1  UNL1        0.1660
     11  C          8.2920   -2.3650   -1.0810 C.2     1  UNL1        0.1650
     12  O          8.3160   -0.8160   -2.6790 O.2     1  UNL1       -0.4540
     13  O          8.7810   -2.9220   -2.2530 O.2     1  UNL1       -0.4540
     14  C          8.7280   -1.9990   -3.3140 C.3     1  UNL1        0.4680
@<TRIPOS>BOND
     1    14    12    1
     2    14    13    1
     3    12    10    1
     4    13    11    1
     5    10    11    2
     6    10     8    1
     7    11     9    1
     8     8     6    2
     9     9     7    2
    10     3     2    1
    11     6     7    1
    12     6     5    1
    13     2     1    1
    14     2     4    2
    15     5     1    1
