@<TRIPOS>MOLECULE
/home/cewinharhar/GITHUB/reincatalyze/data/processed/docking_pred/2023-May-31-1438_sub9_nm5_bs15_s42_ex16_mel10_mts1000_k50_ec05_g099_lra9e-4_lrc3e-3/035d1107efb5fe3e99d2a33353f0da4e413613a6_ligand_9.pdbqt
 14 15 0 0 0
SMALL
GASTEIGER

@<TRIPOS>ATOM
      1  C          5.6510    0.2910    2.5090 C.3     1  UNL1        0.0800
      2  C          4.5060    1.0940    1.9960 C.2     1  UNL1        0.1300
      3  C          4.6060    1.8830    0.7390 C.3     1  UNL1        0.0870
      4  O          3.4440    1.1270    2.5980 O.2     1  UNL1       -0.3000
      5  C          5.7810   -1.0220    1.7620 C.3     1  UNL1        0.0430
      6  C          6.7960   -0.9460    0.6960 C.2     1  UNL1       -0.0440
      7  C          8.0470   -0.3580    0.9160 C.2     1  UNL1        0.0080
      8  C          6.5190   -1.4650   -0.5480 C.2     1  UNL1        0.0540
      9  C          8.9600   -0.3160   -0.1210 C.2     1  UNL1        0.0510
     10  C          7.4460   -1.4210   -1.5940 C.2     1  UNL1        0.1660
     11  C          8.6770   -0.8410   -1.3780 C.2     1  UNL1        0.1650
     12  O          7.4100   -1.8590   -2.9000 O.2     1  UNL1       -0.4540
     13  O          9.3790   -0.9380   -2.5700 O.2     1  UNL1       -0.4540
     14  C          8.6470   -1.6570   -3.5340 C.3     1  UNL1        0.4680
@<TRIPOS>BOND
     1    14    12    1
     2    14    13    1
     3    12    10    1
     4    13    11    1
     5    10    11    2
     6    10     8    1
     7    11     9    1
     8     8     6    2
     9     9     7    2
    10     6     7    1
    11     6     5    1
    12     3     2    1
    13     5     1    1
    14     2     1    1
    15     2     4    2
