@<TRIPOS>MOLECULE
/home/cewinharhar/GITHUB/reincatalyze/data/processed/docking_pred/2023-May-31-1438_sub9_nm5_bs15_s42_ex16_mel10_mts1000_k50_ec05_g099_lra9e-4_lrc3e-3/0493ae4577fb245076a56c9e7bbbfc493763ce5a_ligand_9.pdbqt
 14 15 0 0 0
SMALL
GASTEIGER

@<TRIPOS>ATOM
      1  C          5.6210   -0.0200    1.9240 C.3     1  UNL1        0.0800
      2  C          4.7170    1.1250    1.6230 C.2     1  UNL1        0.1300
      3  C          4.9740    2.0450    0.4830 C.3     1  UNL1        0.0870
      4  O          3.7310    1.3420    2.3100 O.2     1  UNL1       -0.3000
      5  C          7.0260    0.2410    1.4160 C.3     1  UNL1        0.0430
      6  C          7.4220   -0.7320    0.3820 C.2     1  UNL1       -0.0440
      7  C          7.3160   -0.4360   -0.9820 C.2     1  UNL1        0.0080
      8  C          7.9110   -1.9630    0.7550 C.2     1  UNL1        0.0540
      9  C          7.7040   -1.3880   -1.9070 C.2     1  UNL1        0.0510
     10  C          8.3020   -2.9220   -0.1850 C.2     1  UNL1        0.1660
     11  C          8.1970   -2.6320   -1.5270 C.2     1  UNL1        0.1650
     12  O          8.8110   -4.1980   -0.0690 O.2     1  UNL1       -0.4540
     13  O          8.6500   -3.7470   -2.2140 O.2     1  UNL1       -0.4540
     14  C          9.1330   -4.7280   -1.3290 C.3     1  UNL1        0.4680
@<TRIPOS>BOND
     1    13    11    1
     2    13    14    1
     3     9    11    2
     4     9     7    1
     5    11    10    1
     6    14    12    1
     7     7     6    2
     8    10    12    1
     9    10     8    2
    10     6     8    1
    11     6     5    1
    12     3     2    1
    13     5     1    1
    14     2     1    1
    15     2     4    2
