@<TRIPOS>MOLECULE
/home/cewinharhar/GITHUB/reincatalyze/data/processed/docking_pred/2023-May-31-1438_sub9_nm5_bs15_s42_ex16_mel10_mts1000_k50_ec05_g099_lra9e-4_lrc3e-3/0493ae4577fb245076a56c9e7bbbfc493763ce5a_ligand_9.pdbqt
 14 15 0 0 0
SMALL
GASTEIGER

@<TRIPOS>ATOM
      1  C          8.3410    0.2040   -2.6660 C.3     1  UNL1        0.0800
      2  C          8.0400   -1.2520   -2.7480 C.2     1  UNL1        0.1300
      3  C          9.1010   -2.2540   -3.0330 C.3     1  UNL1        0.0870
      4  O          6.9040   -1.6680   -2.5830 O.2     1  UNL1       -0.3000
      5  C          8.8630    0.5820   -1.2940 C.3     1  UNL1        0.0430
      6  C          7.8270    0.4360   -0.2560 C.2     1  UNL1       -0.0440
      7  C          7.9340   -0.5240    0.7570 C.2     1  UNL1        0.0080
      8  C          6.7240    1.2600   -0.2720 C.2     1  UNL1        0.0540
      9  C          6.9310   -0.6140    1.7050 C.2     1  UNL1        0.0510
     10  C          5.7130    1.1650    0.6890 C.2     1  UNL1        0.1660
     11  C          5.8170    0.2200    1.6850 C.2     1  UNL1        0.1650
     12  O          4.5360    1.8560    0.8850 O.2     1  UNL1       -0.4540
     13  O          4.6910    0.3530    2.4820 O.2     1  UNL1       -0.4540
     14  C          3.8970    1.4380    2.0640 C.3     1  UNL1        0.4680
@<TRIPOS>BOND
     1     3     2    1
     2     2     1    1
     3     2     4    2
     4     1     5    1
     5     5     6    1
     6     8     6    2
     7     8    10    1
     8     6     7    1
     9    10    12    1
    10    10    11    2
    11     7     9    2
    12    12    14    1
    13    11     9    1
    14    11    13    1
    15    14    13    1
