@<TRIPOS>MOLECULE
/home/cewinharhar/GITHUB/reincatalyze/data/processed/docking_pred/2023-May-31-1438_sub9_nm5_bs15_s42_ex16_mel10_mts1000_k50_ec05_g099_lra9e-4_lrc3e-3/051d9442833557c4466992e4bdada3c2de553c76_ligand_9.pdbqt
 14 15 0 0 0
SMALL
GASTEIGER

@<TRIPOS>ATOM
      1  C          5.6710    1.3080   -0.2960 C.3     1  UNL1        0.0800
      2  C          5.0630    1.2350    1.0620 C.2     1  UNL1        0.1300
      3  C          5.3240    0.0890    1.9740 C.3     1  UNL1        0.0870
      4  O          4.3280    2.1210    1.4670 O.2     1  UNL1       -0.3000
      5  C          7.1700    1.0870   -0.2410 C.3     1  UNL1        0.0430
      6  C          7.5560   -0.1970   -0.8540 C.2     1  UNL1       -0.0440
      7  C          7.6190   -0.3550   -2.2440 C.2     1  UNL1        0.0080
      8  C          7.8660   -1.2710   -0.0520 C.2     1  UNL1        0.0540
      9  C          7.9880   -1.5830   -2.7630 C.2     1  UNL1        0.0510
     10  C          8.2390   -2.5100   -0.5810 C.2     1  UNL1        0.1660
     11  C          8.3000   -2.6670   -1.9480 C.2     1  UNL1        0.1650
     12  O          8.5890   -3.7120   -0.0040 O.2     1  UNL1       -0.4540
     13  O          8.6910   -3.9760   -2.1840 O.2     1  UNL1       -0.4540
     14  C          8.9730   -4.6470   -0.9790 C.3     1  UNL1        0.4680
@<TRIPOS>BOND
     1     9     7    1
     2     9    11    2
     3     7     6    2
     4    13    11    1
     5    13    14    1
     6    11    10    1
     7    14    12    1
     8     6     5    1
     9     6     8    1
    10    10     8    2
    11    10    12    1
    12     1     5    1
    13     1     2    1
    14     2     4    2
    15     2     3    1
