MODEL 1
REMARK VINA RESULT:      -7.6      0.000      0.000
REMARK SMILES CC(=O)CCc1ccc2c(c1)OCO2
REMARK SMILES IDX 4 1 2 2 1 3 3 4 5 5 6 6 7 7 11 8 8 9 10 10 9 11 12 12 14 13
REMARK SMILES IDX 13 14
REMARK H PARENT
REMARK Flexibility Score: inf
ROOT
ATOM      1  C   UNL     1       5.541   1.850   1.313  1.00  0.00     0.080 C 
ENDROOT
BRANCH   1   2
ATOM      2  C   UNL     1       5.081   0.629   2.032  1.00  0.00     0.130 C 
ATOM      3  C   UNL     1       5.954  -0.566   2.178  1.00  0.00     0.087 C 
ATOM      4  O   UNL     1       3.966   0.574   2.524  1.00  0.00    -0.300 OA
ENDBRANCH   1   2
BRANCH   1   5
ATOM      5  C   UNL     1       5.405   1.689  -0.188  1.00  0.00     0.043 C 
BRANCH   5   6
ATOM      6  C   UNL     1       6.570   1.001  -0.772  1.00  0.00    -0.044 A 
ATOM      7  C   UNL     1       7.875   1.458  -0.557  1.00  0.00     0.008 A 
ATOM      8  C   UNL     1       6.382  -0.121  -1.547  1.00  0.00     0.054 A 
ATOM      9  C   UNL     1       8.930   0.771  -1.129  1.00  0.00     0.051 A 
ATOM     10  C   UNL     1       7.452  -0.813  -2.123  1.00  0.00     0.166 A 
ATOM     11  C   UNL     1       8.736  -0.362  -1.913  1.00  0.00     0.165 A 
ATOM     12  O   UNL     1       7.525  -1.934  -2.921  1.00  0.00    -0.454 OA
ATOM     13  O   UNL     1       9.580  -1.227  -2.592  1.00  0.00    -0.454 OA
ATOM     14  C   UNL     1       8.861  -2.290  -3.170  1.00  0.00     0.468 C 
ENDBRANCH   5   6
ENDBRANCH   1   5
TORSDOF 3
ENDMDL
MODEL 2
REMARK VINA RESULT:      -7.4      1.903      2.371
REMARK SMILES CC(=O)CCc1ccc2c(c1)OCO2
REMARK SMILES IDX 4 1 2 2 1 3 3 4 5 5 6 6 7 7 11 8 8 9 10 10 9 11 12 12 14 13
REMARK SMILES IDX 13 14
REMARK H PARENT
REMARK Flexibility Score: inf
ROOT
ATOM      1  C   UNL     1       5.671   1.308  -0.296  1.00  0.00     0.080 C 
ENDROOT
BRANCH   1   2
ATOM      2  C   UNL     1       5.063   1.235   1.062  1.00  0.00     0.130 C 
ATOM      3  C   UNL     1       5.324   0.089   1.974  1.00  0.00     0.087 C 
ATOM      4  O   UNL     1       4.328   2.121   1.467  1.00  0.00    -0.300 OA
ENDBRANCH   1   2
BRANCH   1   5
ATOM      5  C   UNL     1       7.170   1.087  -0.241  1.00  0.00     0.043 C 
BRANCH   5   6
ATOM      6  C   UNL     1       7.556  -0.197  -0.854  1.00  0.00    -0.044 A 
ATOM      7  C   UNL     1       7.619  -0.355  -2.244  1.00  0.00     0.008 A 
ATOM      8  C   UNL     1       7.866  -1.271  -0.052  1.00  0.00     0.054 A 
ATOM      9  C   UNL     1       7.988  -1.583  -2.763  1.00  0.00     0.051 A 
ATOM     10  C   UNL     1       8.239  -2.510  -0.581  1.00  0.00     0.166 A 
ATOM     11  C   UNL     1       8.300  -2.667  -1.948  1.00  0.00     0.165 A 
ATOM     12  O   UNL     1       8.589  -3.712  -0.004  1.00  0.00    -0.454 OA
ATOM     13  O   UNL     1       8.691  -3.976  -2.184  1.00  0.00    -0.454 OA
ATOM     14  C   UNL     1       8.973  -4.647  -0.979  1.00  0.00     0.468 C 
ENDBRANCH   5   6
ENDBRANCH   1   5
TORSDOF 3
ENDMDL
MODEL 3
REMARK VINA RESULT:      -7.2      2.031      2.579
REMARK SMILES CC(=O)CCc1ccc2c(c1)OCO2
REMARK SMILES IDX 4 1 2 2 1 3 3 4 5 5 6 6 7 7 11 8 8 9 10 10 9 11 12 12 14 13
REMARK SMILES IDX 13 14
REMARK H PARENT
REMARK Flexibility Score: inf
ROOT
ATOM      1  C   UNL     1       5.481  -0.006   2.021  1.00  0.00     0.080 C 
ENDROOT
BRANCH   1   2
ATOM      2  C   UNL     1       4.587   1.154   1.749  1.00  0.00     0.130 C 
ATOM      3  C   UNL     1       4.879   2.127   0.662  1.00  0.00     0.087 C 
ATOM      4  O   UNL     1       3.583   1.341   2.416  1.00  0.00    -0.300 OA
ENDBRANCH   1   2
BRANCH   1   5
ATOM      5  C   UNL     1       6.895   0.266   1.547  1.00  0.00     0.043 C 
BRANCH   5   6
ATOM      6  C   UNL     1       7.306  -0.672   0.488  1.00  0.00    -0.044 A 
ATOM      7  C   UNL     1       7.169  -0.353  -0.868  1.00  0.00     0.008 A 
ATOM      8  C   UNL     1       7.842  -1.894   0.828  1.00  0.00     0.054 A 
ATOM      9  C   UNL     1       7.573  -1.273  -1.819  1.00  0.00     0.051 A 
ATOM     10  C   UNL     1       8.249  -2.820  -0.137  1.00  0.00     0.166 A 
ATOM     11  C   UNL     1       8.113  -2.507  -1.471  1.00  0.00     0.165 A 
ATOM     12  O   UNL     1       8.801  -4.081  -0.055  1.00  0.00    -0.454 OA
ATOM     13  O   UNL     1       8.591  -3.593  -2.188  1.00  0.00    -0.454 OA
ATOM     14  C   UNL     1       9.120  -4.575  -1.330  1.00  0.00     0.468 C 
ENDBRANCH   5   6
ENDBRANCH   1   5
TORSDOF 3
ENDMDL
MODEL 4
REMARK VINA RESULT:      -7.1      1.225      1.409
REMARK SMILES CC(=O)CCc1ccc2c(c1)OCO2
REMARK SMILES IDX 4 1 2 2 1 3 3 4 5 5 6 6 7 7 11 8 8 9 10 10 9 11 12 12 14 13
REMARK SMILES IDX 13 14
REMARK H PARENT
REMARK Flexibility Score: inf
ROOT
ATOM      1  C   UNL     1       6.354   1.223   0.941  1.00  0.00     0.080 C 
ENDROOT
BRANCH   1   2
ATOM      2  C   UNL     1       5.651   0.369   1.939  1.00  0.00     0.130 C 
ATOM      3  C   UNL     1       6.279  -0.857   2.499  1.00  0.00     0.087 C 
ATOM      4  O   UNL     1       4.529   0.654   2.328  1.00  0.00    -0.300 OA
ENDBRANCH   1   2
BRANCH   1   5
ATOM      5  C   UNL     1       5.848   0.958  -0.463  1.00  0.00     0.043 C 
BRANCH   5   6
ATOM      6  C   UNL     1       6.797   0.141  -1.241  1.00  0.00    -0.044 A 
ATOM      7  C   UNL     1       7.486   0.665  -2.340  1.00  0.00     0.008 A 
ATOM      8  C   UNL     1       7.020  -1.169  -0.884  1.00  0.00     0.054 A 
ATOM      9  C   UNL     1       8.364  -0.149  -3.032  1.00  0.00     0.051 A 
ATOM     10  C   UNL     1       7.910  -1.988  -1.585  1.00  0.00     0.166 A 
ATOM     11  C   UNL     1       8.587  -1.474  -2.669  1.00  0.00     0.165 A 
ATOM     12  O   UNL     1       8.299  -3.302  -1.432  1.00  0.00    -0.454 OA
ATOM     13  O   UNL     1       9.387  -2.492  -3.162  1.00  0.00    -0.454 OA
ATOM     14  C   UNL     1       9.303  -3.641  -2.353  1.00  0.00     0.468 C 
ENDBRANCH   5   6
ENDBRANCH   1   5
TORSDOF 3
ENDMDL
MODEL 5
REMARK VINA RESULT:      -6.8      1.263      1.748
REMARK SMILES CC(=O)CCc1ccc2c(c1)OCO2
REMARK SMILES IDX 4 1 2 2 1 3 3 4 5 5 6 6 7 7 11 8 8 9 10 10 9 11 12 12 14 13
REMARK SMILES IDX 13 14
REMARK H PARENT
REMARK Flexibility Score: inf
ROOT
ATOM      1  C   UNL     1       5.316  -0.083   1.973  1.00  0.00     0.080 C 
ENDROOT
BRANCH   1   2
ATOM      2  C   UNL     1       4.458   1.123   1.803  1.00  0.00     0.130 C 
ATOM      3  C   UNL     1       4.752   2.150   0.767  1.00  0.00     0.087 C 
ATOM      4  O   UNL     1       3.483   1.305   2.514  1.00  0.00    -0.300 OA
ENDBRANCH   1   2
BRANCH   1   5
ATOM      5  C   UNL     1       6.787   0.276   1.921  1.00  0.00     0.043 C 
BRANCH   5   6
ATOM      6  C   UNL     1       7.388  -0.069   0.620  1.00  0.00    -0.044 A 
ATOM      7  C   UNL     1       7.863   0.917  -0.253  1.00  0.00     0.008 A 
ATOM      8  C   UNL     1       7.492  -1.389   0.245  1.00  0.00     0.054 A 
ATOM      9  C   UNL     1       8.418   0.533  -1.460  1.00  0.00     0.051 A 
ATOM     10  C   UNL     1       8.054  -1.772  -0.976  1.00  0.00     0.166 A 
ATOM     11  C   UNL     1       8.521  -0.803  -1.836  1.00  0.00     0.165 A 
ATOM     12  O   UNL     1       8.267  -2.998  -1.569  1.00  0.00    -0.454 OA
ATOM     13  O   UNL     1       9.016  -1.461  -2.951  1.00  0.00    -0.454 OA
ATOM     14  C   UNL     1       8.958  -2.858  -2.784  1.00  0.00     0.468 C 
ENDBRANCH   5   6
ENDBRANCH   1   5
TORSDOF 3
ENDMDL
