@<TRIPOS>MOLECULE
/home/cewinharhar/GITHUB/reincatalyze/data/processed/docking_pred/2023-May-31-1438_sub9_nm5_bs15_s42_ex16_mel10_mts1000_k50_ec05_g099_lra9e-4_lrc3e-3/051d9442833557c4466992e4bdada3c2de553c76_ligand_9.pdbqt
 14 15 0 0 0
SMALL
GASTEIGER

@<TRIPOS>ATOM
      1  C          5.4810   -0.0060    2.0210 C.3     1  UNL1        0.0800
      2  C          4.5870    1.1540    1.7490 C.2     1  UNL1        0.1300
      3  C          4.8790    2.1270    0.6620 C.3     1  UNL1        0.0870
      4  O          3.5830    1.3410    2.4160 O.2     1  UNL1       -0.3000
      5  C          6.8950    0.2660    1.5470 C.3     1  UNL1        0.0430
      6  C          7.3060   -0.6720    0.4880 C.2     1  UNL1       -0.0440
      7  C          7.1690   -0.3530   -0.8680 C.2     1  UNL1        0.0080
      8  C          7.8420   -1.8940    0.8280 C.2     1  UNL1        0.0540
      9  C          7.5730   -1.2730   -1.8190 C.2     1  UNL1        0.0510
     10  C          8.2490   -2.8200   -0.1370 C.2     1  UNL1        0.1660
     11  C          8.1130   -2.5070   -1.4710 C.2     1  UNL1        0.1650
     12  O          8.8010   -4.0810   -0.0550 O.2     1  UNL1       -0.4540
     13  O          8.5910   -3.5930   -2.1880 O.2     1  UNL1       -0.4540
     14  C          9.1200   -4.5750   -1.3300 C.3     1  UNL1        0.4680
@<TRIPOS>BOND
     1    13    11    1
     2    13    14    1
     3     9    11    2
     4     9     7    1
     5    11    10    1
     6    14    12    1
     7     7     6    2
     8    10    12    1
     9    10     8    2
    10     6     8    1
    11     6     5    1
    12     3     2    1
    13     5     1    1
    14     2     1    1
    15     2     4    2
