@<TRIPOS>MOLECULE
/home/cewinharhar/GITHUB/reincatalyze/data/processed/docking_pred/2023-May-31-1438_sub9_nm5_bs15_s42_ex16_mel10_mts1000_k50_ec05_g099_lra9e-4_lrc3e-3/051d9442833557c4466992e4bdada3c2de553c76_ligand_9.pdbqt
 14 15 0 0 0
SMALL
GASTEIGER

@<TRIPOS>ATOM
      1  C          5.3160   -0.0830    1.9730 C.3     1  UNL1        0.0800
      2  C          4.4580    1.1230    1.8030 C.2     1  UNL1        0.1300
      3  C          4.7520    2.1500    0.7670 C.3     1  UNL1        0.0870
      4  O          3.4830    1.3050    2.5140 O.2     1  UNL1       -0.3000
      5  C          6.7870    0.2760    1.9210 C.3     1  UNL1        0.0430
      6  C          7.3880   -0.0690    0.6200 C.2     1  UNL1       -0.0440
      7  C          7.8630    0.9170   -0.2530 C.2     1  UNL1        0.0080
      8  C          7.4920   -1.3890    0.2450 C.2     1  UNL1        0.0540
      9  C          8.4180    0.5330   -1.4600 C.2     1  UNL1        0.0510
     10  C          8.0540   -1.7720   -0.9760 C.2     1  UNL1        0.1660
     11  C          8.5210   -0.8030   -1.8360 C.2     1  UNL1        0.1650
     12  O          8.2670   -2.9980   -1.5690 O.2     1  UNL1       -0.4540
     13  O          9.0160   -1.4610   -2.9510 O.2     1  UNL1       -0.4540
     14  C          8.9580   -2.8580   -2.7840 C.3     1  UNL1        0.4680
@<TRIPOS>BOND
     1    13    14    1
     2    13    11    1
     3    14    12    1
     4    11     9    2
     5    11    10    1
     6    12    10    1
     7     9     7    1
     8    10     8    2
     9     7     6    2
    10     8     6    1
    11     6     5    1
    12     3     2    1
    13     2     1    1
    14     2     4    2
    15     5     1    1
