@<TRIPOS>MOLECULE
/home/cewinharhar/GITHUB/reincatalyze/data/processed/docking_pred/2023-May-31-1438_sub9_nm5_bs15_s42_ex16_mel10_mts1000_k50_ec05_g099_lra9e-4_lrc3e-3/051d9442833557c4466992e4bdada3c2de553c76_ligand_9.pdbqt
 14 15 0 0 0
SMALL
GASTEIGER

@<TRIPOS>ATOM
      1  C          6.3540    1.2230    0.9410 C.3     1  UNL1        0.0800
      2  C          5.6510    0.3690    1.9390 C.2     1  UNL1        0.1300
      3  C          6.2790   -0.8570    2.4990 C.3     1  UNL1        0.0870
      4  O          4.5290    0.6540    2.3280 O.2     1  UNL1       -0.3000
      5  C          5.8480    0.9580   -0.4630 C.3     1  UNL1        0.0430
      6  C          6.7970    0.1410   -1.2410 C.2     1  UNL1       -0.0440
      7  C          7.4860    0.6650   -2.3400 C.2     1  UNL1        0.0080
      8  C          7.0200   -1.1690   -0.8840 C.2     1  UNL1        0.0540
      9  C          8.3640   -0.1490   -3.0320 C.2     1  UNL1        0.0510
     10  C          7.9100   -1.9880   -1.5850 C.2     1  UNL1        0.1660
     11  C          8.5870   -1.4740   -2.6690 C.2     1  UNL1        0.1650
     12  O          8.2990   -3.3020   -1.4320 O.2     1  UNL1       -0.4540
     13  O          9.3870   -2.4920   -3.1620 O.2     1  UNL1       -0.4540
     14  C          9.3030   -3.6410   -2.3530 C.3     1  UNL1        0.4680
@<TRIPOS>BOND
     1    13    11    1
     2    13    14    1
     3     9    11    2
     4     9     7    1
     5    11    10    1
     6    14    12    1
     7     7     6    2
     8    10    12    1
     9    10     8    2
    10     6     8    1
    11     6     5    1
    12     5     1    1
    13     1     2    1
    14     2     4    2
    15     2     3    1
