MODEL 1
REMARK VINA RESULT:      -7.6      0.000      0.000
REMARK SMILES CC(=O)CCc1ccc2c(c1)OCO2
REMARK SMILES IDX 4 1 2 2 1 3 3 4 5 5 6 6 7 7 11 8 8 9 10 10 9 11 12 12 14 13
REMARK SMILES IDX 13 14
REMARK H PARENT
REMARK Flexibility Score: inf
ROOT
ATOM      1  C   UNL     1       5.580   1.855   1.292  1.00  0.00     0.080 C 
ENDROOT
BRANCH   1   2
ATOM      2  C   UNL     1       5.114   0.640   2.018  1.00  0.00     0.130 C 
ATOM      3  C   UNL     1       5.990  -0.549   2.194  1.00  0.00     0.087 C 
ATOM      4  O   UNL     1       3.991   0.586   2.493  1.00  0.00    -0.300 OA
ENDBRANCH   1   2
BRANCH   1   5
ATOM      5  C   UNL     1       5.441   1.687  -0.208  1.00  0.00     0.043 C 
BRANCH   5   6
ATOM      6  C   UNL     1       6.602   0.990  -0.789  1.00  0.00    -0.044 A 
ATOM      7  C   UNL     1       7.910   1.442  -0.579  1.00  0.00     0.008 A 
ATOM      8  C   UNL     1       6.408  -0.135  -1.558  1.00  0.00     0.054 A 
ATOM      9  C   UNL     1       8.961   0.747  -1.149  1.00  0.00     0.051 A 
ATOM     10  C   UNL     1       7.474  -0.835  -2.132  1.00  0.00     0.166 A 
ATOM     11  C   UNL     1       8.761  -0.390  -1.926  1.00  0.00     0.165 A 
ATOM     12  O   UNL     1       7.540  -1.962  -2.924  1.00  0.00    -0.454 OA
ATOM     13  O   UNL     1       9.599  -1.262  -2.602  1.00  0.00    -0.454 OA
ATOM     14  C   UNL     1       8.874  -2.325  -3.172  1.00  0.00     0.468 C 
ENDBRANCH   5   6
ENDBRANCH   1   5
TORSDOF 3
ENDMDL
MODEL 2
REMARK VINA RESULT:      -7.4      1.870      2.327
REMARK SMILES CC(=O)CCc1ccc2c(c1)OCO2
REMARK SMILES IDX 4 1 2 2 1 3 3 4 5 5 6 6 7 7 11 8 8 9 10 10 9 11 12 12 14 13
REMARK SMILES IDX 13 14
REMARK H PARENT
REMARK Flexibility Score: inf
ROOT
ATOM      1  C   UNL     1       5.783   1.418  -0.261  1.00  0.00     0.080 C 
ENDROOT
BRANCH   1   2
ATOM      2  C   UNL     1       5.158   1.273   1.084  1.00  0.00     0.130 C 
ATOM      3  C   UNL     1       5.379   0.064   1.922  1.00  0.00     0.087 C 
ATOM      4  O   UNL     1       4.442   2.150   1.540  1.00  0.00    -0.300 OA
ENDBRANCH   1   2
BRANCH   1   5
ATOM      5  C   UNL     1       7.274   1.152  -0.206  1.00  0.00     0.043 C 
BRANCH   5   6
ATOM      6  C   UNL     1       7.623  -0.134  -0.836  1.00  0.00    -0.044 A 
ATOM      7  C   UNL     1       7.629  -0.291  -2.227  1.00  0.00     0.008 A 
ATOM      8  C   UNL     1       7.955  -1.212  -0.047  1.00  0.00     0.054 A 
ATOM      9  C   UNL     1       7.966  -1.521  -2.761  1.00  0.00     0.051 A 
ATOM     10  C   UNL     1       8.296  -2.453  -0.593  1.00  0.00     0.166 A 
ATOM     11  C   UNL     1       8.301  -2.609  -1.961  1.00  0.00     0.165 A 
ATOM     12  O   UNL     1       8.657  -3.659  -0.031  1.00  0.00    -0.454 OA
ATOM     13  O   UNL     1       8.670  -3.921  -2.214  1.00  0.00    -0.454 OA
ATOM     14  C   UNL     1       8.993  -4.596  -1.022  1.00  0.00     0.468 C 
ENDBRANCH   5   6
ENDBRANCH   1   5
TORSDOF 3
ENDMDL
MODEL 3
REMARK VINA RESULT:      -7.2      2.053      2.587
REMARK SMILES CC(=O)CCc1ccc2c(c1)OCO2
REMARK SMILES IDX 4 1 2 2 1 3 3 4 5 5 6 6 7 7 11 8 8 9 10 10 9 11 12 12 14 13
REMARK SMILES IDX 13 14
REMARK H PARENT
REMARK Flexibility Score: inf
ROOT
ATOM      1  C   UNL     1       5.571   0.020   1.997  1.00  0.00     0.080 C 
ENDROOT
BRANCH   1   2
ATOM      2  C   UNL     1       4.663   1.151   1.656  1.00  0.00     0.130 C 
ATOM      3  C   UNL     1       4.962   2.081   0.534  1.00  0.00     0.087 C 
ATOM      4  O   UNL     1       3.641   1.348   2.293  1.00  0.00    -0.300 OA
ENDBRANCH   1   2
BRANCH   1   5
ATOM      5  C   UNL     1       6.981   0.278   1.504  1.00  0.00     0.043 C 
BRANCH   5   6
ATOM      6  C   UNL     1       7.378  -0.680   0.458  1.00  0.00    -0.044 A 
ATOM      7  C   UNL     1       7.255  -0.373  -0.902  1.00  0.00     0.008 A 
ATOM      8  C   UNL     1       7.887  -1.908   0.815  1.00  0.00     0.054 A 
ATOM      9  C   UNL     1       7.645  -1.312  -1.840  1.00  0.00     0.051 A 
ATOM     10  C   UNL     1       8.280  -2.853  -0.137  1.00  0.00     0.166 A 
ATOM     11  C   UNL     1       8.158  -2.553  -1.476  1.00  0.00     0.165 A 
ATOM     12  O   UNL     1       8.806  -4.124  -0.038  1.00  0.00    -0.454 OA
ATOM     13  O   UNL     1       8.617  -3.656  -2.178  1.00  0.00    -0.454 OA
ATOM     14  C   UNL     1       9.122  -4.640  -1.306  1.00  0.00     0.468 C 
ENDBRANCH   5   6
ENDBRANCH   1   5
TORSDOF 3
ENDMDL
MODEL 4
REMARK VINA RESULT:      -7.1      1.243      1.439
REMARK SMILES CC(=O)CCc1ccc2c(c1)OCO2
REMARK SMILES IDX 4 1 2 2 1 3 3 4 5 5 6 6 7 7 11 8 8 9 10 10 9 11 12 12 14 13
REMARK SMILES IDX 13 14
REMARK H PARENT
REMARK Flexibility Score: inf
ROOT
ATOM      1  C   UNL     1       6.392   1.169   0.963  1.00  0.00     0.080 C 
ENDROOT
BRANCH   1   2
ATOM      2  C   UNL     1       5.645   0.343   1.952  1.00  0.00     0.130 C 
ATOM      3  C   UNL     1       6.234  -0.886   2.547  1.00  0.00     0.087 C 
ATOM      4  O   UNL     1       4.518   0.654   2.304  1.00  0.00    -0.300 OA
ENDBRANCH   1   2
BRANCH   1   5
ATOM      5  C   UNL     1       5.893   0.926  -0.447  1.00  0.00     0.043 C 
BRANCH   5   6
ATOM      6  C   UNL     1       6.830   0.093  -1.223  1.00  0.00    -0.044 A 
ATOM      7  C   UNL     1       7.494   0.592  -2.349  1.00  0.00     0.008 A 
ATOM      8  C   UNL     1       7.066  -1.207  -0.838  1.00  0.00     0.054 A 
ATOM      9  C   UNL     1       8.363  -0.235  -3.037  1.00  0.00     0.051 A 
ATOM     10  C   UNL     1       7.946  -2.039  -1.536  1.00  0.00     0.166 A 
ATOM     11  C   UNL     1       8.599  -1.549  -2.645  1.00  0.00     0.165 A 
ATOM     12  O   UNL     1       8.344  -3.347  -1.358  1.00  0.00    -0.454 OA
ATOM     13  O   UNL     1       9.394  -2.577  -3.129  1.00  0.00    -0.454 OA
ATOM     14  C   UNL     1       9.331  -3.706  -2.290  1.00  0.00     0.468 C 
ENDBRANCH   5   6
ENDBRANCH   1   5
TORSDOF 3
ENDMDL
MODEL 5
REMARK VINA RESULT:      -6.8      1.241      1.729
REMARK SMILES CC(=O)CCc1ccc2c(c1)OCO2
REMARK SMILES IDX 4 1 2 2 1 3 3 4 5 5 6 6 7 7 11 8 8 9 10 10 9 11 12 12 14 13
REMARK SMILES IDX 13 14
REMARK H PARENT
REMARK Flexibility Score: inf
ROOT
ATOM      1  C   UNL     1       5.324  -0.082   1.972  1.00  0.00     0.080 C 
ENDROOT
BRANCH   1   2
ATOM      2  C   UNL     1       4.445   1.108   1.796  1.00  0.00     0.130 C 
ATOM      3  C   UNL     1       4.734   2.147   0.771  1.00  0.00     0.087 C 
ATOM      4  O   UNL     1       3.457   1.266   2.494  1.00  0.00    -0.300 OA
ENDBRANCH   1   2
BRANCH   1   5
ATOM      5  C   UNL     1       6.789   0.302   1.912  1.00  0.00     0.043 C 
BRANCH   5   6
ATOM      6  C   UNL     1       7.390  -0.040   0.610  1.00  0.00    -0.044 A 
ATOM      7  C   UNL     1       7.877   0.948  -0.254  1.00  0.00     0.008 A 
ATOM      8  C   UNL     1       7.483  -1.358   0.227  1.00  0.00     0.054 A 
ATOM      9  C   UNL     1       8.431   0.567  -1.463  1.00  0.00     0.051 A 
ATOM     10  C   UNL     1       8.045  -1.738  -0.996  1.00  0.00     0.166 A 
ATOM     11  C   UNL     1       8.523  -0.767  -1.848  1.00  0.00     0.165 A 
ATOM     12  O   UNL     1       8.248  -2.962  -1.597  1.00  0.00    -0.454 OA
ATOM     13  O   UNL     1       9.015  -1.422  -2.966  1.00  0.00    -0.454 OA
ATOM     14  C   UNL     1       8.943  -2.819  -2.809  1.00  0.00     0.468 C 
ENDBRANCH   5   6
ENDBRANCH   1   5
TORSDOF 3
ENDMDL
