@<TRIPOS>MOLECULE
/home/cewinharhar/GITHUB/reincatalyze/data/processed/docking_pred/2023-May-31-1438_sub9_nm5_bs15_s42_ex16_mel10_mts1000_k50_ec05_g099_lra9e-4_lrc3e-3/05fc2472135fbee8f2c0d268145bdd055e68f396_ligand_9.pdbqt
 14 15 0 0 0
SMALL
GASTEIGER

@<TRIPOS>ATOM
      1  C          5.5800    1.8550    1.2920 C.3     1  UNL1        0.0800
      2  C          5.1140    0.6400    2.0180 C.2     1  UNL1        0.1300
      3  C          5.9900   -0.5490    2.1940 C.3     1  UNL1        0.0870
      4  O          3.9910    0.5860    2.4930 O.2     1  UNL1       -0.3000
      5  C          5.4410    1.6870   -0.2080 C.3     1  UNL1        0.0430
      6  C          6.6020    0.9900   -0.7890 C.2     1  UNL1       -0.0440
      7  C          7.9100    1.4420   -0.5790 C.2     1  UNL1        0.0080
      8  C          6.4080   -0.1350   -1.5580 C.2     1  UNL1        0.0540
      9  C          8.9610    0.7470   -1.1490 C.2     1  UNL1        0.0510
     10  C          7.4740   -0.8350   -2.1320 C.2     1  UNL1        0.1660
     11  C          8.7610   -0.3900   -1.9260 C.2     1  UNL1        0.1650
     12  O          7.5400   -1.9620   -2.9240 O.2     1  UNL1       -0.4540
     13  O          9.5990   -1.2620   -2.6020 O.2     1  UNL1       -0.4540
     14  C          8.8740   -2.3250   -3.1720 C.3     1  UNL1        0.4680
@<TRIPOS>BOND
     1    14    12    1
     2    14    13    1
     3    12    10    1
     4    13    11    1
     5    10    11    2
     6    10     8    1
     7    11     9    1
     8     8     6    2
     9     9     7    2
    10     6     7    1
    11     6     5    1
    12     5     1    1
    13     1     2    1
    14     2     3    1
    15     2     4    2
