@<TRIPOS>MOLECULE
/home/cewinharhar/GITHUB/reincatalyze/data/processed/docking_pred/2023-May-31-1438_sub9_nm5_bs15_s42_ex16_mel10_mts1000_k50_ec05_g099_lra9e-4_lrc3e-3/05fc2472135fbee8f2c0d268145bdd055e68f396_ligand_9.pdbqt
 14 15 0 0 0
SMALL
GASTEIGER

@<TRIPOS>ATOM
      1  C          5.5710    0.0200    1.9970 C.3     1  UNL1        0.0800
      2  C          4.6630    1.1510    1.6560 C.2     1  UNL1        0.1300
      3  C          4.9620    2.0810    0.5340 C.3     1  UNL1        0.0870
      4  O          3.6410    1.3480    2.2930 O.2     1  UNL1       -0.3000
      5  C          6.9810    0.2780    1.5040 C.3     1  UNL1        0.0430
      6  C          7.3780   -0.6800    0.4580 C.2     1  UNL1       -0.0440
      7  C          7.2550   -0.3730   -0.9020 C.2     1  UNL1        0.0080
      8  C          7.8870   -1.9080    0.8150 C.2     1  UNL1        0.0540
      9  C          7.6450   -1.3120   -1.8400 C.2     1  UNL1        0.0510
     10  C          8.2800   -2.8530   -0.1370 C.2     1  UNL1        0.1660
     11  C          8.1580   -2.5530   -1.4760 C.2     1  UNL1        0.1650
     12  O          8.8060   -4.1240   -0.0380 O.2     1  UNL1       -0.4540
     13  O          8.6170   -3.6560   -2.1780 O.2     1  UNL1       -0.4540
     14  C          9.1220   -4.6400   -1.3060 C.3     1  UNL1        0.4680
@<TRIPOS>BOND
     1    13    11    1
     2    13    14    1
     3     9    11    2
     4     9     7    1
     5    11    10    1
     6    14    12    1
     7     7     6    2
     8    10    12    1
     9    10     8    2
    10     6     8    1
    11     6     5    1
    12     3     2    1
    13     5     1    1
    14     2     1    1
    15     2     4    2
