@<TRIPOS>MOLECULE
/home/cewinharhar/GITHUB/reincatalyze/data/processed/docking_pred/2023-May-31-1438_sub9_nm5_bs15_s42_ex16_mel10_mts1000_k50_ec05_g099_lra9e-4_lrc3e-3/05fc2472135fbee8f2c0d268145bdd055e68f396_ligand_9.pdbqt
 14 15 0 0 0
SMALL
GASTEIGER

@<TRIPOS>ATOM
      1  C          5.3240   -0.0820    1.9720 C.3     1  UNL1        0.0800
      2  C          4.4450    1.1080    1.7960 C.2     1  UNL1        0.1300
      3  C          4.7340    2.1470    0.7710 C.3     1  UNL1        0.0870
      4  O          3.4570    1.2660    2.4940 O.2     1  UNL1       -0.3000
      5  C          6.7890    0.3020    1.9120 C.3     1  UNL1        0.0430
      6  C          7.3900   -0.0400    0.6100 C.2     1  UNL1       -0.0440
      7  C          7.8770    0.9480   -0.2540 C.2     1  UNL1        0.0080
      8  C          7.4830   -1.3580    0.2270 C.2     1  UNL1        0.0540
      9  C          8.4310    0.5670   -1.4630 C.2     1  UNL1        0.0510
     10  C          8.0450   -1.7380   -0.9960 C.2     1  UNL1        0.1660
     11  C          8.5230   -0.7670   -1.8480 C.2     1  UNL1        0.1650
     12  O          8.2480   -2.9620   -1.5970 O.2     1  UNL1       -0.4540
     13  O          9.0150   -1.4220   -2.9660 O.2     1  UNL1       -0.4540
     14  C          8.9430   -2.8190   -2.8090 C.3     1  UNL1        0.4680
@<TRIPOS>BOND
     1    13    14    1
     2    13    11    1
     3    14    12    1
     4    11     9    2
     5    11    10    1
     6    12    10    1
     7     9     7    1
     8    10     8    2
     9     7     6    2
    10     8     6    1
    11     6     5    1
    12     3     2    1
    13     2     1    1
    14     2     4    2
    15     5     1    1
