@<TRIPOS>MOLECULE
/home/cewinharhar/GITHUB/reincatalyze/data/processed/docking_pred/2023-May-31-1438_sub9_nm5_bs15_s42_ex16_mel10_mts1000_k50_ec05_g099_lra9e-4_lrc3e-3/05fc2472135fbee8f2c0d268145bdd055e68f396_ligand_9.pdbqt
 14 15 0 0 0
SMALL
GASTEIGER

@<TRIPOS>ATOM
      1  C          5.7830    1.4180   -0.2610 C.3     1  UNL1        0.0800
      2  C          5.1580    1.2730    1.0840 C.2     1  UNL1        0.1300
      3  C          5.3790    0.0640    1.9220 C.3     1  UNL1        0.0870
      4  O          4.4420    2.1500    1.5400 O.2     1  UNL1       -0.3000
      5  C          7.2740    1.1520   -0.2060 C.3     1  UNL1        0.0430
      6  C          7.6230   -0.1340   -0.8360 C.2     1  UNL1       -0.0440
      7  C          7.6290   -0.2910   -2.2270 C.2     1  UNL1        0.0080
      8  C          7.9550   -1.2120   -0.0470 C.2     1  UNL1        0.0540
      9  C          7.9660   -1.5210   -2.7610 C.2     1  UNL1        0.0510
     10  C          8.2960   -2.4530   -0.5930 C.2     1  UNL1        0.1660
     11  C          8.3010   -2.6090   -1.9610 C.2     1  UNL1        0.1650
     12  O          8.6570   -3.6590   -0.0310 O.2     1  UNL1       -0.4540
     13  O          8.6700   -3.9210   -2.2140 O.2     1  UNL1       -0.4540
     14  C          8.9930   -4.5960   -1.0220 C.3     1  UNL1        0.4680
@<TRIPOS>BOND
     1     9     7    1
     2     9    11    2
     3     7     6    2
     4    13    11    1
     5    13    14    1
     6    11    10    1
     7    14    12    1
     8     6     5    1
     9     6     8    1
    10    10     8    2
    11    10    12    1
    12     1     5    1
    13     1     2    1
    14     2     4    2
    15     2     3    1
