@<TRIPOS>MOLECULE
/home/cewinharhar/GITHUB/reincatalyze/data/processed/docking_pred/2023-May-31-1438_sub9_nm5_bs15_s42_ex16_mel10_mts1000_k50_ec05_g099_lra9e-4_lrc3e-3/08a74a7e320cd1ecb560e86b752820c061dfae11_ligand_9.pdbqt
 14 15 0 0 0
SMALL
GASTEIGER

@<TRIPOS>ATOM
      1  C          6.8070    0.7260    1.3840 C.3     1  UNL1        0.0800
      2  C          5.3820    1.1560    1.4500 C.2     1  UNL1        0.1300
      3  C          4.8210    2.1490    0.4960 C.3     1  UNL1        0.0870
      4  O          4.6290    0.7010    2.2960 O.2     1  UNL1       -0.3000
      5  C          7.3870    0.9560    0.0020 C.3     1  UNL1        0.0430
      6  C          7.6960   -0.3140   -0.6790 C.2     1  UNL1       -0.0440
      7  C          7.6870   -0.4180   -2.0750 C.2     1  UNL1        0.0080
      8  C          8.0030   -1.4300    0.0650 C.2     1  UNL1        0.0540
      9  C          7.9850   -1.6350   -2.6590 C.2     1  UNL1        0.0510
     10  C          8.3050   -2.6590   -0.5310 C.2     1  UNL1        0.1660
     11  C          8.2950   -2.7620   -1.9040 C.2     1  UNL1        0.1650
     12  O          8.6370   -3.8950   -0.0180 O.2     1  UNL1       -0.4540
     13  O          8.6260   -4.0730   -2.2090 O.2     1  UNL1       -0.4540
     14  C          8.9390   -4.8020   -1.0470 C.3     1  UNL1        0.4680
@<TRIPOS>BOND
     1     9     7    1
     2     9    11    2
     3    13    11    1
     4    13    14    1
     5     7     6    2
     6    11    10    1
     7    14    12    1
     8     6     5    1
     9     6     8    1
    10    10    12    1
    11    10     8    2
    12     5     1    1
    13     3     2    1
    14     1     2    1
    15     2     4    2
