@<TRIPOS>MOLECULE
/home/cewinharhar/GITHUB/reincatalyze/data/processed/docking_pred/2023-May-31-1438_sub9_nm5_bs15_s42_ex16_mel10_mts1000_k50_ec05_g099_lra9e-4_lrc3e-3/08a74a7e320cd1ecb560e86b752820c061dfae11_ligand_9.pdbqt
 14 15 0 0 0
SMALL
GASTEIGER

@<TRIPOS>ATOM
      1  C          6.3790    1.1710    0.8980 C.3     1  UNL1        0.0800
      2  C          5.6730    0.3620    1.9290 C.2     1  UNL1        0.1300
      3  C          6.2780   -0.8680    2.5060 C.3     1  UNL1        0.0870
      4  O          4.5690    0.6880    2.3340 O.2     1  UNL1       -0.3000
      5  C          5.8650    0.8600   -0.4940 C.3     1  UNL1        0.0430
      6  C          6.8270    0.0510   -1.2640 C.2     1  UNL1       -0.0440
      7  C          7.5240    0.5830   -2.3550 C.2     1  UNL1        0.0080
      8  C          7.0550   -1.2590   -0.9090 C.2     1  UNL1        0.0540
      9  C          8.4150   -0.2230   -3.0390 C.2     1  UNL1        0.0510
     10  C          7.9580   -2.0700   -1.6040 C.2     1  UNL1        0.1660
     11  C          8.6430   -1.5470   -2.6780 C.2     1  UNL1        0.1650
     12  O          8.3530   -3.3810   -1.4500 O.2     1  UNL1       -0.4540
     13  O          9.4540   -2.5590   -3.1660 O.2     1  UNL1       -0.4540
     14  C          9.3700   -3.7120   -2.3620 C.3     1  UNL1        0.4680
@<TRIPOS>BOND
     1    13    11    1
     2    13    14    1
     3     9    11    2
     4     9     7    1
     5    11    10    1
     6    14    12    1
     7     7     6    2
     8    10    12    1
     9    10     8    2
    10     6     8    1
    11     6     5    1
    12     5     1    1
    13     1     2    1
    14     2     4    2
    15     2     3    1
