@<TRIPOS>MOLECULE
/home/cewinharhar/GITHUB/reincatalyze/data/processed/docking_pred/2023-May-31-1438_sub9_nm5_bs15_s42_ex16_mel10_mts1000_k50_ec05_g099_lra9e-4_lrc3e-3/08a74a7e320cd1ecb560e86b752820c061dfae11_ligand_9.pdbqt
 14 15 0 0 0
SMALL
GASTEIGER

@<TRIPOS>ATOM
      1  C          5.4210   -0.0310    2.0820 C.3     1  UNL1        0.0800
      2  C          4.5430    1.1370    1.7900 C.2     1  UNL1        0.1300
      3  C          4.8780    2.1170    0.7230 C.3     1  UNL1        0.0870
      4  O          3.5170    1.3240    2.4240 O.2     1  UNL1       -0.3000
      5  C          6.8480    0.2300    1.6450 C.3     1  UNL1        0.0430
      6  C          7.2690   -0.6910    0.5750 C.2     1  UNL1       -0.0440
      7  C          7.1380   -0.3530   -0.7770 C.2     1  UNL1        0.0080
      8  C          7.8080   -1.9150    0.9010 C.2     1  UNL1        0.0540
      9  C          7.5510   -1.2580   -1.7380 C.2     1  UNL1        0.0510
     10  C          8.2240   -2.8260   -0.0750 C.2     1  UNL1        0.1660
     11  C          8.0950   -2.4950   -1.4050 C.2     1  UNL1        0.1650
     12  O          8.7810   -4.0860   -0.0080 O.2     1  UNL1       -0.4540
     13  O          8.5800   -3.5680   -2.1350 O.2     1  UNL1       -0.4540
     14  C          9.1090   -4.5610   -1.2880 C.3     1  UNL1        0.4680
@<TRIPOS>BOND
     1    13    11    1
     2    13    14    1
     3     9    11    2
     4     9     7    1
     5    11    10    1
     6    14    12    1
     7     7     6    2
     8    10    12    1
     9    10     8    2
    10     6     8    1
    11     6     5    1
    12     3     2    1
    13     5     1    1
    14     2     1    1
    15     2     4    2
