@<TRIPOS>MOLECULE
/home/cewinharhar/GITHUB/reincatalyze/data/processed/docking_pred/2023-May-31-1438_sub9_nm5_bs15_s42_ex16_mel10_mts1000_k50_ec05_g099_lra9e-4_lrc3e-3/08a74a7e320cd1ecb560e86b752820c061dfae11_ligand_9.pdbqt
 14 15 0 0 0
SMALL
GASTEIGER

@<TRIPOS>ATOM
      1  C          5.5810    1.8680    1.3070 C.3     1  UNL1        0.0800
      2  C          5.1310    0.6470    2.0320 C.2     1  UNL1        0.1300
      3  C          6.0180   -0.5350    2.1960 C.3     1  UNL1        0.0870
      4  O          4.0110    0.5810    2.5140 O.2     1  UNL1       -0.3000
      5  C          5.4360    1.7030   -0.1930 C.3     1  UNL1        0.0430
      6  C          6.5940    1.0060   -0.7800 C.2     1  UNL1       -0.0440
      7  C          7.9030    1.4530   -0.5670 C.2     1  UNL1        0.0080
      8  C          6.3950   -0.1130   -1.5560 C.2     1  UNL1        0.0540
      9  C          8.9510    0.7580   -1.1430 C.2     1  UNL1        0.0510
     10  C          7.4580   -0.8130   -2.1350 C.2     1  UNL1        0.1660
     11  C          8.7470   -0.3730   -1.9280 C.2     1  UNL1        0.1650
     12  O          7.5200   -1.9340   -2.9340 O.2     1  UNL1       -0.4540
     13  O          9.5820   -1.2440   -2.6100 O.2     1  UNL1       -0.4540
     14  C          8.8530   -2.3000   -3.1870 C.3     1  UNL1        0.4680
@<TRIPOS>BOND
     1    14    12    1
     2    14    13    1
     3    12    10    1
     4    13    11    1
     5    10    11    2
     6    10     8    1
     7    11     9    1
     8     8     6    2
     9     9     7    2
    10     6     7    1
    11     6     5    1
    12     5     1    1
    13     1     2    1
    14     2     3    1
    15     2     4    2
