@<TRIPOS>MOLECULE
/home/cewinharhar/GITHUB/reincatalyze/data/processed/docking_pred/2023-May-31-1438_sub9_nm5_bs15_s42_ex16_mel10_mts1000_k50_ec05_g099_lra9e-4_lrc3e-3/08d2e2d4a7c660d60546aaed77652d308bf13ce5_ligand_9.pdbqt
 14 15 0 0 0
SMALL
GASTEIGER

@<TRIPOS>ATOM
      1  C          6.4050    1.1980    0.9270 C.3     1  UNL1        0.0800
      2  C          5.6750    0.3660    1.9250 C.2     1  UNL1        0.1300
      3  C          6.2640   -0.8820    2.4800 C.3     1  UNL1        0.0870
      4  O          4.5650    0.6870    2.3170 O.2     1  UNL1       -0.3000
      5  C          5.8980    0.9430   -0.4780 C.3     1  UNL1        0.0430
      6  C          6.8310    0.1060   -1.2530 C.2     1  UNL1       -0.0440
      7  C          7.5090    0.6050   -2.3710 C.2     1  UNL1        0.0080
      8  C          7.0500   -1.2000   -0.8750 C.2     1  UNL1        0.0540
      9  C          8.3730   -0.2270   -3.0580 C.2     1  UNL1        0.0510
     10  C          7.9260   -2.0370   -1.5740 C.2     1  UNL1        0.1660
     11  C          8.5930   -1.5460   -2.6740 C.2     1  UNL1        0.1650
     12  O          8.3080   -3.3500   -1.4020 O.2     1  UNL1       -0.4540
     13  O          9.3790   -2.5790   -3.1600 O.2     1  UNL1       -0.4540
     14  C          9.2980   -3.7130   -2.3290 C.3     1  UNL1        0.4680
@<TRIPOS>BOND
     1    13    11    1
     2    13    14    1
     3     9    11    2
     4     9     7    1
     5    11    10    1
     6     7     6    2
     7    14    12    1
     8    10    12    1
     9    10     8    2
    10     6     8    1
    11     6     5    1
    12     5     1    1
    13     1     2    1
    14     2     4    2
    15     2     3    1
