MODEL 1
REMARK VINA RESULT:      -7.7      0.000      0.000
REMARK SMILES CC(=O)CCc1ccc2c(c1)OCO2
REMARK SMILES IDX 4 1 2 2 1 3 3 4 5 5 6 6 7 7 11 8 8 9 10 10 9 11 12 12 14 13
REMARK SMILES IDX 13 14
REMARK H PARENT
REMARK Flexibility Score: inf
ROOT
ATOM      1  C   UNL     1       5.495   1.913   1.266  1.00  0.00     0.080 C 
ENDROOT
BRANCH   1   2
ATOM      2  C   UNL     1       5.033   0.701   1.999  1.00  0.00     0.130 C 
ATOM      3  C   UNL     1       5.884  -0.513   2.117  1.00  0.00     0.087 C 
ATOM      4  O   UNL     1       3.933   0.670   2.527  1.00  0.00    -0.300 OA
ENDBRANCH   1   2
BRANCH   1   5
ATOM      5  C   UNL     1       5.376   1.728  -0.234  1.00  0.00     0.043 C 
BRANCH   5   6
ATOM      6  C   UNL     1       6.550   1.034  -0.793  1.00  0.00    -0.044 A 
ATOM      7  C   UNL     1       7.853   1.478  -0.541  1.00  0.00     0.008 A 
ATOM      8  C   UNL     1       6.373  -0.079  -1.583  1.00  0.00     0.054 A 
ATOM      9  C   UNL     1       8.917   0.787  -1.093  1.00  0.00     0.051 A 
ATOM     10  C   UNL     1       7.451  -0.775  -2.137  1.00  0.00     0.166 A 
ATOM     11  C   UNL     1       8.733  -0.338  -1.891  1.00  0.00     0.165 A 
ATOM     12  O   UNL     1       7.535  -1.891  -2.943  1.00  0.00    -0.454 OA
ATOM     13  O   UNL     1       9.587  -1.204  -2.556  1.00  0.00    -0.454 OA
ATOM     14  C   UNL     1       8.874  -2.256  -3.161  1.00  0.00     0.468 C 
ENDBRANCH   5   6
ENDBRANCH   1   5
TORSDOF 3
ENDMDL
MODEL 2
REMARK VINA RESULT:      -7.4      1.968      2.447
REMARK SMILES CC(=O)CCc1ccc2c(c1)OCO2
REMARK SMILES IDX 4 1 2 2 1 3 3 4 5 5 6 6 7 7 11 8 8 9 10 10 9 11 12 12 14 13
REMARK SMILES IDX 13 14
REMARK H PARENT
REMARK Flexibility Score: inf
ROOT
ATOM      1  C   UNL     1       5.776   1.322  -0.295  1.00  0.00     0.080 C 
ENDROOT
BRANCH   1   2
ATOM      2  C   UNL     1       5.152   1.238   1.055  1.00  0.00     0.130 C 
ATOM      3  C   UNL     1       5.339   0.049   1.929  1.00  0.00     0.087 C 
ATOM      4  O   UNL     1       4.464   2.150   1.485  1.00  0.00    -0.300 OA
ENDBRANCH   1   2
BRANCH   1   5
ATOM      5  C   UNL     1       7.268   1.059  -0.229  1.00  0.00     0.043 C 
BRANCH   5   6
ATOM      6  C   UNL     1       7.621  -0.240  -0.829  1.00  0.00    -0.044 A 
ATOM      7  C   UNL     1       7.641  -0.425  -2.216  1.00  0.00     0.008 A 
ATOM      8  C   UNL     1       7.943  -1.302  -0.015  1.00  0.00     0.054 A 
ATOM      9  C   UNL     1       7.981  -1.667  -2.722  1.00  0.00     0.051 A 
ATOM     10  C   UNL     1       8.287  -2.555  -0.532  1.00  0.00     0.166 A 
ATOM     11  C   UNL     1       8.305  -2.739  -1.897  1.00  0.00     0.165 A 
ATOM     12  O   UNL     1       8.641  -3.749   0.058  1.00  0.00    -0.454 OA
ATOM     13  O   UNL     1       8.675  -4.056  -2.118  1.00  0.00    -0.454 OA
ATOM     14  C   UNL     1       8.985  -4.707  -0.909  1.00  0.00     0.468 C 
ENDBRANCH   5   6
ENDBRANCH   1   5
TORSDOF 3
ENDMDL
MODEL 3
REMARK VINA RESULT:      -7.2      2.072      2.626
REMARK SMILES CC(=O)CCc1ccc2c(c1)OCO2
REMARK SMILES IDX 4 1 2 2 1 3 3 4 5 5 6 6 7 7 11 8 8 9 10 10 9 11 12 12 14 13
REMARK SMILES IDX 13 14
REMARK H PARENT
REMARK Flexibility Score: inf
ROOT
ATOM      1  C   UNL     1       5.494  -0.012   1.998  1.00  0.00     0.080 C 
ENDROOT
BRANCH   1   2
ATOM      2  C   UNL     1       4.607   1.157   1.742  1.00  0.00     0.130 C 
ATOM      3  C   UNL     1       4.895   2.133   0.657  1.00  0.00     0.087 C 
ATOM      4  O   UNL     1       3.610   1.348   2.420  1.00  0.00    -0.300 OA
ENDBRANCH   1   2
BRANCH   1   5
ATOM      5  C   UNL     1       6.908   0.255   1.520  1.00  0.00     0.043 C 
BRANCH   5   6
ATOM      6  C   UNL     1       7.320  -0.699   0.475  1.00  0.00    -0.044 A 
ATOM      7  C   UNL     1       7.182  -0.401  -0.885  1.00  0.00     0.008 A 
ATOM      8  C   UNL     1       7.858  -1.914   0.834  1.00  0.00     0.054 A 
ATOM      9  C   UNL     1       7.587  -1.335  -1.822  1.00  0.00     0.051 A 
ATOM     10  C   UNL     1       8.267  -2.854  -0.116  1.00  0.00     0.166 A 
ATOM     11  C   UNL     1       8.130  -2.562  -1.455  1.00  0.00     0.165 A 
ATOM     12  O   UNL     1       8.821  -4.113  -0.015  1.00  0.00    -0.454 OA
ATOM     13  O   UNL     1       8.609  -3.658  -2.156  1.00  0.00    -0.454 OA
ATOM     14  C   UNL     1       9.140  -4.626  -1.283  1.00  0.00     0.468 C 
ENDBRANCH   5   6
ENDBRANCH   1   5
TORSDOF 3
ENDMDL
MODEL 4
REMARK VINA RESULT:      -7.1      1.267      1.492
REMARK SMILES CC(=O)CCc1ccc2c(c1)OCO2
REMARK SMILES IDX 4 1 2 2 1 3 3 4 5 5 6 6 7 7 11 8 8 9 10 10 9 11 12 12 14 13
REMARK SMILES IDX 13 14
REMARK H PARENT
REMARK Flexibility Score: inf
ROOT
ATOM      1  C   UNL     1       6.405   1.198   0.927  1.00  0.00     0.080 C 
ENDROOT
BRANCH   1   2
ATOM      2  C   UNL     1       5.675   0.366   1.925  1.00  0.00     0.130 C 
ATOM      3  C   UNL     1       6.264  -0.882   2.480  1.00  0.00     0.087 C 
ATOM      4  O   UNL     1       4.565   0.687   2.317  1.00  0.00    -0.300 OA
ENDBRANCH   1   2
BRANCH   1   5
ATOM      5  C   UNL     1       5.898   0.943  -0.478  1.00  0.00     0.043 C 
BRANCH   5   6
ATOM      6  C   UNL     1       6.831   0.106  -1.253  1.00  0.00    -0.044 A 
ATOM      7  C   UNL     1       7.509   0.605  -2.371  1.00  0.00     0.008 A 
ATOM      8  C   UNL     1       7.050  -1.200  -0.875  1.00  0.00     0.054 A 
ATOM      9  C   UNL     1       8.373  -0.227  -3.058  1.00  0.00     0.051 A 
ATOM     10  C   UNL     1       7.926  -2.037  -1.574  1.00  0.00     0.166 A 
ATOM     11  C   UNL     1       8.593  -1.546  -2.674  1.00  0.00     0.165 A 
ATOM     12  O   UNL     1       8.308  -3.350  -1.402  1.00  0.00    -0.454 OA
ATOM     13  O   UNL     1       9.379  -2.579  -3.160  1.00  0.00    -0.454 OA
ATOM     14  C   UNL     1       9.298  -3.713  -2.329  1.00  0.00     0.468 C 
ENDBRANCH   5   6
ENDBRANCH   1   5
TORSDOF 3
ENDMDL
MODEL 5
REMARK VINA RESULT:      -6.8      1.270      1.751
REMARK SMILES CC(=O)CCc1ccc2c(c1)OCO2
REMARK SMILES IDX 4 1 2 2 1 3 3 4 5 5 6 6 7 7 11 8 8 9 10 10 9 11 12 12 14 13
REMARK SMILES IDX 13 14
REMARK H PARENT
REMARK Flexibility Score: inf
ROOT
ATOM      1  C   UNL     1       5.338  -0.041   1.988  1.00  0.00     0.080 C 
ENDROOT
BRANCH   1   2
ATOM      2  C   UNL     1       4.453   1.140   1.786  1.00  0.00     0.130 C 
ATOM      3  C   UNL     1       4.728   2.150   0.730  1.00  0.00     0.087 C 
ATOM      4  O   UNL     1       3.470   1.314   2.488  1.00  0.00    -0.300 OA
ENDBRANCH   1   2
BRANCH   1   5
ATOM      5  C   UNL     1       6.801   0.347   1.911  1.00  0.00     0.043 C 
BRANCH   5   6
ATOM      6  C   UNL     1       7.397  -0.020   0.614  1.00  0.00    -0.044 A 
ATOM      7  C   UNL     1       7.884   0.950  -0.270  1.00  0.00     0.008 A 
ATOM      8  C   UNL     1       7.484  -1.345   0.255  1.00  0.00     0.054 A 
ATOM      9  C   UNL     1       8.433   0.546  -1.473  1.00  0.00     0.051 A 
ATOM     10  C   UNL     1       8.041  -1.749  -0.963  1.00  0.00     0.166 A 
ATOM     11  C   UNL     1       8.519  -0.795  -1.834  1.00  0.00     0.165 A 
ATOM     12  O   UNL     1       8.239  -2.984  -1.542  1.00  0.00    -0.454 OA
ATOM     13  O   UNL     1       9.006  -1.472  -2.941  1.00  0.00    -0.454 OA
ATOM     14  C   UNL     1       8.931  -2.865  -2.759  1.00  0.00     0.468 C 
ENDBRANCH   5   6
ENDBRANCH   1   5
TORSDOF 3
ENDMDL
