@<TRIPOS>MOLECULE
/home/cewinharhar/GITHUB/reincatalyze/data/processed/docking_pred/2023-May-31-1438_sub9_nm5_bs15_s42_ex16_mel10_mts1000_k50_ec05_g099_lra9e-4_lrc3e-3/08e84468c81f1cd513554bb3b422d21af10d92b8_ligand_9.pdbqt
 14 15 0 0 0
SMALL
GASTEIGER

@<TRIPOS>ATOM
      1  C          6.3880    1.1870    0.9500 C.3     1  UNL1        0.0800
      2  C          5.6560    0.3700    1.9580 C.2     1  UNL1        0.1300
      3  C          6.2490   -0.8610    2.5450 C.3     1  UNL1        0.0870
      4  O          4.5390    0.6900    2.3320 O.2     1  UNL1       -0.3000
      5  C          5.8740    0.9230   -0.4510 C.3     1  UNL1        0.0430
      6  C          6.8150    0.0990   -1.2310 C.2     1  UNL1       -0.0440
      7  C          7.4850    0.6110   -2.3490 C.2     1  UNL1        0.0080
      8  C          7.0510   -1.2050   -0.8590 C.2     1  UNL1        0.0540
      9  C          8.3570   -0.2090   -3.0420 C.2     1  UNL1        0.0510
     10  C          7.9350   -2.0290   -1.5630 C.2     1  UNL1        0.1660
     11  C          8.5920   -1.5270   -2.6640 C.2     1  UNL1        0.1650
     12  O          8.3320   -3.3380   -1.3970 O.2     1  UNL1       -0.4540
     13  O          9.3900   -2.5490   -3.1550 O.2     1  UNL1       -0.4540
     14  C          9.3240   -3.6860   -2.3280 C.3     1  UNL1        0.4680
@<TRIPOS>BOND
     1    13    11    1
     2    13    14    1
     3     9    11    2
     4     9     7    1
     5    11    10    1
     6     7     6    2
     7    14    12    1
     8    10    12    1
     9    10     8    2
    10     6     8    1
    11     6     5    1
    12     5     1    1
    13     1     2    1
    14     2     4    2
    15     2     3    1
