@<TRIPOS>MOLECULE
/home/cewinharhar/GITHUB/reincatalyze/data/processed/docking_pred/2023-May-31-1438_sub9_nm5_bs15_s42_ex16_mel10_mts1000_k50_ec05_g099_lra9e-4_lrc3e-3/08e84468c81f1cd513554bb3b422d21af10d92b8_ligand_9.pdbqt
 14 15 0 0 0
SMALL
GASTEIGER

@<TRIPOS>ATOM
      1  C          5.5150    1.9010    1.2750 C.3     1  UNL1        0.0800
      2  C          5.0720    0.6800    2.0050 C.2     1  UNL1        0.1300
      3  C          5.9590   -0.5040    2.1580 C.3     1  UNL1        0.0870
      4  O          3.9590    0.6170    2.5020 O.2     1  UNL1       -0.3000
      5  C          5.3910    1.7200   -0.2250 C.3     1  UNL1        0.0430
      6  C          6.5610    1.0240   -0.7900 C.2     1  UNL1       -0.0440
      7  C          7.8660    1.4650   -0.5440 C.2     1  UNL1        0.0080
      8  C          6.3770   -0.0900   -1.5770 C.2     1  UNL1        0.0540
      9  C          8.9250    0.7710   -1.1000 C.2     1  UNL1        0.0510
     10  C          7.4510   -0.7890   -2.1370 C.2     1  UNL1        0.1660
     11  C          8.7360   -0.3540   -1.8960 C.2     1  UNL1        0.1650
     12  O          7.5290   -1.9060   -2.9410 O.2     1  UNL1       -0.4540
     13  O          9.5840   -1.2230   -2.5650 O.2     1  UNL1       -0.4540
     14  C          8.8660   -2.2740   -3.1650 C.3     1  UNL1        0.4680
@<TRIPOS>BOND
     1    14    12    1
     2    14    13    1
     3    12    10    1
     4    13    11    1
     5    10    11    2
     6    10     8    1
     7    11     9    1
     8     8     6    2
     9     9     7    2
    10     6     7    1
    11     6     5    1
    12     5     1    1
    13     1     2    1
    14     2     3    1
    15     2     4    2
