@<TRIPOS>MOLECULE
/home/cewinharhar/GITHUB/reincatalyze/data/processed/docking_pred/2023-May-31-1438_sub9_nm5_bs15_s42_ex16_mel10_mts1000_k50_ec05_g099_lra9e-4_lrc3e-3/090474ec6ad34f6c7e6271970b3dfdf762d08d64_ligand_9.pdbqt
 14 15 0 0 0
SMALL
GASTEIGER

@<TRIPOS>ATOM
      1  C          6.6500    0.0410    1.8620 C.3     1  UNL1        0.0800
      2  C          5.3670    0.7740    1.6770 C.2     1  UNL1        0.1300
      3  C          5.1860    1.7670    0.5840 C.3     1  UNL1        0.0870
      4  O          4.4210    0.5800    2.4230 O.2     1  UNL1       -0.3000
      5  C          6.5230   -1.4080    1.4350 C.3     1  UNL1        0.0430
      6  C          7.2680   -1.6790    0.1920 C.2     1  UNL1       -0.0440
      7  C          6.8550   -1.1570   -1.0390 C.2     1  UNL1        0.0080
      8  C          8.4000   -2.4610    0.2330 C.2     1  UNL1        0.0540
      9  C          7.5950   -1.4440   -2.1710 C.2     1  UNL1        0.0510
     10  C          9.1450   -2.7470   -0.9150 C.2     1  UNL1        0.1660
     11  C          8.7390   -2.2350   -2.1270 C.2     1  UNL1        0.1650
     12  O         10.2880   -3.4870   -1.1340 O.2     1  UNL1       -0.4540
     13  O          9.6500   -2.6740   -3.0740 O.2     1  UNL1       -0.4540
     14  C         10.6990   -3.3960   -2.4730 C.3     1  UNL1        0.4680
@<TRIPOS>BOND
     1    13    14    1
     2    13    11    1
     3    14    12    1
     4     9    11    2
     5     9     7    1
     6    11    10    1
     7    12    10    1
     8     7     6    2
     9    10     8    2
    10     6     8    1
    11     6     5    1
    12     3     2    1
    13     5     1    1
    14     2     1    1
    15     2     4    2
