@<TRIPOS>MOLECULE
/home/cewinharhar/GITHUB/reincatalyze/data/processed/docking_pred/2023-May-31-1438_sub9_nm5_bs15_s42_ex16_mel10_mts1000_k50_ec05_g099_lra9e-4_lrc3e-3/090474ec6ad34f6c7e6271970b3dfdf762d08d64_ligand_9.pdbqt
 14 15 0 0 0
SMALL
GASTEIGER

@<TRIPOS>ATOM
      1  C          5.8110    1.6060    0.8400 C.3     1  UNL1        0.0800
      2  C          5.3260    0.6180    1.8420 C.2     1  UNL1        0.1300
      3  C          6.1250   -0.5820    2.2070 C.3     1  UNL1        0.0870
      4  O          4.2490    0.7650    2.3970 O.2     1  UNL1       -0.3000
      5  C          5.7240    1.0500   -0.5680 C.3     1  UNL1        0.0430
      6  C          6.9780    0.3890   -0.9730 C.2     1  UNL1       -0.0440
      7  C          8.2260    0.9760   -0.7370 C.2     1  UNL1        0.0080
      8  C          6.9310   -0.8370   -1.5970 C.2     1  UNL1        0.0540
      9  C          9.3680    0.3090   -1.1380 C.2     1  UNL1        0.0510
     10  C          8.0890   -1.5080   -2.0000 C.2     1  UNL1        0.1660
     11  C          9.3180   -0.9300   -1.7690 C.2     1  UNL1        0.1650
     12  O          8.3050   -2.7160   -2.6300 O.2     1  UNL1       -0.4540
     13  O         10.2720   -1.8050   -2.2660 O.2     1  UNL1       -0.4540
     14  C          9.6780   -2.9910   -2.7380 C.3     1  UNL1        0.4680
@<TRIPOS>BOND
     1    14    12    1
     2    14    13    1
     3    12    10    1
     4    13    11    1
     5    10    11    2
     6    10     8    1
     7    11     9    1
     8     8     6    2
     9     9     7    2
    10     6     7    1
    11     6     5    1
    12     5     1    1
    13     1     2    1
    14     2     3    1
    15     2     4    2
