@<TRIPOS>MOLECULE
/home/cewinharhar/GITHUB/reincatalyze/data/processed/docking_pred/2023-May-31-1438_sub9_nm5_bs15_s42_ex16_mel10_mts1000_k50_ec05_g099_lra9e-4_lrc3e-3/090474ec6ad34f6c7e6271970b3dfdf762d08d64_ligand_9.pdbqt
 14 15 0 0 0
SMALL
GASTEIGER

@<TRIPOS>ATOM
      1  C          6.3130   -0.5790    1.5710 C.3     1  UNL1        0.0800
      2  C          5.3270    0.5380    1.5650 C.2     1  UNL1        0.1300
      3  C          5.2910    1.5420    0.4690 C.3     1  UNL1        0.0870
      4  O          4.5150    0.6610    2.4680 O.2     1  UNL1       -0.3000
      5  C          7.3190   -0.4300    0.4470 C.3     1  UNL1        0.0430
      6  C          8.6860   -0.2240    0.9600 C.2     1  UNL1       -0.0440
      7  C          9.7720   -0.9560    0.4660 C.2     1  UNL1        0.0080
      8  C          8.9110    0.7090    1.9470 C.2     1  UNL1        0.0540
      9  C         11.0320   -0.7190    0.9850 C.2     1  UNL1        0.0510
     10  C         10.1860    0.9440    2.4680 C.2     1  UNL1        0.1660
     11  C         11.2560    0.2240    1.9830 C.2     1  UNL1        0.1650
     12  O         10.6620    1.8030    3.4370 O.2     1  UNL1       -0.4540
     13  O         12.3770    0.6610    2.6710 O.2     1  UNL1       -0.4540
     14  C         12.0610    1.7240    3.5370 C.3     1  UNL1        0.4680
@<TRIPOS>BOND
     1     5     6    1
     2     5     1    1
     3     7     6    2
     4     7     9    1
     5     3     2    1
     6     6     8    1
     7     9    11    2
     8     2     1    1
     9     2     4    2
    10     8    10    2
    11    11    10    1
    12    11    13    1
    13    10    12    1
    14    13    14    1
    15    12    14    1
