@<TRIPOS>MOLECULE
/home/cewinharhar/GITHUB/reincatalyze/data/processed/docking_pred/2023-May-31-1438_sub9_nm5_bs15_s42_ex16_mel10_mts1000_k50_ec05_g099_lra9e-4_lrc3e-3/090474ec6ad34f6c7e6271970b3dfdf762d08d64_ligand_9.pdbqt
 14 15 0 0 0
SMALL
GASTEIGER

@<TRIPOS>ATOM
      1  C          6.1590    1.1780   -0.0570 C.3     1  UNL1        0.0800
      2  C          5.3720    0.9960    1.1940 C.2     1  UNL1        0.1300
      3  C          5.5130   -0.2230    2.0350 C.3     1  UNL1        0.0870
      4  O          4.5820    1.8480    1.5680 O.2     1  UNL1       -0.3000
      5  C          7.3680    2.0620    0.1770 C.3     1  UNL1        0.0430
      6  C          8.5600    1.2730    0.5350 C.2     1  UNL1       -0.0440
      7  C          9.0630    1.2570    1.8410 C.2     1  UNL1        0.0080
      8  C          9.2010    0.5300   -0.4290 C.2     1  UNL1        0.0540
      9  C         10.1850    0.4980    2.1190 C.2     1  UNL1        0.0510
     10  C         10.3350   -0.2370   -0.1430 C.2     1  UNL1        0.1660
     11  C         10.8310   -0.2530    1.1410 C.2     1  UNL1        0.1650
     12  O         11.1400   -1.0480   -0.9150 O.2     1  UNL1       -0.4540
     13  O         11.9410   -1.0830    1.1320 O.2     1  UNL1       -0.4540
     14  C         12.1190   -1.6800   -0.1300 C.3     1  UNL1        0.4680
@<TRIPOS>BOND
     1    12    10    1
     2    12    14    1
     3     8    10    1
     4     8     6    2
     5    10    11    2
     6    14    13    1
     7     1     5    1
     8     1     2    1
     9     5     6    1
    10     6     7    1
    11    13    11    1
    12    11     9    1
    13     2     4    2
    14     2     3    1
    15     7     9    2
