@<TRIPOS>MOLECULE
/home/cewinharhar/GITHUB/reincatalyze/data/processed/docking_pred/2023-May-31-1438_sub9_nm5_bs15_s42_ex16_mel10_mts1000_k50_ec05_g099_lra9e-4_lrc3e-3/090474ec6ad34f6c7e6271970b3dfdf762d08d64_ligand_9.pdbqt
 14 15 0 0 0
SMALL
GASTEIGER

@<TRIPOS>ATOM
      1  C          5.9330    1.3260   -0.2950 C.3     1  UNL1        0.0800
      2  C          5.3140    1.0800    1.0380 C.2     1  UNL1        0.1300
      3  C          5.6200   -0.1430    1.8270 C.3     1  UNL1        0.0870
      4  O          4.5310    1.8810    1.5230 O.2     1  UNL1       -0.3000
      5  C          7.4450    1.2610   -0.2190 C.3     1  UNL1        0.0430
      6  C          7.9860    0.1550   -1.0280 C.2     1  UNL1       -0.0440
      7  C          7.3650   -0.2590   -2.2120 C.2     1  UNL1        0.0080
      8  C          9.1300   -0.4930   -0.6210 C.2     1  UNL1        0.0540
      9  C          7.9190   -1.3030   -2.9310 C.2     1  UNL1        0.0510
     10  C          9.6860   -1.5470   -1.3510 C.2     1  UNL1        0.1660
     11  C          9.0750   -1.9560   -2.5160 C.2     1  UNL1        0.1650
     12  O         10.7980   -2.3400   -1.1590 O.2     1  UNL1       -0.4540
     13  O          9.8330   -3.0010   -3.0200 O.2     1  UNL1       -0.4540
     14  C         10.9840   -3.2180   -2.2390 C.3     1  UNL1        0.4680
@<TRIPOS>BOND
     1    13    11    1
     2    13    14    1
     3     9    11    2
     4     9     7    1
     5    11    10    1
     6    14    12    1
     7     7     6    2
     8    10    12    1
     9    10     8    2
    10     6     8    1
    11     6     5    1
    12     1     5    1
    13     1     2    1
    14     2     4    2
    15     2     3    1
