MODEL 1
REMARK VINA RESULT:      -7.5      0.000      0.000
REMARK SMILES CC(=O)CCc1ccc2c(c1)OCO2
REMARK SMILES IDX 4 1 2 2 1 3 3 4 5 5 6 6 7 7 11 8 8 9 10 10 9 11 12 12 14 13
REMARK SMILES IDX 13 14
REMARK H PARENT
REMARK Flexibility Score: inf
ROOT
ATOM      1  C   UNL     1       5.811   1.606   0.840  1.00  0.00     0.080 C 
ENDROOT
BRANCH   1   2
ATOM      2  C   UNL     1       5.326   0.618   1.842  1.00  0.00     0.130 C 
ATOM      3  C   UNL     1       6.125  -0.582   2.207  1.00  0.00     0.087 C 
ATOM      4  O   UNL     1       4.249   0.765   2.397  1.00  0.00    -0.300 OA
ENDBRANCH   1   2
BRANCH   1   5
ATOM      5  C   UNL     1       5.724   1.050  -0.568  1.00  0.00     0.043 C 
BRANCH   5   6
ATOM      6  C   UNL     1       6.978   0.389  -0.973  1.00  0.00    -0.044 A 
ATOM      7  C   UNL     1       8.226   0.976  -0.737  1.00  0.00     0.008 A 
ATOM      8  C   UNL     1       6.931  -0.837  -1.597  1.00  0.00     0.054 A 
ATOM      9  C   UNL     1       9.368   0.309  -1.138  1.00  0.00     0.051 A 
ATOM     10  C   UNL     1       8.089  -1.508  -2.000  1.00  0.00     0.166 A 
ATOM     11  C   UNL     1       9.318  -0.930  -1.769  1.00  0.00     0.165 A 
ATOM     12  O   UNL     1       8.305  -2.716  -2.630  1.00  0.00    -0.454 OA
ATOM     13  O   UNL     1      10.272  -1.805  -2.266  1.00  0.00    -0.454 OA
ATOM     14  C   UNL     1       9.678  -2.991  -2.738  1.00  0.00     0.468 C 
ENDBRANCH   5   6
ENDBRANCH   1   5
TORSDOF 3
ENDMDL
MODEL 2
REMARK VINA RESULT:      -7.0      1.074      1.788
REMARK SMILES CC(=O)CCc1ccc2c(c1)OCO2
REMARK SMILES IDX 4 1 2 2 1 3 3 4 5 5 6 6 7 7 11 8 8 9 10 10 9 11 12 12 14 13
REMARK SMILES IDX 13 14
REMARK H PARENT
REMARK Flexibility Score: inf
ROOT
ATOM      1  C   UNL     1       5.933   1.326  -0.295  1.00  0.00     0.080 C 
ENDROOT
BRANCH   1   2
ATOM      2  C   UNL     1       5.314   1.080   1.038  1.00  0.00     0.130 C 
ATOM      3  C   UNL     1       5.620  -0.143   1.827  1.00  0.00     0.087 C 
ATOM      4  O   UNL     1       4.531   1.881   1.523  1.00  0.00    -0.300 OA
ENDBRANCH   1   2
BRANCH   1   5
ATOM      5  C   UNL     1       7.445   1.261  -0.219  1.00  0.00     0.043 C 
BRANCH   5   6
ATOM      6  C   UNL     1       7.986   0.155  -1.028  1.00  0.00    -0.044 A 
ATOM      7  C   UNL     1       7.365  -0.259  -2.212  1.00  0.00     0.008 A 
ATOM      8  C   UNL     1       9.130  -0.493  -0.621  1.00  0.00     0.054 A 
ATOM      9  C   UNL     1       7.919  -1.303  -2.931  1.00  0.00     0.051 A 
ATOM     10  C   UNL     1       9.686  -1.547  -1.351  1.00  0.00     0.166 A 
ATOM     11  C   UNL     1       9.075  -1.956  -2.516  1.00  0.00     0.165 A 
ATOM     12  O   UNL     1      10.798  -2.340  -1.159  1.00  0.00    -0.454 OA
ATOM     13  O   UNL     1       9.833  -3.001  -3.020  1.00  0.00    -0.454 OA
ATOM     14  C   UNL     1      10.984  -3.218  -2.239  1.00  0.00     0.468 C 
ENDBRANCH   5   6
ENDBRANCH   1   5
TORSDOF 3
ENDMDL
MODEL 3
REMARK VINA RESULT:      -7.0      3.438      4.440
REMARK SMILES CC(=O)CCc1ccc2c(c1)OCO2
REMARK SMILES IDX 4 1 2 2 1 3 3 4 5 5 6 6 7 7 11 8 8 9 10 10 9 11 12 12 14 13
REMARK SMILES IDX 13 14
REMARK H PARENT
REMARK Flexibility Score: inf
ROOT
ATOM      1  C   UNL     1       6.313  -0.579   1.571  1.00  0.00     0.080 C 
ENDROOT
BRANCH   1   2
ATOM      2  C   UNL     1       5.327   0.538   1.565  1.00  0.00     0.130 C 
ATOM      3  C   UNL     1       5.291   1.542   0.469  1.00  0.00     0.087 C 
ATOM      4  O   UNL     1       4.515   0.661   2.468  1.00  0.00    -0.300 OA
ENDBRANCH   1   2
BRANCH   1   5
ATOM      5  C   UNL     1       7.319  -0.430   0.447  1.00  0.00     0.043 C 
BRANCH   5   6
ATOM      6  C   UNL     1       8.686  -0.224   0.960  1.00  0.00    -0.044 A 
ATOM      7  C   UNL     1       9.772  -0.956   0.466  1.00  0.00     0.008 A 
ATOM      8  C   UNL     1       8.911   0.709   1.947  1.00  0.00     0.054 A 
ATOM      9  C   UNL     1      11.032  -0.719   0.985  1.00  0.00     0.051 A 
ATOM     10  C   UNL     1      10.186   0.944   2.468  1.00  0.00     0.166 A 
ATOM     11  C   UNL     1      11.256   0.224   1.983  1.00  0.00     0.165 A 
ATOM     12  O   UNL     1      10.662   1.803   3.437  1.00  0.00    -0.454 OA
ATOM     13  O   UNL     1      12.377   0.661   2.671  1.00  0.00    -0.454 OA
ATOM     14  C   UNL     1      12.061   1.724   3.537  1.00  0.00     0.468 C 
ENDBRANCH   5   6
ENDBRANCH   1   5
TORSDOF 3
ENDMDL
MODEL 4
REMARK VINA RESULT:      -6.9      1.406      2.196
REMARK SMILES CC(=O)CCc1ccc2c(c1)OCO2
REMARK SMILES IDX 4 1 2 2 1 3 3 4 5 5 6 6 7 7 11 8 8 9 10 10 9 11 12 12 14 13
REMARK SMILES IDX 13 14
REMARK H PARENT
REMARK Flexibility Score: inf
ROOT
ATOM      1  C   UNL     1       6.650   0.041   1.862  1.00  0.00     0.080 C 
ENDROOT
BRANCH   1   2
ATOM      2  C   UNL     1       5.367   0.774   1.677  1.00  0.00     0.130 C 
ATOM      3  C   UNL     1       5.186   1.767   0.584  1.00  0.00     0.087 C 
ATOM      4  O   UNL     1       4.421   0.580   2.423  1.00  0.00    -0.300 OA
ENDBRANCH   1   2
BRANCH   1   5
ATOM      5  C   UNL     1       6.523  -1.408   1.435  1.00  0.00     0.043 C 
BRANCH   5   6
ATOM      6  C   UNL     1       7.268  -1.679   0.192  1.00  0.00    -0.044 A 
ATOM      7  C   UNL     1       6.855  -1.157  -1.039  1.00  0.00     0.008 A 
ATOM      8  C   UNL     1       8.400  -2.461   0.233  1.00  0.00     0.054 A 
ATOM      9  C   UNL     1       7.595  -1.444  -2.171  1.00  0.00     0.051 A 
ATOM     10  C   UNL     1       9.145  -2.747  -0.915  1.00  0.00     0.166 A 
ATOM     11  C   UNL     1       8.739  -2.235  -2.127  1.00  0.00     0.165 A 
ATOM     12  O   UNL     1      10.288  -3.487  -1.134  1.00  0.00    -0.454 OA
ATOM     13  O   UNL     1       9.650  -2.674  -3.074  1.00  0.00    -0.454 OA
ATOM     14  C   UNL     1      10.699  -3.396  -2.473  1.00  0.00     0.468 C 
ENDBRANCH   5   6
ENDBRANCH   1   5
TORSDOF 3
ENDMDL
MODEL 5
REMARK VINA RESULT:      -6.9      2.178      2.746
REMARK SMILES CC(=O)CCc1ccc2c(c1)OCO2
REMARK SMILES IDX 4 1 2 2 1 3 3 4 5 5 6 6 7 7 11 8 8 9 10 10 9 11 12 12 14 13
REMARK SMILES IDX 13 14
REMARK H PARENT
REMARK Flexibility Score: inf
ROOT
ATOM      1  C   UNL     1       6.159   1.178  -0.057  1.00  0.00     0.080 C 
ENDROOT
BRANCH   1   2
ATOM      2  C   UNL     1       5.372   0.996   1.194  1.00  0.00     0.130 C 
ATOM      3  C   UNL     1       5.513  -0.223   2.035  1.00  0.00     0.087 C 
ATOM      4  O   UNL     1       4.582   1.848   1.568  1.00  0.00    -0.300 OA
ENDBRANCH   1   2
BRANCH   1   5
ATOM      5  C   UNL     1       7.368   2.062   0.177  1.00  0.00     0.043 C 
BRANCH   5   6
ATOM      6  C   UNL     1       8.560   1.273   0.535  1.00  0.00    -0.044 A 
ATOM      7  C   UNL     1       9.063   1.257   1.841  1.00  0.00     0.008 A 
ATOM      8  C   UNL     1       9.201   0.530  -0.429  1.00  0.00     0.054 A 
ATOM      9  C   UNL     1      10.185   0.498   2.119  1.00  0.00     0.051 A 
ATOM     10  C   UNL     1      10.335  -0.237  -0.143  1.00  0.00     0.166 A 
ATOM     11  C   UNL     1      10.831  -0.253   1.141  1.00  0.00     0.165 A 
ATOM     12  O   UNL     1      11.140  -1.048  -0.915  1.00  0.00    -0.454 OA
ATOM     13  O   UNL     1      11.941  -1.083   1.132  1.00  0.00    -0.454 OA
ATOM     14  C   UNL     1      12.119  -1.680  -0.130  1.00  0.00     0.468 C 
ENDBRANCH   5   6
ENDBRANCH   1   5
TORSDOF 3
ENDMDL
