@<TRIPOS>MOLECULE
/home/cewinharhar/GITHUB/reincatalyze/data/processed/docking_pred/2023-May-31-1438_sub9_nm5_bs15_s42_ex16_mel10_mts1000_k50_ec05_g099_lra9e-4_lrc3e-3/09c0e00cbaa22f287e1ef7d21129eabb08ea3244_ligand_9.pdbqt
 14 15 0 0 0
SMALL
GASTEIGER

@<TRIPOS>ATOM
      1  C          6.2420    1.3550    0.9720 C.3     1  UNL1        0.0800
      2  C          5.5180    0.4220    1.8810 C.2     1  UNL1        0.1300
      3  C          6.1020   -0.8850    2.2840 C.3     1  UNL1        0.0870
      4  O          4.4170    0.7070    2.3230 O.2     1  UNL1       -0.3000
      5  C          6.0540    0.9650   -0.4800 C.3     1  UNL1        0.0430
      6  C          7.1150    0.0520   -0.9430 C.2     1  UNL1       -0.0440
      7  C          6.9090   -0.8310   -2.0090 C.2     1  UNL1        0.0080
      8  C          8.3430    0.0620   -0.3200 C.2     1  UNL1        0.0540
      9  C          7.9420   -1.6640   -2.3990 C.2     1  UNL1        0.0510
     10  C          9.3840   -0.7810   -0.7190 C.2     1  UNL1        0.1660
     11  C          9.1810   -1.6520   -1.7670 C.2     1  UNL1        0.1650
     12  O         10.6740   -0.9590   -0.2680 O.2     1  UNL1       -0.4540
     13  O         10.3650   -2.3520   -1.9410 O.2     1  UNL1       -0.4540
     14  C         11.3660   -1.8810   -1.0710 C.3     1  UNL1        0.4680
@<TRIPOS>BOND
     1     9     7    1
     2     9    11    2
     3     7     6    2
     4    13    11    1
     5    13    14    1
     6    11    10    1
     7    14    12    1
     8     6     5    1
     9     6     8    1
    10    10     8    2
    11    10    12    1
    12     5     1    1
    13     1     2    1
    14     2     3    1
    15     2     4    2
