@<TRIPOS>MOLECULE
/home/cewinharhar/GITHUB/reincatalyze/data/processed/docking_pred/2023-May-31-1438_sub9_nm5_bs15_s42_ex16_mel10_mts1000_k50_ec05_g099_lra9e-4_lrc3e-3/09c0e00cbaa22f287e1ef7d21129eabb08ea3244_ligand_9.pdbqt
 14 15 0 0 0
SMALL
GASTEIGER

@<TRIPOS>ATOM
      1  C          6.4490    1.0830    0.8420 C.3     1  UNL1        0.0800
      2  C          5.7140    0.3460    1.9070 C.2     1  UNL1        0.1300
      3  C          6.2760   -0.8770    2.5400 C.3     1  UNL1        0.0870
      4  O          4.6210    0.7270    2.2920 O.2     1  UNL1       -0.3000
      5  C          5.9710    0.6790   -0.5390 C.3     1  UNL1        0.0430
      6  C          6.9650   -0.1520   -1.2400 C.2     1  UNL1       -0.0440
      7  C          7.5910    0.2880   -2.4130 C.2     1  UNL1        0.0080
      8  C          7.2960   -1.3900   -0.7380 C.2     1  UNL1        0.0540
      9  C          8.5170   -0.5350   -3.0280 C.2     1  UNL1        0.0510
     10  C          8.2340   -2.2170   -1.3630 C.2     1  UNL1        0.1660
     11  C          8.8490   -1.7860   -2.5170 C.2     1  UNL1        0.1650
     12  O          8.7260   -3.4700   -1.0670 O.2     1  UNL1       -0.4540
     13  O          9.7160   -2.7940   -2.9100 O.2     1  UNL1       -0.4540
     14  C          9.7370   -3.8410   -1.9690 C.3     1  UNL1        0.4680
@<TRIPOS>BOND
     1     9    11    2
     2     9     7    1
     3    13    11    1
     4    13    14    1
     5    11    10    1
     6     7     6    2
     7    14    12    1
     8    10    12    1
     9    10     8    2
    10     6     8    1
    11     6     5    1
    12     5     1    1
    13     1     2    1
    14     2     4    2
    15     2     3    1
