MODEL 1
REMARK VINA RESULT:      -8.2      0.000      0.000
REMARK SMILES CC(=O)CCc1ccc2c(c1)OCO2
REMARK SMILES IDX 4 1 2 2 1 3 3 4 5 5 6 6 7 7 11 8 8 9 10 10 9 11 12 12 14 13
REMARK SMILES IDX 13 14
REMARK H PARENT
REMARK Flexibility Score: inf
ROOT
ATOM      1  C   UNL     1       5.960   1.482   0.915  1.00  0.00     0.080 C 
ENDROOT
BRANCH   1   2
ATOM      2  C   UNL     1       5.428   0.491   1.892  1.00  0.00     0.130 C 
ATOM      3  C   UNL     1       6.195  -0.728   2.264  1.00  0.00     0.087 C 
ATOM      4  O   UNL     1       4.339   0.653   2.419  1.00  0.00    -0.300 OA
ENDBRANCH   1   2
BRANCH   1   5
ATOM      5  C   UNL     1       5.853   0.965  -0.506  1.00  0.00     0.043 C 
BRANCH   5   6
ATOM      6  C   UNL     1       7.095   0.301  -0.941  1.00  0.00    -0.044 A 
ATOM      7  C   UNL     1       8.343   0.920  -0.808  1.00  0.00     0.008 A 
ATOM      8  C   UNL     1       7.037  -0.959  -1.491  1.00  0.00     0.054 A 
ATOM      9  C   UNL     1       9.474   0.248  -1.233  1.00  0.00     0.051 A 
ATOM     10  C   UNL     1       8.184  -1.635  -1.919  1.00  0.00     0.166 A 
ATOM     11  C   UNL     1       9.412  -1.026  -1.789  1.00  0.00     0.165 A 
ATOM     12  O   UNL     1       8.387  -2.874  -2.489  1.00  0.00    -0.454 OA
ATOM     13  O   UNL     1      10.354  -1.913  -2.287  1.00  0.00    -0.454 OA
ATOM     14  C   UNL     1       9.757  -3.133  -2.657  1.00  0.00     0.468 C 
ENDBRANCH   5   6
ENDBRANCH   1   5
TORSDOF 3
ENDMDL
MODEL 2
REMARK VINA RESULT:      -7.6      1.073      1.604
REMARK SMILES CC(=O)CCc1ccc2c(c1)OCO2
REMARK SMILES IDX 4 1 2 2 1 3 3 4 5 5 6 6 7 7 11 8 8 9 10 10 9 11 12 12 14 13
REMARK SMILES IDX 13 14
REMARK H PARENT
REMARK Flexibility Score: inf
ROOT
ATOM      1  C   UNL     1       5.873   0.720   0.174  1.00  0.00     0.080 C 
ENDROOT
BRANCH   1   2
ATOM      2  C   UNL     1       5.596   0.234   1.555  1.00  0.00     0.130 C 
ATOM      3  C   UNL     1       6.267  -0.973   2.107  1.00  0.00     0.087 C 
ATOM      4  O   UNL     1       4.803   0.816   2.276  1.00  0.00    -0.300 OA
ENDBRANCH   1   2
BRANCH   1   5
ATOM      5  C   UNL     1       7.350   1.002  -0.024  1.00  0.00     0.043 C 
BRANCH   5   6
ATOM      6  C   UNL     1       7.981   0.011  -0.914  1.00  0.00    -0.044 A 
ATOM      7  C   UNL     1       7.538  -0.182  -2.227  1.00  0.00     0.008 A 
ATOM      8  C   UNL     1       9.033  -0.747  -0.453  1.00  0.00     0.054 A 
ATOM      9  C   UNL     1       8.169  -1.126  -3.017  1.00  0.00     0.051 A 
ATOM     10  C   UNL     1       9.669  -1.700  -1.255  1.00  0.00     0.166 A 
ATOM     11  C   UNL     1       9.233  -1.891  -2.548  1.00  0.00     0.165 A 
ATOM     12  O   UNL     1      10.718  -2.566  -1.033  1.00  0.00    -0.454 OA
ATOM     13  O   UNL     1      10.033  -2.879  -3.099  1.00  0.00    -0.454 OA
ATOM     14  C   UNL     1      11.046  -3.271  -2.203  1.00  0.00     0.468 C 
ENDBRANCH   5   6
ENDBRANCH   1   5
TORSDOF 3
ENDMDL
MODEL 3
REMARK VINA RESULT:      -7.3      0.998      1.756
REMARK SMILES CC(=O)CCc1ccc2c(c1)OCO2
REMARK SMILES IDX 4 1 2 2 1 3 3 4 5 5 6 6 7 7 11 8 8 9 10 10 9 11 12 12 14 13
REMARK SMILES IDX 13 14
REMARK H PARENT
REMARK Flexibility Score: inf
ROOT
ATOM      1  C   UNL     1       6.242   1.355   0.972  1.00  0.00     0.080 C 
ENDROOT
BRANCH   1   2
ATOM      2  C   UNL     1       5.518   0.422   1.881  1.00  0.00     0.130 C 
ATOM      3  C   UNL     1       6.102  -0.885   2.284  1.00  0.00     0.087 C 
ATOM      4  O   UNL     1       4.417   0.707   2.323  1.00  0.00    -0.300 OA
ENDBRANCH   1   2
BRANCH   1   5
ATOM      5  C   UNL     1       6.054   0.965  -0.480  1.00  0.00     0.043 C 
BRANCH   5   6
ATOM      6  C   UNL     1       7.115   0.052  -0.943  1.00  0.00    -0.044 A 
ATOM      7  C   UNL     1       6.909  -0.831  -2.009  1.00  0.00     0.008 A 
ATOM      8  C   UNL     1       8.343   0.062  -0.320  1.00  0.00     0.054 A 
ATOM      9  C   UNL     1       7.942  -1.664  -2.399  1.00  0.00     0.051 A 
ATOM     10  C   UNL     1       9.384  -0.781  -0.719  1.00  0.00     0.166 A 
ATOM     11  C   UNL     1       9.181  -1.652  -1.767  1.00  0.00     0.165 A 
ATOM     12  O   UNL     1      10.674  -0.959  -0.268  1.00  0.00    -0.454 OA
ATOM     13  O   UNL     1      10.365  -2.352  -1.941  1.00  0.00    -0.454 OA
ATOM     14  C   UNL     1      11.366  -1.881  -1.071  1.00  0.00     0.468 C 
ENDBRANCH   5   6
ENDBRANCH   1   5
TORSDOF 3
ENDMDL
MODEL 4
REMARK VINA RESULT:      -7.3      1.082      1.113
REMARK SMILES CC(=O)CCc1ccc2c(c1)OCO2
REMARK SMILES IDX 4 1 2 2 1 3 3 4 5 5 6 6 7 7 11 8 8 9 10 10 9 11 12 12 14 13
REMARK SMILES IDX 13 14
REMARK H PARENT
REMARK Flexibility Score: inf
ROOT
ATOM      1  C   UNL     1       6.449   1.083   0.842  1.00  0.00     0.080 C 
ENDROOT
BRANCH   1   2
ATOM      2  C   UNL     1       5.714   0.346   1.907  1.00  0.00     0.130 C 
ATOM      3  C   UNL     1       6.276  -0.877   2.540  1.00  0.00     0.087 C 
ATOM      4  O   UNL     1       4.621   0.727   2.292  1.00  0.00    -0.300 OA
ENDBRANCH   1   2
BRANCH   1   5
ATOM      5  C   UNL     1       5.971   0.679  -0.539  1.00  0.00     0.043 C 
BRANCH   5   6
ATOM      6  C   UNL     1       6.965  -0.152  -1.240  1.00  0.00    -0.044 A 
ATOM      7  C   UNL     1       7.591   0.288  -2.413  1.00  0.00     0.008 A 
ATOM      8  C   UNL     1       7.296  -1.390  -0.738  1.00  0.00     0.054 A 
ATOM      9  C   UNL     1       8.517  -0.535  -3.028  1.00  0.00     0.051 A 
ATOM     10  C   UNL     1       8.234  -2.217  -1.363  1.00  0.00     0.166 A 
ATOM     11  C   UNL     1       8.849  -1.786  -2.517  1.00  0.00     0.165 A 
ATOM     12  O   UNL     1       8.726  -3.470  -1.067  1.00  0.00    -0.454 OA
ATOM     13  O   UNL     1       9.716  -2.794  -2.910  1.00  0.00    -0.454 OA
ATOM     14  C   UNL     1       9.737  -3.841  -1.969  1.00  0.00     0.468 C 
ENDBRANCH   5   6
ENDBRANCH   1   5
TORSDOF 3
ENDMDL
MODEL 5
REMARK VINA RESULT:      -7.1      2.227      2.715
REMARK SMILES CC(=O)CCc1ccc2c(c1)OCO2
REMARK SMILES IDX 4 1 2 2 1 3 3 4 5 5 6 6 7 7 11 8 8 9 10 10 9 11 12 12 14 13
REMARK SMILES IDX 13 14
REMARK H PARENT
REMARK Flexibility Score: inf
ROOT
ATOM      1  C   UNL     1       6.813  -0.205   1.901  1.00  0.00     0.080 C 
ENDROOT
BRANCH   1   2
ATOM      2  C   UNL     1       5.597   0.558   1.506  1.00  0.00     0.130 C 
ATOM      3  C   UNL     1       5.492   1.232   0.184  1.00  0.00     0.087 C 
ATOM      4  O   UNL     1       4.643   0.652   2.262  1.00  0.00    -0.300 OA
ENDBRANCH   1   2
BRANCH   1   5
ATOM      5  C   UNL     1       7.090  -1.340   0.934  1.00  0.00     0.043 C 
BRANCH   5   6
ATOM      6  C   UNL     1       8.496  -1.352   0.493  1.00  0.00    -0.044 A 
ATOM      7  C   UNL     1       9.090  -0.228  -0.093  1.00  0.00     0.008 A 
ATOM      8  C   UNL     1       9.253  -2.489   0.659  1.00  0.00     0.054 A 
ATOM      9  C   UNL     1      10.414  -0.297  -0.486  1.00  0.00     0.051 A 
ATOM     10  C   UNL     1      10.592  -2.554   0.260  1.00  0.00     0.166 A 
ATOM     11  C   UNL     1      11.177  -1.449  -0.318  1.00  0.00     0.165 A 
ATOM     12  O   UNL     1      11.541  -3.552   0.314  1.00  0.00    -0.454 OA
ATOM     13  O   UNL     1      12.487  -1.795  -0.608  1.00  0.00    -0.454 OA
ATOM     14  C   UNL     1      12.786  -3.089  -0.141  1.00  0.00     0.468 C 
ENDBRANCH   5   6
ENDBRANCH   1   5
TORSDOF 3
ENDMDL
