MODEL 1
REMARK VINA RESULT:      -7.2      0.000      0.000
REMARK SMILES CC(=O)CCc1ccc2c(c1)OCO2
REMARK SMILES IDX 4 1 2 2 1 3 3 4 5 5 6 6 7 7 11 8 8 9 10 10 9 11 12 12 14 13
REMARK SMILES IDX 13 14
REMARK H PARENT
REMARK Flexibility Score: inf
ROOT
ATOM      1  C   UNL     1       5.912   1.548   1.202  1.00  0.00     0.080 C 
ENDROOT
BRANCH   1   2
ATOM      2  C   UNL     1       5.399   0.421   2.030  1.00  0.00     0.130 C 
ATOM      3  C   UNL     1       6.233  -0.776   2.321  1.00  0.00     0.087 C 
ATOM      4  O   UNL     1       4.272   0.448   2.496  1.00  0.00    -0.300 OA
ENDBRANCH   1   2
BRANCH   1   5
ATOM      5  C   UNL     1       5.678   1.297  -0.275  1.00  0.00     0.043 C 
BRANCH   5   6
ATOM      6  C   UNL     1       6.827   0.623  -0.904  1.00  0.00    -0.044 A 
ATOM      7  C   UNL     1       8.101   1.204  -0.916  1.00  0.00     0.008 A 
ATOM      8  C   UNL     1       6.657  -0.609  -1.494  1.00  0.00     0.054 A 
ATOM      9  C   UNL     1       9.142   0.524  -1.521  1.00  0.00     0.051 A 
ATOM     10  C   UNL     1       7.713  -1.292  -2.103  1.00  0.00     0.166 A 
ATOM     11  C   UNL     1       8.966  -0.721  -2.117  1.00  0.00     0.165 A 
ATOM     12  O   UNL     1       7.798  -2.508  -2.748  1.00  0.00    -0.454 OA
ATOM     13  O   UNL     1       9.804  -1.607  -2.776  1.00  0.00    -0.454 OA
ATOM     14  C   UNL     1       9.124  -2.793  -3.113  1.00  0.00     0.468 C 
ENDBRANCH   5   6
ENDBRANCH   1   5
TORSDOF 3
ENDMDL
MODEL 2
REMARK VINA RESULT:      -7.1      1.042      1.051
REMARK SMILES CC(=O)CCc1ccc2c(c1)OCO2
REMARK SMILES IDX 4 1 2 2 1 3 3 4 5 5 6 6 7 7 11 8 8 9 10 10 9 11 12 12 14 13
REMARK SMILES IDX 13 14
REMARK H PARENT
REMARK Flexibility Score: inf
ROOT
ATOM      1  C   UNL     1       6.382   1.218   0.929  1.00  0.00     0.080 C 
ENDROOT
BRANCH   1   2
ATOM      2  C   UNL     1       5.660   0.383   1.928  1.00  0.00     0.130 C 
ATOM      3  C   UNL     1       6.266  -0.849   2.501  1.00  0.00     0.087 C 
ATOM      4  O   UNL     1       4.541   0.688   2.309  1.00  0.00    -0.300 OA
ENDBRANCH   1   2
BRANCH   1   5
ATOM      5  C   UNL     1       5.879   0.953  -0.477  1.00  0.00     0.043 C 
BRANCH   5   6
ATOM      6  C   UNL     1       6.823   0.123  -1.247  1.00  0.00    -0.044 A 
ATOM      7  C   UNL     1       7.516   0.634  -2.350  1.00  0.00     0.008 A 
ATOM      8  C   UNL     1       7.037  -1.186  -0.879  1.00  0.00     0.054 A 
ATOM      9  C   UNL     1       8.389  -0.192  -3.035  1.00  0.00     0.051 A 
ATOM     10  C   UNL     1       7.922  -2.016  -1.574  1.00  0.00     0.166 A 
ATOM     11  C   UNL     1       8.603  -1.515  -2.661  1.00  0.00     0.165 A 
ATOM     12  O   UNL     1       8.302  -3.331  -1.410  1.00  0.00    -0.454 OA
ATOM     13  O   UNL     1       9.396  -2.543  -3.146  1.00  0.00    -0.454 OA
ATOM     14  C   UNL     1       9.304  -3.685  -2.328  1.00  0.00     0.468 C 
ENDBRANCH   5   6
ENDBRANCH   1   5
TORSDOF 3
ENDMDL
MODEL 3
REMARK VINA RESULT:      -7.0      1.746      2.199
REMARK SMILES CC(=O)CCc1ccc2c(c1)OCO2
REMARK SMILES IDX 4 1 2 2 1 3 3 4 5 5 6 6 7 7 11 8 8 9 10 10 9 11 12 12 14 13
REMARK SMILES IDX 13 14
REMARK H PARENT
REMARK Flexibility Score: inf
ROOT
ATOM      1  C   UNL     1       5.908   1.119  -0.196  1.00  0.00     0.080 C 
ENDROOT
BRANCH   1   2
ATOM      2  C   UNL     1       5.898   1.133   1.294  1.00  0.00     0.130 C 
ATOM      3  C   UNL     1       5.386  -0.020   2.082  1.00  0.00     0.087 C 
ATOM      4  O   UNL     1       6.312   2.099   1.914  1.00  0.00    -0.300 OA
ENDBRANCH   1   2
BRANCH   1   5
ATOM      5  C   UNL     1       7.324   1.115  -0.737  1.00  0.00     0.043 C 
BRANCH   5   6
ATOM      6  C   UNL     1       7.723  -0.221  -1.213  1.00  0.00    -0.044 A 
ATOM      7  C   UNL     1       7.923  -0.486  -2.573  1.00  0.00     0.008 A 
ATOM      8  C   UNL     1       7.910  -1.241  -0.307  1.00  0.00     0.054 A 
ATOM      9  C   UNL     1       8.298  -1.759  -2.961  1.00  0.00     0.051 A 
ATOM     10  C   UNL     1       8.290  -2.526  -0.704  1.00  0.00     0.166 A 
ATOM     11  C   UNL     1       8.485  -2.787  -2.042  1.00  0.00     0.165 A 
ATOM     12  O   UNL     1       8.534  -3.691  -0.008  1.00  0.00    -0.454 OA
ATOM     13  O   UNL     1       8.850  -4.121  -2.141  1.00  0.00    -0.454 OA
ATOM     14  C   UNL     1       8.981  -4.708  -0.868  1.00  0.00     0.468 C 
ENDBRANCH   5   6
ENDBRANCH   1   5
TORSDOF 3
ENDMDL
MODEL 4
REMARK VINA RESULT:      -6.6      1.964      2.540
REMARK SMILES CC(=O)CCc1ccc2c(c1)OCO2
REMARK SMILES IDX 4 1 2 2 1 3 3 4 5 5 6 6 7 7 11 8 8 9 10 10 9 11 12 12 14 13
REMARK SMILES IDX 13 14
REMARK H PARENT
REMARK Flexibility Score: inf
ROOT
ATOM      1  C   UNL     1       6.159  -0.402   2.333  1.00  0.00     0.080 C 
ENDROOT
BRANCH   1   2
ATOM      2  C   UNL     1       5.117   0.562   1.881  1.00  0.00     0.130 C 
ATOM      3  C   UNL     1       5.311   1.415   0.678  1.00  0.00     0.087 C 
ATOM      4  O   UNL     1       4.066   0.680   2.490  1.00  0.00    -0.300 OA
ENDBRANCH   1   2
BRANCH   1   5
ATOM      5  C   UNL     1       7.496  -0.112   1.681  1.00  0.00     0.043 C 
BRANCH   5   6
ATOM      6  C   UNL     1       7.780  -1.045   0.576  1.00  0.00    -0.044 A 
ATOM      7  C   UNL     1       7.619  -0.667  -0.762  1.00  0.00     0.008 A 
ATOM      8  C   UNL     1       8.215  -2.321   0.855  1.00  0.00     0.054 A 
ATOM      9  C   UNL     1       7.901  -1.586  -1.757  1.00  0.00     0.051 A 
ATOM     10  C   UNL     1       8.500  -3.245  -0.154  1.00  0.00     0.166 A 
ATOM     11  C   UNL     1       8.341  -2.875  -1.471  1.00  0.00     0.165 A 
ATOM     12  O   UNL     1       8.939  -4.552  -0.135  1.00  0.00    -0.454 OA
ATOM     13  O   UNL     1       8.690  -3.973  -2.242  1.00  0.00    -0.454 OA
ATOM     14  C   UNL     1       9.162  -5.028  -1.438  1.00  0.00     0.468 C 
ENDBRANCH   5   6
ENDBRANCH   1   5
TORSDOF 3
ENDMDL
MODEL 5
REMARK VINA RESULT:      -6.4      2.049      2.464
REMARK SMILES CC(=O)CCc1ccc2c(c1)OCO2
REMARK SMILES IDX 4 1 2 2 1 3 3 4 5 5 6 6 7 7 11 8 8 9 10 10 9 11 12 12 14 13
REMARK SMILES IDX 13 14
REMARK H PARENT
REMARK Flexibility Score: inf
ROOT
ATOM      1  C   UNL     1       5.808   1.066  -0.287  1.00  0.00     0.080 C 
ENDROOT
BRANCH   1   2
ATOM      2  C   UNL     1       5.741   1.252   1.190  1.00  0.00     0.130 C 
ATOM      3  C   UNL     1       4.907   0.371   2.050  1.00  0.00     0.087 C 
ATOM      4  O   UNL     1       6.373   2.139   1.739  1.00  0.00    -0.300 OA
ENDBRANCH   1   2
BRANCH   1   5
ATOM      5  C   UNL     1       7.235   0.846  -0.750  1.00  0.00     0.043 C 
BRANCH   5   6
ATOM      6  C   UNL     1       7.698  -0.522  -0.460  1.00  0.00    -0.044 A 
ATOM      7  C   UNL     1       7.929  -0.957   0.850  1.00  0.00     0.008 A 
ATOM      8  C   UNL     1       7.910  -1.404  -1.496  1.00  0.00     0.054 A 
ATOM      9  C   UNL     1       8.362  -2.253   1.061  1.00  0.00     0.051 A 
ATOM     10  C   UNL     1       8.348  -2.714  -1.278  1.00  0.00     0.166 A 
ATOM     11  C   UNL     1       8.576  -3.142   0.011  1.00  0.00     0.165 A 
ATOM     12  O   UNL     1       8.628  -3.764  -2.125  1.00  0.00    -0.454 OA
ATOM     13  O   UNL     1       8.995  -4.460  -0.072  1.00  0.00    -0.454 OA
ATOM     14  C   UNL     1       8.955  -4.923  -1.401  1.00  0.00     0.468 C 
ENDBRANCH   5   6
ENDBRANCH   1   5
TORSDOF 3
ENDMDL
