@<TRIPOS>MOLECULE
/home/cewinharhar/GITHUB/reincatalyze/data/processed/docking_pred/2023-May-31-1438_sub9_nm5_bs15_s42_ex16_mel10_mts1000_k50_ec05_g099_lra9e-4_lrc3e-3/0df60b8790b800bbceb9ee276e91b409308b6f54_ligand_9.pdbqt
 14 15 0 0 0
SMALL
GASTEIGER

@<TRIPOS>ATOM
      1  C          6.8750    0.7640    0.9560 C.3     1  UNL1        0.0800
      2  C          5.4880    1.1380    1.3500 C.2     1  UNL1        0.1300
      3  C          4.7070    2.1500    0.5900 C.3     1  UNL1        0.0870
      4  O          4.9500    0.6200    2.3150 O.2     1  UNL1       -0.3000
      5  C          7.0600    0.8380   -0.5470 C.3     1  UNL1        0.0430
      6  C          7.5900   -0.4230   -1.0950 C.2     1  UNL1       -0.0440
      7  C          7.9210   -0.5520   -2.4490 C.2     1  UNL1        0.0080
      8  C          7.7700   -1.5060   -0.2640 C.2     1  UNL1        0.0540
      9  C          8.4160   -1.7600   -2.9060 C.2     1  UNL1        0.0510
     10  C          8.2710   -2.7250   -0.7320 C.2     1  UNL1        0.1660
     11  C          8.5960   -2.8530   -2.0640 C.2     1  UNL1        0.1650
     12  O          8.5360   -3.9300   -0.1160 O.2     1  UNL1       -0.4540
     13  O          9.0600   -4.1470   -2.2400 O.2     1  UNL1       -0.4540
     14  C          9.1240   -4.8360   -1.0140 C.3     1  UNL1        0.4680
@<TRIPOS>BOND
     1     9     7    1
     2     9    11    2
     3     7     6    2
     4    13    11    1
     5    13    14    1
     6    11    10    1
     7     6     5    1
     8     6     8    1
     9    14    12    1
    10    10     8    2
    11    10    12    1
    12     5     1    1
    13     3     2    1
    14     1     2    1
    15     2     4    2
