@<TRIPOS>MOLECULE
/home/cewinharhar/GITHUB/reincatalyze/data/processed/docking_pred/2023-May-31-1438_sub9_nm5_bs15_s42_ex16_mel10_mts1000_k50_ec05_g099_lra9e-4_lrc3e-3/10ef791c1764d6d7d99274693c0e95c254b80295_ligand_9.pdbqt
 14 15 0 0 0
SMALL
GASTEIGER

@<TRIPOS>ATOM
      1  C          6.8130   -0.2050    1.9010 C.3     1  UNL1        0.0800
      2  C          5.5970    0.5580    1.5060 C.2     1  UNL1        0.1300
      3  C          5.4920    1.2320    0.1840 C.3     1  UNL1        0.0870
      4  O          4.6430    0.6520    2.2620 O.2     1  UNL1       -0.3000
      5  C          7.0900   -1.3400    0.9340 C.3     1  UNL1        0.0430
      6  C          8.4960   -1.3520    0.4930 C.2     1  UNL1       -0.0440
      7  C          9.0900   -0.2280   -0.0930 C.2     1  UNL1        0.0080
      8  C          9.2530   -2.4890    0.6590 C.2     1  UNL1        0.0540
      9  C         10.4140   -0.2970   -0.4860 C.2     1  UNL1        0.0510
     10  C         10.5920   -2.5540    0.2600 C.2     1  UNL1        0.1660
     11  C         11.1770   -1.4490   -0.3180 C.2     1  UNL1        0.1650
     12  O         11.5410   -3.5520    0.3140 O.2     1  UNL1       -0.4540
     13  O         12.4870   -1.7950   -0.6080 O.2     1  UNL1       -0.4540
     14  C         12.7860   -3.0890   -0.1410 C.3     1  UNL1        0.4680
@<TRIPOS>BOND
     1    13    11    1
     2    13    14    1
     3     9    11    2
     4     9     7    1
     5    11    10    1
     6    14    12    1
     7     7     6    2
     8     3     2    1
     9    10    12    1
    10    10     8    2
    11     6     8    1
    12     6     5    1
    13     5     1    1
    14     2     1    1
    15     2     4    2
