@<TRIPOS>MOLECULE
/home/cewinharhar/GITHUB/reincatalyze/data/processed/docking_pred/2023-May-31-1438_sub9_nm5_bs15_s42_ex16_mel10_mts1000_k50_ec05_g099_lra9e-4_lrc3e-3/13c3a96d7f073914410e4f6d6c0e2190084e407e_ligand_9.pdbqt
 14 15 0 0 0
SMALL
GASTEIGER

@<TRIPOS>ATOM
      1  C          6.9040    0.5550    1.1270 C.3     1  UNL1        0.0800
      2  C          5.5220    1.0300    1.4180 C.2     1  UNL1        0.1300
      3  C          4.9060    2.1500    0.6580 C.3     1  UNL1        0.0870
      4  O          4.8520    0.5090    2.2950 O.2     1  UNL1       -0.3000
      5  C          7.2470    0.7250   -0.3400 C.3     1  UNL1        0.0430
      6  C          7.7280   -0.5330   -0.9380 C.2     1  UNL1       -0.0440
      7  C          8.0140   -0.6330   -2.3040 C.2     1  UNL1        0.0080
      8  C          7.9060   -1.6420   -0.1420 C.2     1  UNL1        0.0540
      9  C          8.4630   -1.8390   -2.8100 C.2     1  UNL1        0.0510
     10  C          8.3610   -2.8590   -0.6580 C.2     1  UNL1        0.1660
     11  C          8.6410   -2.9590   -2.0030 C.2     1  UNL1        0.1650
     12  O          8.6150   -4.0870   -0.0840 O.2     1  UNL1       -0.4540
     13  O          9.0670   -4.2590   -2.2290 O.2     1  UNL1       -0.4540
     14  C          9.1520   -4.9820   -1.0240 C.3     1  UNL1        0.4680
@<TRIPOS>BOND
     1     9     7    1
     2     9    11    2
     3     7     6    2
     4    13    11    1
     5    13    14    1
     6    11    10    1
     7    14    12    1
     8     6     5    1
     9     6     8    1
    10    10     8    2
    11    10    12    1
    12     5     1    1
    13     3     2    1
    14     1     2    1
    15     2     4    2
