MODEL 1
REMARK VINA RESULT:      -7.6      0.000      0.000
REMARK SMILES CC(=O)CCc1ccc2c(c1)OCO2
REMARK SMILES IDX 4 1 2 2 1 3 3 4 5 5 6 6 7 7 11 8 8 9 10 10 9 11 12 12 14 13
REMARK SMILES IDX 13 14
REMARK H PARENT
REMARK Flexibility Score: inf
ROOT
ATOM      1  C   UNL     1       5.510   1.891   1.284  1.00  0.00     0.080 C 
ENDROOT
BRANCH   1   2
ATOM      2  C   UNL     1       5.009   0.686   2.001  1.00  0.00     0.130 C 
ATOM      3  C   UNL     1       5.816  -0.561   2.090  1.00  0.00     0.087 C 
ATOM      4  O   UNL     1       3.913   0.686   2.539  1.00  0.00    -0.300 OA
ENDBRANCH   1   2
BRANCH   1   5
ATOM      5  C   UNL     1       5.390   1.728  -0.219  1.00  0.00     0.043 C 
BRANCH   5   6
ATOM      6  C   UNL     1       6.558   1.032  -0.787  1.00  0.00    -0.044 A 
ATOM      7  C   UNL     1       7.864   1.473  -0.544  1.00  0.00     0.008 A 
ATOM      8  C   UNL     1       6.372  -0.080  -1.576  1.00  0.00     0.054 A 
ATOM      9  C   UNL     1       8.922   0.780  -1.103  1.00  0.00     0.051 A 
ATOM     10  C   UNL     1       7.445  -0.778  -2.139  1.00  0.00     0.166 A 
ATOM     11  C   UNL     1       8.730  -0.344  -1.901  1.00  0.00     0.165 A 
ATOM     12  O   UNL     1       7.521  -1.894  -2.946  1.00  0.00    -0.454 OA
ATOM     13  O   UNL     1       9.577  -1.212  -2.573  1.00  0.00    -0.454 OA
ATOM     14  C   UNL     1       8.857  -2.262  -3.174  1.00  0.00     0.468 C 
ENDBRANCH   5   6
ENDBRANCH   1   5
TORSDOF 3
ENDMDL
MODEL 2
REMARK VINA RESULT:      -7.4      1.923      2.376
REMARK SMILES CC(=O)CCc1ccc2c(c1)OCO2
REMARK SMILES IDX 4 1 2 2 1 3 3 4 5 5 6 6 7 7 11 8 8 9 10 10 9 11 12 12 14 13
REMARK SMILES IDX 13 14
REMARK H PARENT
REMARK Flexibility Score: inf
ROOT
ATOM      1  C   UNL     1       5.713   1.337  -0.288  1.00  0.00     0.080 C 
ENDROOT
BRANCH   1   2
ATOM      2  C   UNL     1       5.107   1.274   1.071  1.00  0.00     0.130 C 
ATOM      3  C   UNL     1       5.424   0.172   2.017  1.00  0.00     0.087 C 
ATOM      4  O   UNL     1       4.327   2.133   1.450  1.00  0.00    -0.300 OA
ENDBRANCH   1   2
BRANCH   1   5
ATOM      5  C   UNL     1       7.211   1.113  -0.234  1.00  0.00     0.043 C 
BRANCH   5   6
ATOM      6  C   UNL     1       7.594  -0.172  -0.846  1.00  0.00    -0.044 A 
ATOM      7  C   UNL     1       7.685  -0.325  -2.234  1.00  0.00     0.008 A 
ATOM      8  C   UNL     1       7.873  -1.254  -0.042  1.00  0.00     0.054 A 
ATOM      9  C   UNL     1       8.050  -1.554  -2.752  1.00  0.00     0.051 A 
ATOM     10  C   UNL     1       8.242  -2.495  -0.570  1.00  0.00     0.166 A 
ATOM     11  C   UNL     1       8.331  -2.646  -1.936  1.00  0.00     0.165 A 
ATOM     12  O   UNL     1       8.564  -3.704   0.009  1.00  0.00    -0.454 OA
ATOM     13  O   UNL     1       8.711  -3.959  -2.170  1.00  0.00    -0.454 OA
ATOM     14  C   UNL     1       8.957  -4.639  -0.963  1.00  0.00     0.468 C 
ENDBRANCH   5   6
ENDBRANCH   1   5
TORSDOF 3
ENDMDL
MODEL 3
REMARK VINA RESULT:      -7.2      2.062      2.626
REMARK SMILES CC(=O)CCc1ccc2c(c1)OCO2
REMARK SMILES IDX 4 1 2 2 1 3 3 4 5 5 6 6 7 7 11 8 8 9 10 10 9 11 12 12 14 13
REMARK SMILES IDX 13 14
REMARK H PARENT
REMARK Flexibility Score: inf
ROOT
ATOM      1  C   UNL     1       5.404  -0.056   2.029  1.00  0.00     0.080 C 
ENDROOT
BRANCH   1   2
ATOM      2  C   UNL     1       4.558   1.143   1.771  1.00  0.00     0.130 C 
ATOM      3  C   UNL     1       4.903   2.129   0.712  1.00  0.00     0.087 C 
ATOM      4  O   UNL     1       3.550   1.352   2.427  1.00  0.00    -0.300 OA
ENDBRANCH   1   2
BRANCH   1   5
ATOM      5  C   UNL     1       6.844   0.189   1.623  1.00  0.00     0.043 C 
BRANCH   5   6
ATOM      6  C   UNL     1       7.273  -0.731   0.555  1.00  0.00    -0.044 A 
ATOM      7  C   UNL     1       7.151  -0.392  -0.798  1.00  0.00     0.008 A 
ATOM      8  C   UNL     1       7.812  -1.955   0.883  1.00  0.00     0.054 A 
ATOM      9  C   UNL     1       7.572  -1.296  -1.757  1.00  0.00     0.051 A 
ATOM     10  C   UNL     1       8.237  -2.864  -0.090  1.00  0.00     0.166 A 
ATOM     11  C   UNL     1       8.116  -2.532  -1.421  1.00  0.00     0.165 A 
ATOM     12  O   UNL     1       8.795  -4.123  -0.020  1.00  0.00    -0.454 OA
ATOM     13  O   UNL     1       8.609  -3.604  -2.148  1.00  0.00    -0.454 OA
ATOM     14  C   UNL     1       9.133  -4.596  -1.298  1.00  0.00     0.468 C 
ENDBRANCH   5   6
ENDBRANCH   1   5
TORSDOF 3
ENDMDL
MODEL 4
REMARK VINA RESULT:      -7.0      1.249      1.447
REMARK SMILES CC(=O)CCc1ccc2c(c1)OCO2
REMARK SMILES IDX 4 1 2 2 1 3 3 4 5 5 6 6 7 7 11 8 8 9 10 10 9 11 12 12 14 13
REMARK SMILES IDX 13 14
REMARK H PARENT
REMARK Flexibility Score: inf
ROOT
ATOM      1  C   UNL     1       6.317   1.240   0.893  1.00  0.00     0.080 C 
ENDROOT
BRANCH   1   2
ATOM      2  C   UNL     1       5.644   0.399   1.921  1.00  0.00     0.130 C 
ATOM      3  C   UNL     1       6.300  -0.806   2.495  1.00  0.00     0.087 C 
ATOM      4  O   UNL     1       4.526   0.676   2.324  1.00  0.00    -0.300 OA
ENDBRANCH   1   2
BRANCH   1   5
ATOM      5  C   UNL     1       5.811   0.919  -0.499  1.00  0.00     0.043 C 
BRANCH   5   6
ATOM      6  C   UNL     1       6.780   0.110  -1.260  1.00  0.00    -0.044 A 
ATOM      7  C   UNL     1       7.493   0.644  -2.340  1.00  0.00     0.008 A 
ATOM      8  C   UNL     1       6.999  -1.202  -0.908  1.00  0.00     0.054 A 
ATOM      9  C   UNL     1       8.390  -0.162  -3.016  1.00  0.00     0.051 A 
ATOM     10  C   UNL     1       7.908  -2.013  -1.594  1.00  0.00     0.166 A 
ATOM     11  C   UNL     1       8.609  -1.489  -2.657  1.00  0.00     0.165 A 
ATOM     12  O   UNL     1       8.297  -3.327  -1.441  1.00  0.00    -0.454 OA
ATOM     13  O   UNL     1       9.423  -2.502  -3.139  1.00  0.00    -0.454 OA
ATOM     14  C   UNL     1       9.324  -3.657  -2.341  1.00  0.00     0.468 C 
ENDBRANCH   5   6
ENDBRANCH   1   5
TORSDOF 3
ENDMDL
MODEL 5
REMARK VINA RESULT:      -6.8      2.029      2.653
REMARK SMILES CC(=O)CCc1ccc2c(c1)OCO2
REMARK SMILES IDX 4 1 2 2 1 3 3 4 5 5 6 6 7 7 11 8 8 9 10 10 9 11 12 12 14 13
REMARK SMILES IDX 13 14
REMARK H PARENT
REMARK Flexibility Score: inf
ROOT
ATOM      1  C   UNL     1       6.904   0.555   1.127  1.00  0.00     0.080 C 
ENDROOT
BRANCH   1   2
ATOM      2  C   UNL     1       5.522   1.030   1.418  1.00  0.00     0.130 C 
ATOM      3  C   UNL     1       4.906   2.150   0.658  1.00  0.00     0.087 C 
ATOM      4  O   UNL     1       4.852   0.509   2.295  1.00  0.00    -0.300 OA
ENDBRANCH   1   2
BRANCH   1   5
ATOM      5  C   UNL     1       7.247   0.725  -0.340  1.00  0.00     0.043 C 
BRANCH   5   6
ATOM      6  C   UNL     1       7.728  -0.533  -0.938  1.00  0.00    -0.044 A 
ATOM      7  C   UNL     1       8.014  -0.633  -2.304  1.00  0.00     0.008 A 
ATOM      8  C   UNL     1       7.906  -1.642  -0.142  1.00  0.00     0.054 A 
ATOM      9  C   UNL     1       8.463  -1.839  -2.810  1.00  0.00     0.051 A 
ATOM     10  C   UNL     1       8.361  -2.859  -0.658  1.00  0.00     0.166 A 
ATOM     11  C   UNL     1       8.641  -2.959  -2.003  1.00  0.00     0.165 A 
ATOM     12  O   UNL     1       8.615  -4.087  -0.084  1.00  0.00    -0.454 OA
ATOM     13  O   UNL     1       9.067  -4.259  -2.229  1.00  0.00    -0.454 OA
ATOM     14  C   UNL     1       9.152  -4.982  -1.024  1.00  0.00     0.468 C 
ENDBRANCH   5   6
ENDBRANCH   1   5
TORSDOF 3
ENDMDL
