@<TRIPOS>MOLECULE
/home/cewinharhar/GITHUB/reincatalyze/data/processed/docking_pred/2023-May-31-1438_sub9_nm5_bs15_s42_ex16_mel10_mts1000_k50_ec05_g099_lra9e-4_lrc3e-3/13c3a96d7f073914410e4f6d6c0e2190084e407e_ligand_9.pdbqt
 14 15 0 0 0
SMALL
GASTEIGER

@<TRIPOS>ATOM
      1  C          5.4040   -0.0560    2.0290 C.3     1  UNL1        0.0800
      2  C          4.5580    1.1430    1.7710 C.2     1  UNL1        0.1300
      3  C          4.9030    2.1290    0.7120 C.3     1  UNL1        0.0870
      4  O          3.5500    1.3520    2.4270 O.2     1  UNL1       -0.3000
      5  C          6.8440    0.1890    1.6230 C.3     1  UNL1        0.0430
      6  C          7.2730   -0.7310    0.5550 C.2     1  UNL1       -0.0440
      7  C          7.1510   -0.3920   -0.7980 C.2     1  UNL1        0.0080
      8  C          7.8120   -1.9550    0.8830 C.2     1  UNL1        0.0540
      9  C          7.5720   -1.2960   -1.7570 C.2     1  UNL1        0.0510
     10  C          8.2370   -2.8640   -0.0900 C.2     1  UNL1        0.1660
     11  C          8.1160   -2.5320   -1.4210 C.2     1  UNL1        0.1650
     12  O          8.7950   -4.1230   -0.0200 O.2     1  UNL1       -0.4540
     13  O          8.6090   -3.6040   -2.1480 O.2     1  UNL1       -0.4540
     14  C          9.1330   -4.5960   -1.2980 C.3     1  UNL1        0.4680
@<TRIPOS>BOND
     1    13    11    1
     2    13    14    1
     3     9    11    2
     4     9     7    1
     5    11    10    1
     6    14    12    1
     7     7     6    2
     8    10    12    1
     9    10     8    2
    10     6     8    1
    11     6     5    1
    12     3     2    1
    13     5     1    1
    14     2     1    1
    15     2     4    2
