@<TRIPOS>MOLECULE
/home/cewinharhar/GITHUB/reincatalyze/data/processed/docking_pred/2023-May-31-1438_sub9_nm5_bs15_s42_ex16_mel10_mts1000_k50_ec05_g099_lra9e-4_lrc3e-3/13e8c6f9c16a4fbf8ad14846e02839591438c51f_ligand_9.pdbqt
 14 15 0 0 0
SMALL
GASTEIGER

@<TRIPOS>ATOM
      1  C          6.5850    2.1500    1.5620 C.3     1  UNL1        0.0800
      2  C          5.2640    2.0520    0.8790 C.2     1  UNL1        0.1300
      3  C          5.1410    2.1500   -0.6000 C.3     1  UNL1        0.0870
      4  O          4.2390    1.8870    1.5200 O.2     1  UNL1       -0.3000
      5  C          6.7030    1.1340    2.6810 C.3     1  UNL1        0.0430
      6  C          6.9600   -0.2220    2.1630 C.2     1  UNL1       -0.0440
      7  C          5.9200   -1.1340    1.9510 C.2     1  UNL1        0.0080
      8  C          8.2480   -0.6090    1.8750 C.2     1  UNL1        0.0540
      9  C          6.2210   -2.3930    1.4620 C.2     1  UNL1        0.0510
     10  C          8.5470   -1.8820    1.3810 C.2     1  UNL1        0.1660
     11  C          7.5250   -2.7820    1.1730 C.2     1  UNL1        0.1650
     12  O          9.7280   -2.4990    1.0240 O.2     1  UNL1       -0.4540
     13  O          8.1050   -3.9430    0.6870 O.2     1  UNL1       -0.4540
     14  C          9.4890   -3.7760    0.4910 C.3     1  UNL1        0.4680
@<TRIPOS>BOND
     1     3     2    1
     2    14    13    1
     3    14    12    1
     4    13    11    1
     5     2     4    2
     6     2     1    1
     7    12    10    1
     8    11    10    2
     9    11     9    1
    10    10     8    1
    11     9     7    2
    12     1     5    1
    13     8     6    2
    14     7     6    1
    15     6     5    1
