@<TRIPOS>MOLECULE
/home/cewinharhar/GITHUB/reincatalyze/data/processed/docking_pred/2023-May-31-1438_sub9_nm5_bs15_s42_ex16_mel10_mts1000_k50_ec05_g099_lra9e-4_lrc3e-3/13e8c6f9c16a4fbf8ad14846e02839591438c51f_ligand_9.pdbqt
 14 15 0 0 0
SMALL
GASTEIGER

@<TRIPOS>ATOM
      1  C          9.0740   -2.6380    0.8840 C.3     1  UNL1        0.0800
      2  C          9.5350   -4.0250    0.5980 C.2     1  UNL1        0.1300
      3  C          9.0400   -4.7870   -0.5800 C.3     1  UNL1        0.0870
      4  O         10.3400   -4.5810    1.3290 O.2     1  UNL1       -0.3000
      5  C          7.9080   -2.6350    1.8530 C.3     1  UNL1        0.0430
      6  C          7.2110   -1.3370    1.8640 C.2     1  UNL1       -0.0440
      7  C          7.9040   -0.1300    1.7110 C.2     1  UNL1        0.0080
      8  C          5.8440   -1.2980    2.0260 C.2     1  UNL1        0.0540
      9  C          7.1960    1.0580    1.7290 C.2     1  UNL1        0.0510
     10  C          5.1330   -0.0940    2.0420 C.2     1  UNL1        0.1660
     11  C          5.8150    1.0930    1.8930 C.2     1  UNL1        0.1650
     12  O          3.7950    0.2050    2.1870 O.2     1  UNL1       -0.4540
     13  O          4.8710    2.1070    1.9480 O.2     1  UNL1       -0.4540
     14  C          3.5680    1.5840    2.0430 C.3     1  UNL1        0.4680
@<TRIPOS>BOND
     1     3     2    1
     2     2     1    1
     3     2     4    2
     4     1     5    1
     5     7     9    1
     6     7     6    2
     7     9    11    2
     8     5     6    1
     9     6     8    1
    10    11    13    1
    11    11    10    1
    12    13    14    1
    13     8    10    2
    14    10    12    1
    15    14    12    1
