@<TRIPOS>MOLECULE
/home/cewinharhar/GITHUB/reincatalyze/data/processed/docking_pred/2023-May-31-1438_sub9_nm5_bs15_s42_ex16_mel10_mts1000_k50_ec05_g099_lra9e-4_lrc3e-3/141a4713aaf07cdd351da17b8461b13d6c9c65f9_ligand_9.pdbqt
 14 15 0 0 0
SMALL
GASTEIGER

@<TRIPOS>ATOM
      1  C          5.5870    0.0340    1.9430 C.3     1  UNL1        0.0800
      2  C          4.6830    1.1750    1.6280 C.2     1  UNL1        0.1300
      3  C          4.9660    2.1070    0.5040 C.3     1  UNL1        0.0870
      4  O          3.6770    1.3780    2.2880 O.2     1  UNL1       -0.3000
      5  C          6.9950    0.2920    1.4430 C.3     1  UNL1        0.0430
      6  C          7.3970   -0.6820    0.4140 C.2     1  UNL1       -0.0440
      7  C          7.2990   -0.3890   -0.9510 C.2     1  UNL1        0.0080
      8  C          7.8850   -1.9120    0.7920 C.2     1  UNL1        0.0540
      9  C          7.6920   -1.3430   -1.8730 C.2     1  UNL1        0.0510
     10  C          8.2820   -2.8730   -0.1430 C.2     1  UNL1        0.1660
     11  C          8.1840   -2.5860   -1.4870 C.2     1  UNL1        0.1650
     12  O          8.7900   -4.1490   -0.0220 O.2     1  UNL1       -0.4540
     13  O          8.6400   -3.7020   -2.1690 O.2     1  UNL1       -0.4540
     14  C          9.1190   -4.6820   -1.2790 C.3     1  UNL1        0.4680
@<TRIPOS>BOND
     1    13    11    1
     2    13    14    1
     3     9    11    2
     4     9     7    1
     5    11    10    1
     6    14    12    1
     7     7     6    2
     8    10    12    1
     9    10     8    2
    10     6     8    1
    11     6     5    1
    12     3     2    1
    13     5     1    1
    14     2     1    1
    15     2     4    2
