@<TRIPOS>MOLECULE
/home/cewinharhar/GITHUB/reincatalyze/data/processed/docking_pred/2023-May-31-1438_sub9_nm5_bs15_s42_ex16_mel10_mts1000_k50_ec05_g099_lra9e-4_lrc3e-3/141a4713aaf07cdd351da17b8461b13d6c9c65f9_ligand_9.pdbqt
 14 15 0 0 0
SMALL
GASTEIGER

@<TRIPOS>ATOM
      1  C          5.5620    1.8720    1.2850 C.3     1  UNL1        0.0800
      2  C          5.1070    0.6550    2.0140 C.2     1  UNL1        0.1300
      3  C          5.9910   -0.5290    2.1860 C.3     1  UNL1        0.0870
      4  O          3.9870    0.5960    2.4950 O.2     1  UNL1       -0.3000
      5  C          5.4240    1.6980   -0.2150 C.3     1  UNL1        0.0430
      6  C          6.5850    0.9990   -0.7940 C.2     1  UNL1       -0.0440
      7  C          7.8930    1.4440   -0.5730 C.2     1  UNL1        0.0080
      8  C          6.3900   -0.1210   -1.5700 C.2     1  UNL1        0.0540
      9  C          8.9440    0.7470   -1.1410 C.2     1  UNL1        0.0510
     10  C          7.4560   -0.8220   -2.1420 C.2     1  UNL1        0.1660
     11  C          8.7430   -0.3840   -1.9260 C.2     1  UNL1        0.1650
     12  O          7.5220   -1.9450   -2.9400 O.2     1  UNL1       -0.4540
     13  O          9.5820   -1.2570   -2.6020 O.2     1  UNL1       -0.4540
     14  C          8.8550   -2.3130   -3.1830 C.3     1  UNL1        0.4680
@<TRIPOS>BOND
     1    14    12    1
     2    14    13    1
     3    12    10    1
     4    13    11    1
     5    10    11    2
     6    10     8    1
     7    11     9    1
     8     8     6    2
     9     9     7    2
    10     6     7    1
    11     6     5    1
    12     5     1    1
    13     1     2    1
    14     2     3    1
    15     2     4    2
