@<TRIPOS>MOLECULE
/home/cewinharhar/GITHUB/reincatalyze/data/processed/docking_pred/2023-May-31-1438_sub9_nm5_bs15_s42_ex16_mel10_mts1000_k50_ec05_g099_lra9e-4_lrc3e-3/1444e75be78da7e2931ed2b5f85ad252461f0798_ligand_9.pdbqt
 14 15 0 0 0
SMALL
GASTEIGER

@<TRIPOS>ATOM
      1  C          5.3080   -0.0530    1.9460 C.3     1  UNL1        0.0800
      2  C          4.4170    1.1280    1.7710 C.2     1  UNL1        0.1300
      3  C          4.6710    2.1490    0.7200 C.3     1  UNL1        0.0870
      4  O          3.4460    1.2920    2.4920 O.2     1  UNL1       -0.3000
      5  C          6.7690    0.3430    1.8700 C.3     1  UNL1        0.0430
      6  C          7.3710   -0.0350    0.5790 C.2     1  UNL1       -0.0440
      7  C          7.8490    0.9290   -0.3170 C.2     1  UNL1        0.0080
      8  C          7.4740   -1.3640    0.2370 C.2     1  UNL1        0.0540
      9  C          8.4050    0.5150   -1.5140 C.2     1  UNL1        0.0510
     10  C          8.0380   -1.7770   -0.9740 C.2     1  UNL1        0.1660
     11  C          8.5070   -0.8300   -1.8560 C.2     1  UNL1        0.1650
     12  O          8.2500   -3.0180   -1.5370 O.2     1  UNL1       -0.4540
     13  O          9.0040   -1.5160   -2.9540 O.2     1  UNL1       -0.4540
     14  C          8.9430   -2.9080   -2.7530 C.3     1  UNL1        0.4680
@<TRIPOS>BOND
     1    13    14    1
     2    13    11    1
     3    14    12    1
     4    11     9    2
     5    11    10    1
     6    12    10    1
     7     9     7    1
     8    10     8    2
     9     7     6    2
    10     8     6    1
    11     6     5    1
    12     3     2    1
    13     2     1    1
    14     2     4    2
    15     5     1    1
