@<TRIPOS>MOLECULE
/home/cewinharhar/GITHUB/reincatalyze/data/processed/docking_pred/2023-May-31-1438_sub9_nm5_bs15_s42_ex16_mel10_mts1000_k50_ec05_g099_lra9e-4_lrc3e-3/1444e75be78da7e2931ed2b5f85ad252461f0798_ligand_9.pdbqt
 14 15 0 0 0
SMALL
GASTEIGER

@<TRIPOS>ATOM
      1  C          6.3710    1.1530    0.9540 C.3     1  UNL1        0.0800
      2  C          5.6380    0.3350    1.9600 C.2     1  UNL1        0.1300
      3  C          6.2430   -0.8790    2.5700 C.3     1  UNL1        0.0870
      4  O          4.5110    0.6400    2.3150 O.2     1  UNL1       -0.3000
      5  C          5.8610    0.8860   -0.4490 C.3     1  UNL1        0.0430
      6  C          6.8100    0.0710   -1.2280 C.2     1  UNL1       -0.0440
      7  C          7.4800    0.5900   -2.3410 C.2     1  UNL1        0.0080
      8  C          7.0510   -1.2340   -0.8610 C.2     1  UNL1        0.0540
      9  C          8.3600   -0.2210   -3.0340 C.2     1  UNL1        0.0510
     10  C          7.9420   -2.0500   -1.5650 C.2     1  UNL1        0.1660
     11  C          8.6010   -1.5400   -2.6610 C.2     1  UNL1        0.1650
     12  O          8.3460   -3.3580   -1.4020 O.2     1  UNL1       -0.4540
     13  O          9.4060   -2.5550   -3.1530 O.2     1  UNL1       -0.4540
     14  C          9.3430   -3.6970   -2.3310 C.3     1  UNL1        0.4680
@<TRIPOS>BOND
     1    13    11    1
     2    13    14    1
     3     9    11    2
     4     9     7    1
     5    11    10    1
     6     7     6    2
     7    14    12    1
     8    10    12    1
     9    10     8    2
    10     6     8    1
    11     6     5    1
    12     5     1    1
    13     1     2    1
    14     2     4    2
    15     2     3    1
