@<TRIPOS>MOLECULE
/home/cewinharhar/GITHUB/reincatalyze/data/processed/docking_pred/2023-May-31-1438_sub9_nm5_bs15_s42_ex16_mel10_mts1000_k50_ec05_g099_lra9e-4_lrc3e-3/1444e75be78da7e2931ed2b5f85ad252461f0798_ligand_9.pdbqt
 14 15 0 0 0
SMALL
GASTEIGER

@<TRIPOS>ATOM
      1  C          5.4730   -0.0190    1.9350 C.3     1  UNL1        0.0800
      2  C          4.5870    1.1420    1.6410 C.2     1  UNL1        0.1300
      3  C          4.8750    2.0810    0.5240 C.3     1  UNL1        0.0870
      4  O          3.5920    1.3570    2.3140 O.2     1  UNL1       -0.3000
      5  C          6.8940    0.2430    1.4770 C.3     1  UNL1        0.0430
      6  C          7.3130   -0.7050    0.4290 C.2     1  UNL1       -0.0440
      7  C          7.1940   -0.3950   -0.9310 C.2     1  UNL1        0.0080
      8  C          7.8390   -1.9270    0.7850 C.2     1  UNL1        0.0540
      9  C          7.6060   -1.3240   -1.8690 C.2     1  UNL1        0.0510
     10  C          8.2540   -2.8620   -0.1680 C.2     1  UNL1        0.1660
     11  C          8.1360   -2.5580   -1.5060 C.2     1  UNL1        0.1650
     12  O          8.7990   -4.1240   -0.0700 O.2     1  UNL1       -0.4540
     13  O          8.6170   -3.6510   -2.2090 O.2     1  UNL1       -0.4540
     14  C          9.1310   -4.6300   -1.3380 C.3     1  UNL1        0.4680
@<TRIPOS>BOND
     1    13    11    1
     2    13    14    1
     3     9    11    2
     4     9     7    1
     5    11    10    1
     6    14    12    1
     7     7     6    2
     8    10    12    1
     9    10     8    2
    10     6     8    1
    11     6     5    1
    12     3     2    1
    13     5     1    1
    14     2     1    1
    15     2     4    2
