MODEL 1
REMARK VINA RESULT:      -7.7      0.000      0.000
REMARK SMILES CC(=O)CCc1ccc2c(c1)OCO2
REMARK SMILES IDX 4 1 2 2 1 3 3 4 5 5 6 6 7 7 11 8 8 9 10 10 9 11 12 12 14 13
REMARK SMILES IDX 13 14
REMARK H PARENT
REMARK Flexibility Score: inf
ROOT
ATOM      1  C   UNL     1       5.480   1.912   1.267  1.00  0.00     0.080 C 
ENDROOT
BRANCH   1   2
ATOM      2  C   UNL     1       4.973   0.705   1.976  1.00  0.00     0.130 C 
ATOM      3  C   UNL     1       5.785  -0.537   2.082  1.00  0.00     0.087 C 
ATOM      4  O   UNL     1       3.868   0.700   2.494  1.00  0.00    -0.300 OA
ENDBRANCH   1   2
BRANCH   1   5
ATOM      5  C   UNL     1       5.374   1.752  -0.237  1.00  0.00     0.043 C 
BRANCH   5   6
ATOM      6  C   UNL     1       6.541   1.045  -0.794  1.00  0.00    -0.044 A 
ATOM      7  C   UNL     1       7.849   1.467  -0.531  1.00  0.00     0.008 A 
ATOM      8  C   UNL     1       6.351  -0.061  -1.591  1.00  0.00     0.054 A 
ATOM      9  C   UNL     1       8.905   0.763  -1.080  1.00  0.00     0.051 A 
ATOM     10  C   UNL     1       7.422  -0.770  -2.144  1.00  0.00     0.166 A 
ATOM     11  C   UNL     1       8.709  -0.354  -1.887  1.00  0.00     0.165 A 
ATOM     12  O   UNL     1       7.493  -1.882  -2.956  1.00  0.00    -0.454 OA
ATOM     13  O   UNL     1       9.553  -1.229  -2.552  1.00  0.00    -0.454 OA
ATOM     14  C   UNL     1       8.828  -2.266  -3.168  1.00  0.00     0.468 C 
ENDBRANCH   5   6
ENDBRANCH   1   5
TORSDOF 3
ENDMDL
MODEL 2
REMARK VINA RESULT:      -7.4      1.938      2.408
REMARK SMILES CC(=O)CCc1ccc2c(c1)OCO2
REMARK SMILES IDX 4 1 2 2 1 3 3 4 5 5 6 6 7 7 11 8 8 9 10 10 9 11 12 12 14 13
REMARK SMILES IDX 13 14
REMARK H PARENT
REMARK Flexibility Score: inf
ROOT
ATOM      1  C   UNL     1       5.744   1.236  -0.295  1.00  0.00     0.080 C 
ENDROOT
BRANCH   1   2
ATOM      2  C   UNL     1       5.205   1.190   1.093  1.00  0.00     0.130 C 
ATOM      3  C   UNL     1       5.349  -0.020   1.947  1.00  0.00     0.087 C 
ATOM      4  O   UNL     1       4.624   2.150   1.572  1.00  0.00    -0.300 OA
ENDBRANCH   1   2
BRANCH   1   5
ATOM      5  C   UNL     1       7.250   1.065  -0.305  1.00  0.00     0.043 C 
BRANCH   5   6
ATOM      6  C   UNL     1       7.650  -0.221  -0.904  1.00  0.00    -0.044 A 
ATOM      7  C   UNL     1       7.761  -0.382  -2.290  1.00  0.00     0.008 A 
ATOM      8  C   UNL     1       7.926  -1.296  -0.089  1.00  0.00     0.054 A 
ATOM      9  C   UNL     1       8.141  -1.612  -2.794  1.00  0.00     0.051 A 
ATOM     10  C   UNL     1       8.311  -2.537  -0.604  1.00  0.00     0.166 A 
ATOM     11  C   UNL     1       8.419  -2.697  -1.968  1.00  0.00     0.165 A 
ATOM     12  O   UNL     1       8.633  -3.741  -0.013  1.00  0.00    -0.454 OA
ATOM     13  O   UNL     1       8.811  -4.008  -2.188  1.00  0.00    -0.454 OA
ATOM     14  C   UNL     1       9.046  -4.679  -0.973  1.00  0.00     0.468 C 
ENDBRANCH   5   6
ENDBRANCH   1   5
TORSDOF 3
ENDMDL
MODEL 3
REMARK VINA RESULT:      -7.2      2.079      2.609
REMARK SMILES CC(=O)CCc1ccc2c(c1)OCO2
REMARK SMILES IDX 4 1 2 2 1 3 3 4 5 5 6 6 7 7 11 8 8 9 10 10 9 11 12 12 14 13
REMARK SMILES IDX 13 14
REMARK H PARENT
REMARK Flexibility Score: inf
ROOT
ATOM      1  C   UNL     1       5.473  -0.019   1.935  1.00  0.00     0.080 C 
ENDROOT
BRANCH   1   2
ATOM      2  C   UNL     1       4.587   1.142   1.641  1.00  0.00     0.130 C 
ATOM      3  C   UNL     1       4.875   2.081   0.524  1.00  0.00     0.087 C 
ATOM      4  O   UNL     1       3.592   1.357   2.314  1.00  0.00    -0.300 OA
ENDBRANCH   1   2
BRANCH   1   5
ATOM      5  C   UNL     1       6.894   0.243   1.477  1.00  0.00     0.043 C 
BRANCH   5   6
ATOM      6  C   UNL     1       7.313  -0.705   0.429  1.00  0.00    -0.044 A 
ATOM      7  C   UNL     1       7.194  -0.395  -0.931  1.00  0.00     0.008 A 
ATOM      8  C   UNL     1       7.839  -1.927   0.785  1.00  0.00     0.054 A 
ATOM      9  C   UNL     1       7.606  -1.324  -1.869  1.00  0.00     0.051 A 
ATOM     10  C   UNL     1       8.254  -2.862  -0.168  1.00  0.00     0.166 A 
ATOM     11  C   UNL     1       8.136  -2.558  -1.506  1.00  0.00     0.165 A 
ATOM     12  O   UNL     1       8.799  -4.124  -0.070  1.00  0.00    -0.454 OA
ATOM     13  O   UNL     1       8.617  -3.651  -2.209  1.00  0.00    -0.454 OA
ATOM     14  C   UNL     1       9.131  -4.630  -1.338  1.00  0.00     0.468 C 
ENDBRANCH   5   6
ENDBRANCH   1   5
TORSDOF 3
ENDMDL
MODEL 4
REMARK VINA RESULT:      -7.0      1.280      1.505
REMARK SMILES CC(=O)CCc1ccc2c(c1)OCO2
REMARK SMILES IDX 4 1 2 2 1 3 3 4 5 5 6 6 7 7 11 8 8 9 10 10 9 11 12 12 14 13
REMARK SMILES IDX 13 14
REMARK H PARENT
REMARK Flexibility Score: inf
ROOT
ATOM      1  C   UNL     1       6.371   1.153   0.954  1.00  0.00     0.080 C 
ENDROOT
BRANCH   1   2
ATOM      2  C   UNL     1       5.638   0.335   1.960  1.00  0.00     0.130 C 
ATOM      3  C   UNL     1       6.243  -0.879   2.570  1.00  0.00     0.087 C 
ATOM      4  O   UNL     1       4.511   0.640   2.315  1.00  0.00    -0.300 OA
ENDBRANCH   1   2
BRANCH   1   5
ATOM      5  C   UNL     1       5.861   0.886  -0.449  1.00  0.00     0.043 C 
BRANCH   5   6
ATOM      6  C   UNL     1       6.810   0.071  -1.228  1.00  0.00    -0.044 A 
ATOM      7  C   UNL     1       7.480   0.590  -2.341  1.00  0.00     0.008 A 
ATOM      8  C   UNL     1       7.051  -1.234  -0.861  1.00  0.00     0.054 A 
ATOM      9  C   UNL     1       8.360  -0.221  -3.034  1.00  0.00     0.051 A 
ATOM     10  C   UNL     1       7.942  -2.050  -1.565  1.00  0.00     0.166 A 
ATOM     11  C   UNL     1       8.601  -1.540  -2.661  1.00  0.00     0.165 A 
ATOM     12  O   UNL     1       8.346  -3.358  -1.402  1.00  0.00    -0.454 OA
ATOM     13  O   UNL     1       9.406  -2.555  -3.153  1.00  0.00    -0.454 OA
ATOM     14  C   UNL     1       9.343  -3.697  -2.331  1.00  0.00     0.468 C 
ENDBRANCH   5   6
ENDBRANCH   1   5
TORSDOF 3
ENDMDL
MODEL 5
REMARK VINA RESULT:      -6.9      1.281      1.753
REMARK SMILES CC(=O)CCc1ccc2c(c1)OCO2
REMARK SMILES IDX 4 1 2 2 1 3 3 4 5 5 6 6 7 7 11 8 8 9 10 10 9 11 12 12 14 13
REMARK SMILES IDX 13 14
REMARK H PARENT
REMARK Flexibility Score: inf
ROOT
ATOM      1  C   UNL     1       5.308  -0.053   1.946  1.00  0.00     0.080 C 
ENDROOT
BRANCH   1   2
ATOM      2  C   UNL     1       4.417   1.128   1.771  1.00  0.00     0.130 C 
ATOM      3  C   UNL     1       4.671   2.149   0.720  1.00  0.00     0.087 C 
ATOM      4  O   UNL     1       3.446   1.292   2.492  1.00  0.00    -0.300 OA
ENDBRANCH   1   2
BRANCH   1   5
ATOM      5  C   UNL     1       6.769   0.343   1.870  1.00  0.00     0.043 C 
BRANCH   5   6
ATOM      6  C   UNL     1       7.371  -0.035   0.579  1.00  0.00    -0.044 A 
ATOM      7  C   UNL     1       7.849   0.929  -0.317  1.00  0.00     0.008 A 
ATOM      8  C   UNL     1       7.474  -1.364   0.237  1.00  0.00     0.054 A 
ATOM      9  C   UNL     1       8.405   0.515  -1.514  1.00  0.00     0.051 A 
ATOM     10  C   UNL     1       8.038  -1.777  -0.974  1.00  0.00     0.166 A 
ATOM     11  C   UNL     1       8.507  -0.830  -1.856  1.00  0.00     0.165 A 
ATOM     12  O   UNL     1       8.250  -3.018  -1.537  1.00  0.00    -0.454 OA
ATOM     13  O   UNL     1       9.004  -1.516  -2.954  1.00  0.00    -0.454 OA
ATOM     14  C   UNL     1       8.943  -2.908  -2.753  1.00  0.00     0.468 C 
ENDBRANCH   5   6
ENDBRANCH   1   5
TORSDOF 3
ENDMDL
