@<TRIPOS>MOLECULE
/home/cewinharhar/GITHUB/reincatalyze/data/processed/docking_pred/2023-May-31-1438_sub9_nm5_bs15_s42_ex16_mel10_mts1000_k50_ec05_g099_lra9e-4_lrc3e-3/1444e75be78da7e2931ed2b5f85ad252461f0798_ligand_9.pdbqt
 14 15 0 0 0
SMALL
GASTEIGER

@<TRIPOS>ATOM
      1  C          5.4800    1.9120    1.2670 C.3     1  UNL1        0.0800
      2  C          4.9730    0.7050    1.9760 C.2     1  UNL1        0.1300
      3  C          5.7850   -0.5370    2.0820 C.3     1  UNL1        0.0870
      4  O          3.8680    0.7000    2.4940 O.2     1  UNL1       -0.3000
      5  C          5.3740    1.7520   -0.2370 C.3     1  UNL1        0.0430
      6  C          6.5410    1.0450   -0.7940 C.2     1  UNL1       -0.0440
      7  C          7.8490    1.4670   -0.5310 C.2     1  UNL1        0.0080
      8  C          6.3510   -0.0610   -1.5910 C.2     1  UNL1        0.0540
      9  C          8.9050    0.7630   -1.0800 C.2     1  UNL1        0.0510
     10  C          7.4220   -0.7700   -2.1440 C.2     1  UNL1        0.1660
     11  C          8.7090   -0.3540   -1.8870 C.2     1  UNL1        0.1650
     12  O          7.4930   -1.8820   -2.9560 O.2     1  UNL1       -0.4540
     13  O          9.5530   -1.2290   -2.5520 O.2     1  UNL1       -0.4540
     14  C          8.8280   -2.2660   -3.1680 C.3     1  UNL1        0.4680
@<TRIPOS>BOND
     1    14    12    1
     2    14    13    1
     3    12    10    1
     4    13    11    1
     5    10    11    2
     6    10     8    1
     7    11     9    1
     8     8     6    2
     9     9     7    2
    10     6     7    1
    11     6     5    1
    12     5     1    1
    13     1     2    1
    14     2     3    1
    15     2     4    2
