@<TRIPOS>MOLECULE
/home/cewinharhar/GITHUB/reincatalyze/data/processed/docking_pred/2023-May-31-1438_sub9_nm5_bs15_s42_ex16_mel10_mts1000_k50_ec05_g099_lra9e-4_lrc3e-3/1444e75be78da7e2931ed2b5f85ad252461f0798_ligand_9.pdbqt
 14 15 0 0 0
SMALL
GASTEIGER

@<TRIPOS>ATOM
      1  C          5.7440    1.2360   -0.2950 C.3     1  UNL1        0.0800
      2  C          5.2050    1.1900    1.0930 C.2     1  UNL1        0.1300
      3  C          5.3490   -0.0200    1.9470 C.3     1  UNL1        0.0870
      4  O          4.6240    2.1500    1.5720 O.2     1  UNL1       -0.3000
      5  C          7.2500    1.0650   -0.3050 C.3     1  UNL1        0.0430
      6  C          7.6500   -0.2210   -0.9040 C.2     1  UNL1       -0.0440
      7  C          7.7610   -0.3820   -2.2900 C.2     1  UNL1        0.0080
      8  C          7.9260   -1.2960   -0.0890 C.2     1  UNL1        0.0540
      9  C          8.1410   -1.6120   -2.7940 C.2     1  UNL1        0.0510
     10  C          8.3110   -2.5370   -0.6040 C.2     1  UNL1        0.1660
     11  C          8.4190   -2.6970   -1.9680 C.2     1  UNL1        0.1650
     12  O          8.6330   -3.7410   -0.0130 O.2     1  UNL1       -0.4540
     13  O          8.8110   -4.0080   -2.1880 O.2     1  UNL1       -0.4540
     14  C          9.0460   -4.6790   -0.9730 C.3     1  UNL1        0.4680
@<TRIPOS>BOND
     1     9     7    1
     2     9    11    2
     3     7     6    2
     4    13    11    1
     5    13    14    1
     6    11    10    1
     7    14    12    1
     8     6     5    1
     9     6     8    1
    10    10     8    2
    11    10    12    1
    12     5     1    1
    13     1     2    1
    14     2     4    2
    15     2     3    1
