@<TRIPOS>MOLECULE
/home/cewinharhar/GITHUB/reincatalyze/data/processed/docking_pred/2023-May-31-1438_sub9_nm5_bs15_s42_ex16_mel10_mts1000_k50_ec05_g099_lra9e-4_lrc3e-3/16519f8051380dc2329c6f51dcb24a8f5dfeda31_ligand_9.pdbqt
 14 15 0 0 0
SMALL
GASTEIGER

@<TRIPOS>ATOM
      1  C          6.5830    1.0090    1.2760 C.3     1  UNL1        0.0800
      2  C          5.2450    1.5920    0.9800 C.2     1  UNL1        0.1300
      3  C          4.9150    2.1490   -0.3590 C.3     1  UNL1        0.0870
      4  O          4.3750    1.6300    1.8350 O.2     1  UNL1       -0.3000
      5  C          7.5330    1.1900    0.1090 C.3     1  UNL1        0.0430
      6  C          7.8240   -0.0890   -0.5620 C.2     1  UNL1       -0.0440
      7  C          7.8840   -0.1880   -1.9570 C.2     1  UNL1        0.0080
      8  C          8.0460   -1.2200    0.1900 C.2     1  UNL1        0.0540
      9  C          8.1620   -1.4150   -2.5320 C.2     1  UNL1        0.0510
     10  C          8.3270   -2.4580   -0.3950 C.2     1  UNL1        0.1660
     11  C          8.3850   -2.5560   -1.7680 C.2     1  UNL1        0.1650
     12  O          8.5790   -3.7090    0.1270 O.2     1  UNL1       -0.4540
     13  O          8.6760   -3.8790   -2.0630 O.2     1  UNL1       -0.4540
     14  C          8.8970   -4.6250   -0.8890 C.3     1  UNL1        0.4680
@<TRIPOS>BOND
     1     9     7    1
     2     9    11    2
     3    13    11    1
     4    13    14    1
     5     7     6    2
     6    11    10    1
     7    14    12    1
     8     6     5    1
     9     6     8    1
    10    10    12    1
    11    10     8    2
    12     3     2    1
    13     5     1    1
    14     2     1    1
    15     2     4    2
