@<TRIPOS>MOLECULE
/home/cewinharhar/GITHUB/reincatalyze/data/processed/docking_pred/2023-May-31-1438_sub9_nm5_bs15_s42_ex16_mel10_mts1000_k50_ec05_g099_lra9e-4_lrc3e-3/16519f8051380dc2329c6f51dcb24a8f5dfeda31_ligand_9.pdbqt
 14 15 0 0 0
SMALL
GASTEIGER

@<TRIPOS>ATOM
      1  C          6.3840    1.2020    0.8970 C.3     1  UNL1        0.0800
      2  C          5.6730    0.3860    1.9200 C.2     1  UNL1        0.1300
      3  C          6.2770   -0.8460    2.4940 C.3     1  UNL1        0.0870
      4  O          4.5660    0.7090    2.3200 O.2     1  UNL1       -0.3000
      5  C          5.8740    0.9020   -0.4990 C.3     1  UNL1        0.0430
      6  C          6.8310    0.0860   -1.2660 C.2     1  UNL1       -0.0440
      7  C          7.5350    0.6120   -2.3550 C.2     1  UNL1        0.0080
      8  C          7.0470   -1.2270   -0.9110 C.2     1  UNL1        0.0540
      9  C          8.4210   -0.2010   -3.0380 C.2     1  UNL1        0.0510
     10  C          7.9450   -2.0440   -1.6040 C.2     1  UNL1        0.1660
     11  C          8.6370   -1.5280   -2.6770 C.2     1  UNL1        0.1650
     12  O          8.3290   -3.3600   -1.4500 O.2     1  UNL1       -0.4540
     13  O          9.4410   -2.5460   -3.1630 O.2     1  UNL1       -0.4540
     14  C          9.3440   -3.6980   -2.3600 C.3     1  UNL1        0.4680
@<TRIPOS>BOND
     1    13    11    1
     2    13    14    1
     3     9    11    2
     4     9     7    1
     5    11    10    1
     6    14    12    1
     7     7     6    2
     8    10    12    1
     9    10     8    2
    10     6     8    1
    11     6     5    1
    12     5     1    1
    13     1     2    1
    14     2     4    2
    15     2     3    1
