@<TRIPOS>MOLECULE
/home/cewinharhar/GITHUB/reincatalyze/data/processed/docking_pred/2023-May-31-1438_sub9_nm5_bs15_s42_ex16_mel10_mts1000_k50_ec05_g099_lra9e-4_lrc3e-3/16519f8051380dc2329c6f51dcb24a8f5dfeda31_ligand_9.pdbqt
 14 15 0 0 0
SMALL
GASTEIGER

@<TRIPOS>ATOM
      1  C          5.3980   -0.0630    2.0180 C.3     1  UNL1        0.0800
      2  C          4.5590    1.1440    1.7770 C.2     1  UNL1        0.1300
      3  C          4.8980    2.1330    0.7190 C.3     1  UNL1        0.0870
      4  O          3.5620    1.3580    2.4480 O.2     1  UNL1       -0.3000
      5  C          6.8390    0.1790    1.6140 C.3     1  UNL1        0.0430
      6  C          7.2690   -0.7400    0.5450 C.2     1  UNL1       -0.0440
      7  C          7.1390   -0.4030   -0.8070 C.2     1  UNL1        0.0080
      8  C          7.8140   -1.9600    0.8730 C.2     1  UNL1        0.0540
      9  C          7.5610   -1.3060   -1.7670 C.2     1  UNL1        0.0510
     10  C          8.2390   -2.8690   -0.1000 C.2     1  UNL1        0.1660
     11  C          8.1110   -2.5390   -1.4310 C.2     1  UNL1        0.1650
     12  O          8.8040   -4.1250   -0.0310 O.2     1  UNL1       -0.4540
     13  O          8.6060   -3.6100   -2.1590 O.2     1  UNL1       -0.4540
     14  C          9.1390   -4.5980   -1.3110 C.3     1  UNL1        0.4680
@<TRIPOS>BOND
     1    13    11    1
     2    13    14    1
     3     9    11    2
     4     9     7    1
     5    11    10    1
     6    14    12    1
     7     7     6    2
     8    10    12    1
     9    10     8    2
    10     6     8    1
    11     6     5    1
    12     3     2    1
    13     5     1    1
    14     2     1    1
    15     2     4    2
