MODEL 1
REMARK VINA RESULT:      -7.6      0.000      0.000
REMARK SMILES CC(=O)CCc1ccc2c(c1)OCO2
REMARK SMILES IDX 4 1 2 2 1 3 3 4 5 5 6 6 7 7 11 8 8 9 10 10 9 11 12 12 14 13
REMARK SMILES IDX 13 14
REMARK H PARENT
REMARK Flexibility Score: inf
ROOT
ATOM      1  C   UNL     1       5.531   1.921   1.271  1.00  0.00     0.080 C 
ENDROOT
BRANCH   1   2
ATOM      2  C   UNL     1       5.089   0.703   2.007  1.00  0.00     0.130 C 
ATOM      3  C   UNL     1       5.984  -0.472   2.181  1.00  0.00     0.087 C 
ATOM      4  O   UNL     1       3.971   0.635   2.491  1.00  0.00    -0.300 OA
ENDBRANCH   1   2
BRANCH   1   5
ATOM      5  C   UNL     1       5.404   1.734  -0.228  1.00  0.00     0.043 C 
BRANCH   5   6
ATOM      6  C   UNL     1       6.569   1.030  -0.792  1.00  0.00    -0.044 A 
ATOM      7  C   UNL     1       7.877   1.460  -0.543  1.00  0.00     0.008 A 
ATOM      8  C   UNL     1       6.377  -0.082  -1.581  1.00  0.00     0.054 A 
ATOM      9  C   UNL     1       8.931   0.759  -1.099  1.00  0.00     0.051 A 
ATOM     10  C   UNL     1       7.447  -0.788  -2.140  1.00  0.00     0.166 A 
ATOM     11  C   UNL     1       8.734  -0.364  -1.897  1.00  0.00     0.165 A 
ATOM     12  O   UNL     1       7.517  -1.904  -2.946  1.00  0.00    -0.454 OA
ATOM     13  O   UNL     1       9.577  -1.239  -2.565  1.00  0.00    -0.454 OA
ATOM     14  C   UNL     1       8.851  -2.283  -3.168  1.00  0.00     0.468 C 
ENDBRANCH   5   6
ENDBRANCH   1   5
TORSDOF 3
ENDMDL
MODEL 2
REMARK VINA RESULT:      -7.4      1.958      2.451
REMARK SMILES CC(=O)CCc1ccc2c(c1)OCO2
REMARK SMILES IDX 4 1 2 2 1 3 3 4 5 5 6 6 7 7 11 8 8 9 10 10 9 11 12 12 14 13
REMARK SMILES IDX 13 14
REMARK H PARENT
REMARK Flexibility Score: inf
ROOT
ATOM      1  C   UNL     1       5.744   1.238  -0.292  1.00  0.00     0.080 C 
ENDROOT
BRANCH   1   2
ATOM      2  C   UNL     1       5.179   1.194   1.085  1.00  0.00     0.130 C 
ATOM      3  C   UNL     1       5.325  -0.006   1.951  1.00  0.00     0.087 C 
ATOM      4  O   UNL     1       4.575   2.149   1.545  1.00  0.00    -0.300 OA
ENDBRANCH   1   2
BRANCH   1   5
ATOM      5  C   UNL     1       7.242   1.007  -0.280  1.00  0.00     0.043 C 
BRANCH   5   6
ATOM      6  C   UNL     1       7.600  -0.291  -0.880  1.00  0.00    -0.044 A 
ATOM      7  C   UNL     1       7.630  -0.473  -2.268  1.00  0.00     0.008 A 
ATOM      8  C   UNL     1       7.917  -1.354  -0.066  1.00  0.00     0.054 A 
ATOM      9  C   UNL     1       7.974  -1.713  -2.774  1.00  0.00     0.051 A 
ATOM     10  C   UNL     1       8.265  -2.606  -0.583  1.00  0.00     0.166 A 
ATOM     11  C   UNL     1       8.293  -2.787  -1.948  1.00  0.00     0.165 A 
ATOM     12  O   UNL     1       8.615  -3.802   0.007  1.00  0.00    -0.454 OA
ATOM     13  O   UNL     1       8.665  -4.104  -2.170  1.00  0.00    -0.454 OA
ATOM     14  C   UNL     1       8.966  -4.758  -0.960  1.00  0.00     0.468 C 
ENDBRANCH   5   6
ENDBRANCH   1   5
TORSDOF 3
ENDMDL
MODEL 3
REMARK VINA RESULT:      -7.2      2.049      2.626
REMARK SMILES CC(=O)CCc1ccc2c(c1)OCO2
REMARK SMILES IDX 4 1 2 2 1 3 3 4 5 5 6 6 7 7 11 8 8 9 10 10 9 11 12 12 14 13
REMARK SMILES IDX 13 14
REMARK H PARENT
REMARK Flexibility Score: inf
ROOT
ATOM      1  C   UNL     1       5.398  -0.063   2.018  1.00  0.00     0.080 C 
ENDROOT
BRANCH   1   2
ATOM      2  C   UNL     1       4.559   1.144   1.777  1.00  0.00     0.130 C 
ATOM      3  C   UNL     1       4.898   2.133   0.719  1.00  0.00     0.087 C 
ATOM      4  O   UNL     1       3.562   1.358   2.448  1.00  0.00    -0.300 OA
ENDBRANCH   1   2
BRANCH   1   5
ATOM      5  C   UNL     1       6.839   0.179   1.614  1.00  0.00     0.043 C 
BRANCH   5   6
ATOM      6  C   UNL     1       7.269  -0.740   0.545  1.00  0.00    -0.044 A 
ATOM      7  C   UNL     1       7.139  -0.403  -0.807  1.00  0.00     0.008 A 
ATOM      8  C   UNL     1       7.814  -1.960   0.873  1.00  0.00     0.054 A 
ATOM      9  C   UNL     1       7.561  -1.306  -1.767  1.00  0.00     0.051 A 
ATOM     10  C   UNL     1       8.239  -2.869  -0.100  1.00  0.00     0.166 A 
ATOM     11  C   UNL     1       8.111  -2.539  -1.431  1.00  0.00     0.165 A 
ATOM     12  O   UNL     1       8.804  -4.125  -0.031  1.00  0.00    -0.454 OA
ATOM     13  O   UNL     1       8.606  -3.610  -2.159  1.00  0.00    -0.454 OA
ATOM     14  C   UNL     1       9.139  -4.598  -1.311  1.00  0.00     0.468 C 
ENDBRANCH   5   6
ENDBRANCH   1   5
TORSDOF 3
ENDMDL
MODEL 4
REMARK VINA RESULT:      -7.1      1.251      1.466
REMARK SMILES CC(=O)CCc1ccc2c(c1)OCO2
REMARK SMILES IDX 4 1 2 2 1 3 3 4 5 5 6 6 7 7 11 8 8 9 10 10 9 11 12 12 14 13
REMARK SMILES IDX 13 14
REMARK H PARENT
REMARK Flexibility Score: inf
ROOT
ATOM      1  C   UNL     1       6.384   1.202   0.897  1.00  0.00     0.080 C 
ENDROOT
BRANCH   1   2
ATOM      2  C   UNL     1       5.673   0.386   1.920  1.00  0.00     0.130 C 
ATOM      3  C   UNL     1       6.277  -0.846   2.494  1.00  0.00     0.087 C 
ATOM      4  O   UNL     1       4.566   0.709   2.320  1.00  0.00    -0.300 OA
ENDBRANCH   1   2
BRANCH   1   5
ATOM      5  C   UNL     1       5.874   0.902  -0.499  1.00  0.00     0.043 C 
BRANCH   5   6
ATOM      6  C   UNL     1       6.831   0.086  -1.266  1.00  0.00    -0.044 A 
ATOM      7  C   UNL     1       7.535   0.612  -2.355  1.00  0.00     0.008 A 
ATOM      8  C   UNL     1       7.047  -1.227  -0.911  1.00  0.00     0.054 A 
ATOM      9  C   UNL     1       8.421  -0.201  -3.038  1.00  0.00     0.051 A 
ATOM     10  C   UNL     1       7.945  -2.044  -1.604  1.00  0.00     0.166 A 
ATOM     11  C   UNL     1       8.637  -1.528  -2.677  1.00  0.00     0.165 A 
ATOM     12  O   UNL     1       8.329  -3.360  -1.450  1.00  0.00    -0.454 OA
ATOM     13  O   UNL     1       9.441  -2.546  -3.163  1.00  0.00    -0.454 OA
ATOM     14  C   UNL     1       9.344  -3.698  -2.360  1.00  0.00     0.468 C 
ENDBRANCH   5   6
ENDBRANCH   1   5
TORSDOF 3
ENDMDL
MODEL 5
REMARK VINA RESULT:      -7.1      1.958      2.551
REMARK SMILES CC(=O)CCc1ccc2c(c1)OCO2
REMARK SMILES IDX 4 1 2 2 1 3 3 4 5 5 6 6 7 7 11 8 8 9 10 10 9 11 12 12 14 13
REMARK SMILES IDX 13 14
REMARK H PARENT
REMARK Flexibility Score: inf
ROOT
ATOM      1  C   UNL     1       6.583   1.009   1.276  1.00  0.00     0.080 C 
ENDROOT
BRANCH   1   2
ATOM      2  C   UNL     1       5.245   1.592   0.980  1.00  0.00     0.130 C 
ATOM      3  C   UNL     1       4.915   2.149  -0.359  1.00  0.00     0.087 C 
ATOM      4  O   UNL     1       4.375   1.630   1.835  1.00  0.00    -0.300 OA
ENDBRANCH   1   2
BRANCH   1   5
ATOM      5  C   UNL     1       7.533   1.190   0.109  1.00  0.00     0.043 C 
BRANCH   5   6
ATOM      6  C   UNL     1       7.824  -0.089  -0.562  1.00  0.00    -0.044 A 
ATOM      7  C   UNL     1       7.884  -0.188  -1.957  1.00  0.00     0.008 A 
ATOM      8  C   UNL     1       8.046  -1.220   0.190  1.00  0.00     0.054 A 
ATOM      9  C   UNL     1       8.162  -1.415  -2.532  1.00  0.00     0.051 A 
ATOM     10  C   UNL     1       8.327  -2.458  -0.395  1.00  0.00     0.166 A 
ATOM     11  C   UNL     1       8.385  -2.556  -1.768  1.00  0.00     0.165 A 
ATOM     12  O   UNL     1       8.579  -3.709   0.127  1.00  0.00    -0.454 OA
ATOM     13  O   UNL     1       8.676  -3.879  -2.063  1.00  0.00    -0.454 OA
ATOM     14  C   UNL     1       8.897  -4.625  -0.889  1.00  0.00     0.468 C 
ENDBRANCH   5   6
ENDBRANCH   1   5
TORSDOF 3
ENDMDL
