MODEL 1
REMARK VINA RESULT:      -7.6      0.000      0.000
REMARK SMILES CC(=O)CCc1ccc2c(c1)OCO2
REMARK SMILES IDX 4 1 2 2 1 3 3 4 5 5 6 6 7 7 11 8 8 9 10 10 9 11 12 12 14 13
REMARK SMILES IDX 13 14
REMARK H PARENT
REMARK Flexibility Score: inf
ROOT
ATOM      1  C   UNL     1       5.549   1.917   1.279  1.00  0.00     0.080 C 
ENDROOT
BRANCH   1   2
ATOM      2  C   UNL     1       5.103   0.701   2.014  1.00  0.00     0.130 C 
ATOM      3  C   UNL     1       5.994  -0.477   2.189  1.00  0.00     0.087 C 
ATOM      4  O   UNL     1       3.984   0.636   2.497  1.00  0.00    -0.300 OA
ENDBRANCH   1   2
BRANCH   1   5
ATOM      5  C   UNL     1       5.416   1.733  -0.220  1.00  0.00     0.043 C 
BRANCH   5   6
ATOM      6  C   UNL     1       6.580   1.031  -0.789  1.00  0.00    -0.044 A 
ATOM      7  C   UNL     1       7.889   1.465  -0.549  1.00  0.00     0.008 A 
ATOM      8  C   UNL     1       6.387  -0.082  -1.576  1.00  0.00     0.054 A 
ATOM      9  C   UNL     1       8.941   0.765  -1.110  1.00  0.00     0.051 A 
ATOM     10  C   UNL     1       7.455  -0.787  -2.140  1.00  0.00     0.166 A 
ATOM     11  C   UNL     1       8.742  -0.359  -1.905  1.00  0.00     0.165 A 
ATOM     12  O   UNL     1       7.523  -1.904  -2.945  1.00  0.00    -0.454 OA
ATOM     13  O   UNL     1       9.583  -1.232  -2.577  1.00  0.00    -0.454 OA
ATOM     14  C   UNL     1       8.857  -2.279  -3.175  1.00  0.00     0.468 C 
ENDBRANCH   5   6
ENDBRANCH   1   5
TORSDOF 3
ENDMDL
MODEL 2
REMARK VINA RESULT:      -7.4      1.928      2.410
REMARK SMILES CC(=O)CCc1ccc2c(c1)OCO2
REMARK SMILES IDX 4 1 2 2 1 3 3 4 5 5 6 6 7 7 11 8 8 9 10 10 9 11 12 12 14 13
REMARK SMILES IDX 13 14
REMARK H PARENT
REMARK Flexibility Score: inf
ROOT
ATOM      1  C   UNL     1       5.744   1.255  -0.286  1.00  0.00     0.080 C 
ENDROOT
BRANCH   1   2
ATOM      2  C   UNL     1       5.197   1.199   1.098  1.00  0.00     0.130 C 
ATOM      3  C   UNL     1       5.358  -0.007   1.954  1.00  0.00     0.087 C 
ATOM      4  O   UNL     1       4.597   2.150   1.573  1.00  0.00    -0.300 OA
ENDBRANCH   1   2
BRANCH   1   5
ATOM      5  C   UNL     1       7.246   1.050  -0.294  1.00  0.00     0.043 C 
BRANCH   5   6
ATOM      6  C   UNL     1       7.618  -0.241  -0.900  1.00  0.00    -0.044 A 
ATOM      7  C   UNL     1       7.679  -0.407  -2.289  1.00  0.00     0.008 A 
ATOM      8  C   UNL     1       7.918  -1.314  -0.092  1.00  0.00     0.054 A 
ATOM      9  C   UNL     1       8.036  -1.642  -2.801  1.00  0.00     0.051 A 
ATOM     10  C   UNL     1       8.279  -2.559  -0.615  1.00  0.00     0.166 A 
ATOM     11  C   UNL     1       8.337  -2.724  -1.981  1.00  0.00     0.165 A 
ATOM     12  O   UNL     1       8.616  -3.761  -0.031  1.00  0.00    -0.454 OA
ATOM     13  O   UNL     1       8.715  -4.038  -2.210  1.00  0.00    -0.454 OA
ATOM     14  C   UNL     1       8.991  -4.706  -1.001  1.00  0.00     0.468 C 
ENDBRANCH   5   6
ENDBRANCH   1   5
TORSDOF 3
ENDMDL
MODEL 3
REMARK VINA RESULT:      -7.2      2.082      2.618
REMARK SMILES CC(=O)CCc1ccc2c(c1)OCO2
REMARK SMILES IDX 4 1 2 2 1 3 3 4 5 5 6 6 7 7 11 8 8 9 10 10 9 11 12 12 14 13
REMARK SMILES IDX 13 14
REMARK H PARENT
REMARK Flexibility Score: inf
ROOT
ATOM      1  C   UNL     1       5.533   0.025   1.955  1.00  0.00     0.080 C 
ENDROOT
BRANCH   1   2
ATOM      2  C   UNL     1       4.642   1.177   1.640  1.00  0.00     0.130 C 
ATOM      3  C   UNL     1       4.943   2.114   0.525  1.00  0.00     0.087 C 
ATOM      4  O   UNL     1       3.633   1.386   2.294  1.00  0.00    -0.300 OA
ENDBRANCH   1   2
BRANCH   1   5
ATOM      5  C   UNL     1       6.950   0.279   1.480  1.00  0.00     0.043 C 
BRANCH   5   6
ATOM      6  C   UNL     1       7.359  -0.685   0.443  1.00  0.00    -0.044 A 
ATOM      7  C   UNL     1       7.255  -0.383  -0.920  1.00  0.00     0.008 A 
ATOM      8  C   UNL     1       7.858  -1.913   0.811  1.00  0.00     0.054 A 
ATOM      9  C   UNL     1       7.655  -1.326  -1.849  1.00  0.00     0.051 A 
ATOM     10  C   UNL     1       8.262  -2.864  -0.131  1.00  0.00     0.166 A 
ATOM     11  C   UNL     1       8.159  -2.568  -1.472  1.00  0.00     0.165 A 
ATOM     12  O   UNL     1       8.782  -4.136  -0.020  1.00  0.00    -0.454 OA
ATOM     13  O   UNL     1       8.624  -3.675  -2.164  1.00  0.00    -0.454 OA
ATOM     14  C   UNL     1       9.113  -4.657  -1.281  1.00  0.00     0.468 C 
ENDBRANCH   5   6
ENDBRANCH   1   5
TORSDOF 3
ENDMDL
MODEL 4
REMARK VINA RESULT:      -7.1      1.264      1.479
REMARK SMILES CC(=O)CCc1ccc2c(c1)OCO2
REMARK SMILES IDX 4 1 2 2 1 3 3 4 5 5 6 6 7 7 11 8 8 9 10 10 9 11 12 12 14 13
REMARK SMILES IDX 13 14
REMARK H PARENT
REMARK Flexibility Score: inf
ROOT
ATOM      1  C   UNL     1       6.392   1.169   0.963  1.00  0.00     0.080 C 
ENDROOT
BRANCH   1   2
ATOM      2  C   UNL     1       5.645   0.343   1.952  1.00  0.00     0.130 C 
ATOM      3  C   UNL     1       6.234  -0.886   2.547  1.00  0.00     0.087 C 
ATOM      4  O   UNL     1       4.518   0.654   2.304  1.00  0.00    -0.300 OA
ENDBRANCH   1   2
BRANCH   1   5
ATOM      5  C   UNL     1       5.893   0.926  -0.447  1.00  0.00     0.043 C 
BRANCH   5   6
ATOM      6  C   UNL     1       6.830   0.093  -1.223  1.00  0.00    -0.044 A 
ATOM      7  C   UNL     1       7.494   0.592  -2.349  1.00  0.00     0.008 A 
ATOM      8  C   UNL     1       7.066  -1.207  -0.838  1.00  0.00     0.054 A 
ATOM      9  C   UNL     1       8.363  -0.235  -3.037  1.00  0.00     0.051 A 
ATOM     10  C   UNL     1       7.946  -2.039  -1.536  1.00  0.00     0.166 A 
ATOM     11  C   UNL     1       8.599  -1.549  -2.645  1.00  0.00     0.165 A 
ATOM     12  O   UNL     1       8.344  -3.347  -1.358  1.00  0.00    -0.454 OA
ATOM     13  O   UNL     1       9.394  -2.577  -3.129  1.00  0.00    -0.454 OA
ATOM     14  C   UNL     1       9.331  -3.706  -2.290  1.00  0.00     0.468 C 
ENDBRANCH   5   6
ENDBRANCH   1   5
TORSDOF 3
ENDMDL
MODEL 5
REMARK VINA RESULT:      -6.8      1.265      1.753
REMARK SMILES CC(=O)CCc1ccc2c(c1)OCO2
REMARK SMILES IDX 4 1 2 2 1 3 3 4 5 5 6 6 7 7 11 8 8 9 10 10 9 11 12 12 14 13
REMARK SMILES IDX 13 14
REMARK H PARENT
REMARK Flexibility Score: inf
ROOT
ATOM      1  C   UNL     1       5.322  -0.067   1.972  1.00  0.00     0.080 C 
ENDROOT
BRANCH   1   2
ATOM      2  C   UNL     1       4.443   1.121   1.788  1.00  0.00     0.130 C 
ATOM      3  C   UNL     1       4.727   2.150   0.752  1.00  0.00     0.087 C 
ATOM      4  O   UNL     1       3.458   1.286   2.489  1.00  0.00    -0.300 OA
ENDBRANCH   1   2
BRANCH   1   5
ATOM      5  C   UNL     1       6.787   0.317   1.907  1.00  0.00     0.043 C 
BRANCH   5   6
ATOM      6  C   UNL     1       7.389  -0.039   0.609  1.00  0.00    -0.044 A 
ATOM      7  C   UNL     1       7.874   0.938  -0.267  1.00  0.00     0.008 A 
ATOM      8  C   UNL     1       7.482  -1.362   0.241  1.00  0.00     0.054 A 
ATOM      9  C   UNL     1       8.429   0.544  -1.471  1.00  0.00     0.051 A 
ATOM     10  C   UNL     1       8.045  -1.756  -0.977  1.00  0.00     0.166 A 
ATOM     11  C   UNL     1       8.521  -0.794  -1.840  1.00  0.00     0.165 A 
ATOM     12  O   UNL     1       8.249  -2.986  -1.564  1.00  0.00    -0.454 OA
ATOM     13  O   UNL     1       9.014  -1.462  -2.951  1.00  0.00    -0.454 OA
ATOM     14  C   UNL     1       8.944  -2.857  -2.778  1.00  0.00     0.468 C 
ENDBRANCH   5   6
ENDBRANCH   1   5
TORSDOF 3
ENDMDL
