@<TRIPOS>MOLECULE
/home/cewinharhar/GITHUB/reincatalyze/data/processed/docking_pred/2023-May-31-1438_sub9_nm5_bs15_s42_ex16_mel10_mts1000_k50_ec05_g099_lra9e-4_lrc3e-3/1c0c8a91d3eae7937fa2398dc61f909c50ab5738_ligand_9.pdbqt
 14 15 0 0 0
SMALL
GASTEIGER

@<TRIPOS>ATOM
      1  C          5.6180    0.2230    2.5320 C.3     1  UNL1        0.0800
      2  C          4.5030    1.0590    2.0070 C.2     1  UNL1        0.1300
      3  C          4.6380    1.8390    0.7480 C.3     1  UNL1        0.0870
      4  O          3.4390    1.1280    2.6000 O.2     1  UNL1       -0.3000
      5  C          5.7500   -1.0710    1.7540 C.3     1  UNL1        0.0430
      6  C          6.7740   -0.9730    0.6980 C.2     1  UNL1       -0.0440
      7  C          8.0050   -0.3480    0.9280 C.2     1  UNL1        0.0080
      8  C          6.5240   -1.5050   -0.5460 C.2     1  UNL1        0.0540
      9  C          8.9280   -0.2860   -0.1010 C.2     1  UNL1        0.0510
     10  C          7.4610   -1.4410   -1.5820 C.2     1  UNL1        0.1660
     11  C          8.6720   -0.8260   -1.3580 C.2     1  UNL1        0.1650
     12  O          7.4510   -1.8870   -2.8870 O.2     1  UNL1       -0.4540
     13  O          9.3890   -0.9080   -2.5410 O.2     1  UNL1       -0.4540
     14  C          8.6880   -1.6530   -3.5090 C.3     1  UNL1        0.4680
@<TRIPOS>BOND
     1    14    12    1
     2    14    13    1
     3    12    10    1
     4    13    11    1
     5    10    11    2
     6    10     8    1
     7    11     9    1
     8     8     6    2
     9     9     7    2
    10     6     7    1
    11     6     5    1
    12     3     2    1
    13     5     1    1
    14     2     1    1
    15     2     4    2
