@<TRIPOS>MOLECULE
/home/cewinharhar/GITHUB/reincatalyze/data/processed/docking_pred/2023-May-31-1438_sub9_nm5_bs15_s42_ex16_mel10_mts1000_k50_ec05_g099_lra9e-4_lrc3e-3/1c0c8a91d3eae7937fa2398dc61f909c50ab5738_ligand_9.pdbqt
 14 15 0 0 0
SMALL
GASTEIGER

@<TRIPOS>ATOM
      1  C          5.2610   -0.2160    2.2890 C.3     1  UNL1        0.0800
      2  C          4.3640    0.9340    1.9870 C.2     1  UNL1        0.1300
      3  C          4.6500    1.8740    0.8710 C.3     1  UNL1        0.0870
      4  O          3.3630    1.1400    2.6530 O.2     1  UNL1       -0.3000
      5  C          6.7070    0.1170    1.9820 C.3     1  UNL1        0.0430
      6  C          7.2580   -0.7560    0.9310 C.2     1  UNL1       -0.0440
      7  C          7.6050   -2.0870    1.1900 C.2     1  UNL1        0.0080
      8  C          7.4390   -0.2620   -0.3410 C.2     1  UNL1        0.0540
      9  C          8.1170   -2.8590    0.1630 C.2     1  UNL1        0.0510
     10  C          7.9560   -1.0470   -1.3760 C.2     1  UNL1        0.1660
     11  C          8.2980   -2.3560   -1.1210 C.2     1  UNL1        0.1650
     12  O          8.2260   -0.7920   -2.7040 O.2     1  UNL1       -0.4540
     13  O          8.7760   -2.8840   -2.3110 O.2     1  UNL1       -0.4540
     14  C          8.6630   -1.9540   -3.3610 C.3     1  UNL1        0.4680
@<TRIPOS>BOND
     1    14    12    1
     2    14    13    1
     3    12    10    1
     4    13    11    1
     5    10    11    2
     6    10     8    1
     7    11     9    1
     8     8     6    2
     9     9     7    2
    10     3     2    1
    11     6     7    1
    12     6     5    1
    13     5     1    1
    14     2     1    1
    15     2     4    2
