@<TRIPOS>MOLECULE
/home/cewinharhar/GITHUB/reincatalyze/data/processed/docking_pred/2023-May-31-1438_sub9_nm5_bs15_s42_ex16_mel10_mts1000_k50_ec05_g099_lra9e-4_lrc3e-3/1c0c8a91d3eae7937fa2398dc61f909c50ab5738_ligand_9.pdbqt
 14 15 0 0 0
SMALL
GASTEIGER

@<TRIPOS>ATOM
      1  C          5.4370   -0.2380    2.1690 C.3     1  UNL1        0.0800
      2  C          4.4800    0.8810    1.9430 C.2     1  UNL1        0.1300
      3  C          4.6700    1.8590    0.8390 C.3     1  UNL1        0.0870
      4  O          3.5060    1.0280    2.6630 O.2     1  UNL1       -0.3000
      5  C          6.8200    0.1070    1.6540 C.3     1  UNL1        0.0430
      6  C          7.2490   -0.8110    0.5830 C.2     1  UNL1       -0.0440
      7  C          7.0730   -0.4930   -0.7680 C.2     1  UNL1        0.0080
      8  C          7.8390   -2.0110    0.9090 C.2     1  UNL1        0.0540
      9  C          7.4960   -1.3940   -1.7300 C.2     1  UNL1        0.0510
     10  C          8.2660   -2.9170   -0.0660 C.2     1  UNL1        0.1660
     11  C          8.0920   -2.6060   -1.3960 C.2     1  UNL1        0.1650
     12  O          8.8690   -4.1550    0.0010 O.2     1  UNL1       -0.4540
     13  O          8.6000   -3.6700   -2.1260 O.2     1  UNL1       -0.4540
     14  C          9.1840   -4.6320   -1.2820 C.3     1  UNL1        0.4680
@<TRIPOS>BOND
     1    13    11    1
     2    13    14    1
     3     9    11    2
     4     9     7    1
     5    11    10    1
     6    14    12    1
     7     7     6    2
     8    10    12    1
     9    10     8    2
    10     6     8    1
    11     6     5    1
    12     3     2    1
    13     5     1    1
    14     2     1    1
    15     2     4    2
