@<TRIPOS>MOLECULE
/home/cewinharhar/GITHUB/reincatalyze/data/processed/docking_pred/2023-May-31-1438_sub9_nm5_bs15_s42_ex16_mel10_mts1000_k50_ec05_g099_lra9e-4_lrc3e-3/1c0c8a91d3eae7937fa2398dc61f909c50ab5738_ligand_9.pdbqt
 14 15 0 0 0
SMALL
GASTEIGER

@<TRIPOS>ATOM
      1  C          8.7040   -4.0320   -0.5000 C.3     1  UNL1        0.0800
      2  C          9.2960   -4.9030   -1.5540 C.2     1  UNL1        0.1300
      3  C          8.9680   -6.3500   -1.6450 C.3     1  UNL1        0.0870
      4  O         10.0750   -4.4490   -2.3770 O.2     1  UNL1       -0.3000
      5  C          8.3090   -2.6800   -1.0620 C.3     1  UNL1        0.0430
      6  C          7.5020   -1.9050   -0.1030 C.2     1  UNL1       -0.0440
      7  C          7.4700   -2.2280    1.2580 C.2     1  UNL1        0.0080
      8  C          6.7590   -0.8340   -0.5460 C.2     1  UNL1        0.0540
      9  C          6.6950   -1.4640    2.1110 C.2     1  UNL1        0.0510
     10  C          5.9770   -0.0640    0.3210 C.2     1  UNL1        0.1660
     11  C          5.9440   -0.3820    1.6600 C.2     1  UNL1        0.1650
     12  O          5.1620    1.0310    0.1280 O.2     1  UNL1       -0.4540
     13  O          5.1020    0.5350    2.2690 O.2     1  UNL1       -0.4540
     14  C          4.6550    1.5030    1.3510 C.3     1  UNL1        0.4680
@<TRIPOS>BOND
     1     4     2    2
     2     3     2    1
     3     2     1    1
     4     5     1    1
     5     5     6    1
     6     8     6    2
     7     8    10    1
     8     6     7    1
     9    12    10    1
    10    12    14    1
    11    10    11    2
    12     7     9    2
    13    14    13    1
    14    11     9    1
    15    11    13    1
