@<TRIPOS>MOLECULE
/home/cewinharhar/GITHUB/reincatalyze/data/processed/docking_pred/2023-May-31-1438_sub9_nm5_bs15_s42_ex16_mel10_mts1000_k50_ec05_g099_lra9e-4_lrc3e-3/1caf15995fa8372ea76f1cb48e36fe3c815c3a18_ligand_9.pdbqt
 14 15 0 0 0
SMALL
GASTEIGER

@<TRIPOS>ATOM
      1  C          6.3810    1.2610    0.8940 C.3     1  UNL1        0.0800
      2  C          5.7100    0.4060    1.9120 C.2     1  UNL1        0.1300
      3  C          6.3880   -0.7750    2.5100 C.3     1  UNL1        0.0870
      4  O          4.5750    0.6530    2.2880 O.2     1  UNL1       -0.3000
      5  C          5.8680    0.9620   -0.5010 C.3     1  UNL1        0.0430
      6  C          6.8130    0.1280   -1.2650 C.2     1  UNL1       -0.0440
      7  C          7.5130    0.6350   -2.3660 C.2     1  UNL1        0.0080
      8  C          7.0230   -1.1800   -0.8930 C.2     1  UNL1        0.0540
      9  C          8.3880   -0.1940   -3.0440 C.2     1  UNL1        0.0510
     10  C          7.9100   -2.0140   -1.5810 C.2     1  UNL1        0.1660
     11  C          8.5970   -1.5170   -2.6660 C.2     1  UNL1        0.1650
     12  O          8.2860   -3.3290   -1.4120 O.2     1  UNL1       -0.4540
     13  O          9.3910   -2.5480   -3.1440 O.2     1  UNL1       -0.4540
     14  C          9.2920   -3.6870   -2.3240 C.3     1  UNL1        0.4680
@<TRIPOS>BOND
     1    13    11    1
     2    13    14    1
     3     9    11    2
     4     9     7    1
     5    11    10    1
     6     7     6    2
     7    14    12    1
     8    10    12    1
     9    10     8    2
    10     6     8    1
    11     6     5    1
    12     5     1    1
    13     1     2    1
    14     2     4    2
    15     2     3    1
