@<TRIPOS>MOLECULE
/home/cewinharhar/GITHUB/reincatalyze/data/processed/docking_pred/2023-May-31-1438_sub9_nm5_bs15_s42_ex16_mel10_mts1000_k50_ec05_g099_lra9e-4_lrc3e-3/1e16add1d5649bf0b13dd0d86c7d3fc630d89625_ligand_9.pdbqt
 14 15 0 0 0
SMALL
GASTEIGER

@<TRIPOS>ATOM
      1  C          8.0190   -2.4510   -3.5280 C.3     1  UNL1        0.0800
      2  C          9.1340   -3.4280   -3.3750 C.2     1  UNL1        0.1300
      3  C          8.8830   -4.8910   -3.2870 C.3     1  UNL1        0.0870
      4  O         10.2930   -3.0510   -3.3170 O.2     1  UNL1       -0.3000
      5  C          8.4280   -1.0700   -3.0560 C.3     1  UNL1        0.0430
      6  C          7.6680   -0.6530   -1.8640 C.2     1  UNL1       -0.0440
      7  C          6.7810    0.4290   -1.9020 C.2     1  UNL1        0.0080
      8  C          7.8250   -1.3380   -0.6810 C.2     1  UNL1        0.0540
      9  C          6.0950    0.7750   -0.7530 C.2     1  UNL1        0.0510
     10  C          7.1280   -0.9850    0.4790 C.2     1  UNL1        0.1660
     11  C          6.2560    0.0800    0.4420 C.2     1  UNL1        0.1650
     12  O          7.1100   -1.4990    1.7580 O.2     1  UNL1       -0.4540
     13  O          5.7140    0.1990    1.7130 O.2     1  UNL1       -0.4540
     14  C          6.1600   -0.8390    2.5540 C.3     1  UNL1        0.4680
@<TRIPOS>BOND
     1     1     2    1
     2     1     5    1
     3     2     4    2
     4     2     3    1
     5     5     6    1
     6     7     6    2
     7     7     9    1
     8     6     8    1
     9     9    11    2
    10     8    10    2
    11    11    10    1
    12    11    13    1
    13    10    12    1
    14    13    14    1
    15    12    14    1
