@<TRIPOS>MOLECULE
/home/cewinharhar/GITHUB/reincatalyze/data/processed/docking_pred/2023-May-31-1438_sub9_nm5_bs15_s42_ex16_mel10_mts1000_k50_ec05_g099_lra9e-4_lrc3e-3/1e16add1d5649bf0b13dd0d86c7d3fc630d89625_ligand_9.pdbqt
 14 15 0 0 0
SMALL
GASTEIGER

@<TRIPOS>ATOM
      1  C          8.1330   -2.5600   -3.5830 C.3     1  UNL1        0.0800
      2  C          9.2550   -3.5250   -3.4100 C.2     1  UNL1        0.1300
      3  C          9.0190   -4.9920   -3.3400 C.3     1  UNL1        0.0870
      4  O         10.4080   -3.1350   -3.3200 O.2     1  UNL1       -0.3000
      5  C          8.4990   -1.1890   -3.0520 C.3     1  UNL1        0.0430
      6  C          7.7420   -0.8550   -1.8320 C.2     1  UNL1       -0.0440
      7  C          7.7950   -1.6650   -0.6920 C.2     1  UNL1        0.0080
      8  C          6.9640    0.2800   -1.8010 C.2     1  UNL1        0.0540
      9  C          7.0640   -1.3000    0.4240 C.2     1  UNL1        0.0510
     10  C          6.2270    0.6440   -0.6700 C.2     1  UNL1        0.1660
     11  C          6.2770   -0.1530    0.4520 C.2     1  UNL1        0.1650
     12  O          5.3910    1.7050   -0.3950 O.2     1  UNL1       -0.4540
     13  O          5.4640    0.4420    1.4030 O.2     1  UNL1       -0.4540
     14  C          4.9540    1.6700    0.9390 C.3     1  UNL1        0.4680
@<TRIPOS>BOND
     1     1     2    1
     2     1     5    1
     3     2     3    1
     4     2     4    2
     5     5     6    1
     6     6     8    2
     7     6     7    1
     8     8    10    1
     9     7     9    2
    10    10    12    1
    11    10    11    2
    12    12    14    1
    13     9    11    1
    14    11    13    1
    15    14    13    1
