@<TRIPOS>MOLECULE
/home/cewinharhar/GITHUB/reincatalyze/data/processed/docking_pred/2023-May-31-1438_sub9_nm5_bs15_s42_ex16_mel10_mts1000_k50_ec05_g099_lra9e-4_lrc3e-3/1e20ac6c45a20644dde897fa0fc5711864bcd284_ligand_9.pdbqt
 14 15 0 0 0
SMALL
GASTEIGER

@<TRIPOS>ATOM
      1  C          5.4500   -0.0840    1.9340 C.3     1  UNL1        0.0800
      2  C          4.6240    1.1360    1.7140 C.2     1  UNL1        0.1300
      3  C          4.9360    2.1060    0.6300 C.3     1  UNL1        0.0870
      4  O          3.6600    1.3760    2.4230 O.2     1  UNL1       -0.3000
      5  C          6.8930    0.1480    1.5310 C.3     1  UNL1        0.0430
      6  C          7.3190   -0.7790    0.4670 C.2     1  UNL1       -0.0440
      7  C          7.1840   -0.4530   -0.8870 C.2     1  UNL1        0.0080
      8  C          7.8660   -1.9960    0.8030 C.2     1  UNL1        0.0540
      9  C          7.6030   -1.3620   -1.8410 C.2     1  UNL1        0.0510
     10  C          8.2880   -2.9120   -0.1650 C.2     1  UNL1        0.1660
     11  C          8.1550   -2.5930   -1.4980 C.2     1  UNL1        0.1650
     12  O          8.8540   -4.1670   -0.0890 O.2     1  UNL1       -0.4540
     13  O          8.6480   -3.6690   -2.2200 O.2     1  UNL1       -0.4540
     14  C          9.1840   -4.6510   -1.3650 C.3     1  UNL1        0.4680
@<TRIPOS>BOND
     1    13    11    1
     2    13    14    1
     3     9    11    2
     4     9     7    1
     5    11    10    1
     6    14    12    1
     7     7     6    2
     8    10    12    1
     9    10     8    2
    10     6     8    1
    11     6     5    1
    12     3     2    1
    13     5     1    1
    14     2     1    1
    15     2     4    2
