@<TRIPOS>MOLECULE
/home/cewinharhar/GITHUB/reincatalyze/data/processed/docking_pred/2023-May-31-1438_sub9_nm5_bs15_s42_ex16_mel10_mts1000_k50_ec05_g099_lra9e-4_lrc3e-3/1e8ffecbec14ce573bf52adb8829230239be76a8_ligand_9.pdbqt
 14 15 0 0 0
SMALL
GASTEIGER

@<TRIPOS>ATOM
      1  C          5.7320    1.3040   -0.2860 C.3     1  UNL1        0.0800
      2  C          5.1910    1.2180    1.1000 C.2     1  UNL1        0.1300
      3  C          5.3770    0.0020    1.9360 C.3     1  UNL1        0.0870
      4  O          4.5760    2.1500    1.5910 O.2     1  UNL1       -0.3000
      5  C          7.2340    1.0970   -0.3040 C.3     1  UNL1        0.0430
      6  C          7.5990   -0.1940   -0.9160 C.2     1  UNL1       -0.0440
      7  C          7.6260   -0.3660   -2.3040 C.2     1  UNL1        0.0080
      8  C          7.9260   -1.2610   -0.1110 C.2     1  UNL1        0.0540
      9  C          7.9780   -1.5990   -2.8210 C.2     1  UNL1        0.0510
     10  C          8.2820   -2.5060   -0.6380 C.2     1  UNL1        0.1660
     11  C          8.3070   -2.6770   -2.0050 C.2     1  UNL1        0.1650
     12  O          8.6420   -3.7040   -0.0590 O.2     1  UNL1       -0.4540
     13  O          8.6880   -3.9890   -2.2380 O.2     1  UNL1       -0.4540
     14  C          8.9980   -4.6500   -1.0340 C.3     1  UNL1        0.4680
@<TRIPOS>BOND
     1     9     7    1
     2     9    11    2
     3     7     6    2
     4    13    11    1
     5    13    14    1
     6    11    10    1
     7    14    12    1
     8     6     5    1
     9     6     8    1
    10    10     8    2
    11    10    12    1
    12     5     1    1
    13     1     2    1
    14     2     4    2
    15     2     3    1
