@<TRIPOS>MOLECULE
/home/cewinharhar/GITHUB/reincatalyze/data/processed/docking_pred/2023-May-31-1438_sub9_nm5_bs15_s42_ex16_mel10_mts1000_k50_ec05_g099_lra9e-4_lrc3e-3/1e8ffecbec14ce573bf52adb8829230239be76a8_ligand_9.pdbqt
 14 15 0 0 0
SMALL
GASTEIGER

@<TRIPOS>ATOM
      1  C          6.7680    0.7180    1.3470 C.3     1  UNL1        0.0800
      2  C          5.3440    1.1360    1.4770 C.2     1  UNL1        0.1300
      3  C          4.7420    2.1500    0.5700 C.3     1  UNL1        0.0870
      4  O          4.6250    0.6540    2.3380 O.2     1  UNL1       -0.3000
      5  C          7.2800    0.9390   -0.0620 C.3     1  UNL1        0.0430
      6  C          7.6210   -0.3330   -0.7250 C.2     1  UNL1       -0.0440
      7  C          7.6170   -0.4560   -2.1190 C.2     1  UNL1        0.0080
      8  C          7.9540   -1.4310    0.0350 C.2     1  UNL1        0.0540
      9  C          7.9460   -1.6740   -2.6860 C.2     1  UNL1        0.0510
     10  C          8.2860   -2.6600   -0.5430 C.2     1  UNL1        0.1660
     11  C          8.2820   -2.7820   -1.9150 C.2     1  UNL1        0.1650
     12  O          8.6470   -3.8800   -0.0130 O.2     1  UNL1       -0.4540
     13  O          8.6450   -4.0890   -2.2020 O.2     1  UNL1       -0.4540
     14  C          8.9730   -4.7940   -1.0280 C.3     1  UNL1        0.4680
@<TRIPOS>BOND
     1     9     7    1
     2     9    11    2
     3    13    11    1
     4    13    14    1
     5     7     6    2
     6    11    10    1
     7    14    12    1
     8     6     5    1
     9     6     8    1
    10    10    12    1
    11    10     8    2
    12     5     1    1
    13     3     2    1
    14     1     2    1
    15     2     4    2
