@<TRIPOS>MOLECULE
/home/cewinharhar/GITHUB/reincatalyze/data/processed/docking_pred/2023-May-31-1438_sub9_nm5_bs15_s42_ex16_mel10_mts1000_k50_ec05_g099_lra9e-4_lrc3e-3/1e8ffecbec14ce573bf52adb8829230239be76a8_ligand_9.pdbqt
 14 15 0 0 0
SMALL
GASTEIGER

@<TRIPOS>ATOM
      1  C          5.5280    1.9340    1.2480 C.3     1  UNL1        0.0800
      2  C          5.1000    0.7220    2.0010 C.2     1  UNL1        0.1300
      3  C          6.0060   -0.4430    2.1870 C.3     1  UNL1        0.0870
      4  O          3.9830    0.6500    2.4890 O.2     1  UNL1       -0.3000
      5  C          5.4000    1.7260   -0.2480 C.3     1  UNL1        0.0430
      6  C          6.5700    1.0240   -0.8040 C.2     1  UNL1       -0.0440
      7  C          7.8760    1.4530   -0.5420 C.2     1  UNL1        0.0080
      8  C          6.3850   -0.0840   -1.6000 C.2     1  UNL1        0.0540
      9  C          8.9350    0.7530   -1.0910 C.2     1  UNL1        0.0510
     10  C          7.4600   -0.7880   -2.1520 C.2     1  UNL1        0.1660
     11  C          8.7450   -0.3660   -1.8960 C.2     1  UNL1        0.1650
     12  O          7.5370   -1.9010   -2.9630 O.2     1  UNL1       -0.4540
     13  O          9.5940   -1.2380   -2.5600 O.2     1  UNL1       -0.4540
     14  C          8.8730   -2.2790   -3.1750 C.3     1  UNL1        0.4680
@<TRIPOS>BOND
     1    14    12    1
     2    14    13    1
     3    12    10    1
     4    13    11    1
     5    10    11    2
     6    10     8    1
     7    11     9    1
     8     8     6    2
     9     9     7    2
    10     6     7    1
    11     6     5    1
    12     5     1    1
    13     1     2    1
    14     2     3    1
    15     2     4    2
