@<TRIPOS>MOLECULE
/home/cewinharhar/GITHUB/reincatalyze/data/processed/docking_pred/2023-May-31-1438_sub9_nm5_bs15_s42_ex16_mel10_mts1000_k50_ec05_g099_lra9e-4_lrc3e-3/1f774135605f6656ff2aa9e322f53f2a679c664c_ligand_9.pdbqt
 14 15 0 0 0
SMALL
GASTEIGER

@<TRIPOS>ATOM
      1  C          6.4080    1.1990    0.9410 C.3     1  UNL1        0.0800
      2  C          5.6680    0.3650    1.9290 C.2     1  UNL1        0.1300
      3  C          6.2620   -0.8690    2.5090 C.3     1  UNL1        0.0870
      4  O          4.5450    0.6740    2.2930 O.2     1  UNL1       -0.3000
      5  C          5.9080    0.9540   -0.4690 C.3     1  UNL1        0.0430
      6  C          6.8420    0.1140   -1.2410 C.2     1  UNL1       -0.0440
      7  C          7.5250    0.6120   -2.3560 C.2     1  UNL1        0.0080
      8  C          7.0550   -1.1930   -0.8640 C.2     1  UNL1        0.0540
      9  C          8.3890   -0.2230   -3.0420 C.2     1  UNL1        0.0510
     10  C          7.9300   -2.0320   -1.5600 C.2     1  UNL1        0.1660
     11  C          8.6020   -1.5430   -2.6580 C.2     1  UNL1        0.1650
     12  O          8.3070   -3.3470   -1.3880 O.2     1  UNL1       -0.4540
     13  O          9.3870   -2.5780   -3.1410 O.2     1  UNL1       -0.4540
     14  C          9.3000   -3.7120   -2.3120 C.3     1  UNL1        0.4680
@<TRIPOS>BOND
     1    13    11    1
     2    13    14    1
     3     9    11    2
     4     9     7    1
     5    11    10    1
     6     7     6    2
     7    14    12    1
     8    10    12    1
     9    10     8    2
    10     6     8    1
    11     6     5    1
    12     5     1    1
    13     1     2    1
    14     2     4    2
    15     2     3    1
