MODEL 1
REMARK VINA RESULT:      -7.6      0.000      0.000
REMARK SMILES CC(=O)CCc1ccc2c(c1)OCO2
REMARK SMILES IDX 4 1 2 2 1 3 3 4 5 5 6 6 7 7 11 8 8 9 10 10 9 11 12 12 14 13
REMARK SMILES IDX 13 14
REMARK H PARENT
REMARK Flexibility Score: inf
ROOT
ATOM      1  C   UNL     1       5.519   1.916   1.263  1.00  0.00     0.080 C 
ENDROOT
BRANCH   1   2
ATOM      2  C   UNL     1       5.084   0.697   2.001  1.00  0.00     0.130 C 
ATOM      3  C   UNL     1       5.977  -0.482   2.156  1.00  0.00     0.087 C 
ATOM      4  O   UNL     1       3.973   0.631   2.502  1.00  0.00    -0.300 OA
ENDBRANCH   1   2
BRANCH   1   5
ATOM      5  C   UNL     1       5.389   1.728  -0.235  1.00  0.00     0.043 C 
BRANCH   5   6
ATOM      6  C   UNL     1       6.558   1.032  -0.802  1.00  0.00    -0.044 A 
ATOM      7  C   UNL     1       7.863   1.472  -0.557  1.00  0.00     0.008 A 
ATOM      8  C   UNL     1       6.373  -0.081  -1.591  1.00  0.00     0.054 A 
ATOM      9  C   UNL     1       8.922   0.778  -1.114  1.00  0.00     0.051 A 
ATOM     10  C   UNL     1       7.446  -0.779  -2.152  1.00  0.00     0.166 A 
ATOM     11  C   UNL     1       8.731  -0.346  -1.912  1.00  0.00     0.165 A 
ATOM     12  O   UNL     1       7.523  -1.895  -2.959  1.00  0.00    -0.454 OA
ATOM     13  O   UNL     1       9.579  -1.214  -2.582  1.00  0.00    -0.454 OA
ATOM     14  C   UNL     1       8.859  -2.263  -3.184  1.00  0.00     0.468 C 
ENDBRANCH   5   6
ENDBRANCH   1   5
TORSDOF 3
ENDMDL
MODEL 2
REMARK VINA RESULT:      -7.5      1.931      2.390
REMARK SMILES CC(=O)CCc1ccc2c(c1)OCO2
REMARK SMILES IDX 4 1 2 2 1 3 3 4 5 5 6 6 7 7 11 8 8 9 10 10 9 11 12 12 14 13
REMARK SMILES IDX 13 14
REMARK H PARENT
REMARK Flexibility Score: inf
ROOT
ATOM      1  C   UNL     1       5.702   1.308  -0.289  1.00  0.00     0.080 C 
ENDROOT
BRANCH   1   2
ATOM      2  C   UNL     1       5.105   1.252   1.075  1.00  0.00     0.130 C 
ATOM      3  C   UNL     1       5.358   0.109   1.992  1.00  0.00     0.087 C 
ATOM      4  O   UNL     1       4.384   2.150   1.480  1.00  0.00    -0.300 OA
ENDBRANCH   1   2
BRANCH   1   5
ATOM      5  C   UNL     1       7.201   1.086  -0.242  1.00  0.00     0.043 C 
BRANCH   5   6
ATOM      6  C   UNL     1       7.582  -0.199  -0.856  1.00  0.00    -0.044 A 
ATOM      7  C   UNL     1       7.663  -0.353  -2.245  1.00  0.00     0.008 A 
ATOM      8  C   UNL     1       7.871  -1.279  -0.053  1.00  0.00     0.054 A 
ATOM      9  C   UNL     1       8.027  -1.582  -2.764  1.00  0.00     0.051 A 
ATOM     10  C   UNL     1       8.239  -2.520  -0.583  1.00  0.00     0.166 A 
ATOM     11  C   UNL     1       8.317  -2.672  -1.949  1.00  0.00     0.165 A 
ATOM     12  O   UNL     1       8.569  -3.728  -0.006  1.00  0.00    -0.454 OA
ATOM     13  O   UNL     1       8.698  -3.984  -2.185  1.00  0.00    -0.454 OA
ATOM     14  C   UNL     1       8.957  -4.663  -0.979  1.00  0.00     0.468 C 
ENDBRANCH   5   6
ENDBRANCH   1   5
TORSDOF 3
ENDMDL
MODEL 3
REMARK VINA RESULT:      -7.2      2.050      2.623
REMARK SMILES CC(=O)CCc1ccc2c(c1)OCO2
REMARK SMILES IDX 4 1 2 2 1 3 3 4 5 5 6 6 7 7 11 8 8 9 10 10 9 11 12 12 14 13
REMARK SMILES IDX 13 14
REMARK H PARENT
REMARK Flexibility Score: inf
ROOT
ATOM      1  C   UNL     1       5.433  -0.036   2.063  1.00  0.00     0.080 C 
ENDROOT
BRANCH   1   2
ATOM      2  C   UNL     1       4.557   1.135   1.780  1.00  0.00     0.130 C 
ATOM      3  C   UNL     1       4.888   2.118   0.714  1.00  0.00     0.087 C 
ATOM      4  O   UNL     1       3.536   1.323   2.421  1.00  0.00    -0.300 OA
ENDBRANCH   1   2
BRANCH   1   5
ATOM      5  C   UNL     1       6.860   0.226   1.624  1.00  0.00     0.043 C 
BRANCH   5   6
ATOM      6  C   UNL     1       7.282  -0.700   0.557  1.00  0.00    -0.044 A 
ATOM      7  C   UNL     1       7.156  -0.364  -0.796  1.00  0.00     0.008 A 
ATOM      8  C   UNL     1       7.817  -1.924   0.887  1.00  0.00     0.054 A 
ATOM      9  C   UNL     1       7.569  -1.272  -1.754  1.00  0.00     0.051 A 
ATOM     10  C   UNL     1       8.234  -2.838  -0.085  1.00  0.00     0.166 A 
ATOM     11  C   UNL     1       8.108  -2.510  -1.416  1.00  0.00     0.165 A 
ATOM     12  O   UNL     1       8.787  -4.099  -0.013  1.00  0.00    -0.454 OA
ATOM     13  O   UNL     1       8.594  -3.587  -2.142  1.00  0.00    -0.454 OA
ATOM     14  C   UNL     1       9.118  -4.578  -1.291  1.00  0.00     0.468 C 
ENDBRANCH   5   6
ENDBRANCH   1   5
TORSDOF 3
ENDMDL
MODEL 4
REMARK VINA RESULT:      -7.1      1.979      2.521
REMARK SMILES CC(=O)CCc1ccc2c(c1)OCO2
REMARK SMILES IDX 4 1 2 2 1 3 3 4 5 5 6 6 7 7 11 8 8 9 10 10 9 11 12 12 14 13
REMARK SMILES IDX 13 14
REMARK H PARENT
REMARK Flexibility Score: inf
ROOT
ATOM      1  C   UNL     1       6.806   0.811   1.412  1.00  0.00     0.080 C 
ENDROOT
BRANCH   1   2
ATOM      2  C   UNL     1       5.364   1.182   1.464  1.00  0.00     0.130 C 
ATOM      3  C   UNL     1       4.771   2.146   0.500  1.00  0.00     0.087 C 
ATOM      4  O   UNL     1       4.624   0.701   2.307  1.00  0.00    -0.300 OA
ENDBRANCH   1   2
BRANCH   1   5
ATOM      5  C   UNL     1       7.384   1.043   0.030  1.00  0.00     0.043 C 
BRANCH   5   6
ATOM      6  C   UNL     1       7.699  -0.225  -0.651  1.00  0.00    -0.044 A 
ATOM      7  C   UNL     1       7.693  -0.329  -2.047  1.00  0.00     0.008 A 
ATOM      8  C   UNL     1       8.011  -1.340   0.093  1.00  0.00     0.054 A 
ATOM      9  C   UNL     1       7.997  -1.545  -2.631  1.00  0.00     0.051 A 
ATOM     10  C   UNL     1       8.319  -2.567  -0.502  1.00  0.00     0.166 A 
ATOM     11  C   UNL     1       8.311  -2.670  -1.876  1.00  0.00     0.165 A 
ATOM     12  O   UNL     1       8.655  -3.802   0.010  1.00  0.00    -0.454 OA
ATOM     13  O   UNL     1       8.648  -3.980  -2.181  1.00  0.00    -0.454 OA
ATOM     14  C   UNL     1       8.963  -4.708  -1.018  1.00  0.00     0.468 C 
ENDBRANCH   5   6
ENDBRANCH   1   5
TORSDOF 3
ENDMDL
MODEL 5
REMARK VINA RESULT:      -7.1      1.264      1.478
REMARK SMILES CC(=O)CCc1ccc2c(c1)OCO2
REMARK SMILES IDX 4 1 2 2 1 3 3 4 5 5 6 6 7 7 11 8 8 9 10 10 9 11 12 12 14 13
REMARK SMILES IDX 13 14
REMARK H PARENT
REMARK Flexibility Score: inf
ROOT
ATOM      1  C   UNL     1       6.408   1.199   0.941  1.00  0.00     0.080 C 
ENDROOT
BRANCH   1   2
ATOM      2  C   UNL     1       5.668   0.365   1.929  1.00  0.00     0.130 C 
ATOM      3  C   UNL     1       6.262  -0.869   2.509  1.00  0.00     0.087 C 
ATOM      4  O   UNL     1       4.545   0.674   2.293  1.00  0.00    -0.300 OA
ENDBRANCH   1   2
BRANCH   1   5
ATOM      5  C   UNL     1       5.908   0.954  -0.469  1.00  0.00     0.043 C 
BRANCH   5   6
ATOM      6  C   UNL     1       6.842   0.114  -1.241  1.00  0.00    -0.044 A 
ATOM      7  C   UNL     1       7.525   0.612  -2.356  1.00  0.00     0.008 A 
ATOM      8  C   UNL     1       7.055  -1.193  -0.864  1.00  0.00     0.054 A 
ATOM      9  C   UNL     1       8.389  -0.223  -3.042  1.00  0.00     0.051 A 
ATOM     10  C   UNL     1       7.930  -2.032  -1.560  1.00  0.00     0.166 A 
ATOM     11  C   UNL     1       8.602  -1.543  -2.658  1.00  0.00     0.165 A 
ATOM     12  O   UNL     1       8.307  -3.347  -1.388  1.00  0.00    -0.454 OA
ATOM     13  O   UNL     1       9.387  -2.578  -3.141  1.00  0.00    -0.454 OA
ATOM     14  C   UNL     1       9.300  -3.712  -2.312  1.00  0.00     0.468 C 
ENDBRANCH   5   6
ENDBRANCH   1   5
TORSDOF 3
ENDMDL
