@<TRIPOS>MOLECULE
/home/cewinharhar/GITHUB/reincatalyze/data/processed/docking_pred/2023-May-31-1438_sub9_nm5_bs15_s42_ex16_mel10_mts1000_k50_ec05_g099_lra9e-4_lrc3e-3/1f774135605f6656ff2aa9e322f53f2a679c664c_ligand_9.pdbqt
 14 15 0 0 0
SMALL
GASTEIGER

@<TRIPOS>ATOM
      1  C          5.4330   -0.0360    2.0630 C.3     1  UNL1        0.0800
      2  C          4.5570    1.1350    1.7800 C.2     1  UNL1        0.1300
      3  C          4.8880    2.1180    0.7140 C.3     1  UNL1        0.0870
      4  O          3.5360    1.3230    2.4210 O.2     1  UNL1       -0.3000
      5  C          6.8600    0.2260    1.6240 C.3     1  UNL1        0.0430
      6  C          7.2820   -0.7000    0.5570 C.2     1  UNL1       -0.0440
      7  C          7.1560   -0.3640   -0.7960 C.2     1  UNL1        0.0080
      8  C          7.8170   -1.9240    0.8870 C.2     1  UNL1        0.0540
      9  C          7.5690   -1.2720   -1.7540 C.2     1  UNL1        0.0510
     10  C          8.2340   -2.8380   -0.0850 C.2     1  UNL1        0.1660
     11  C          8.1080   -2.5100   -1.4160 C.2     1  UNL1        0.1650
     12  O          8.7870   -4.0990   -0.0130 O.2     1  UNL1       -0.4540
     13  O          8.5940   -3.5870   -2.1420 O.2     1  UNL1       -0.4540
     14  C          9.1180   -4.5780   -1.2910 C.3     1  UNL1        0.4680
@<TRIPOS>BOND
     1    13    11    1
     2    13    14    1
     3     9    11    2
     4     9     7    1
     5    11    10    1
     6    14    12    1
     7     7     6    2
     8    10    12    1
     9    10     8    2
    10     6     8    1
    11     6     5    1
    12     3     2    1
    13     5     1    1
    14     2     1    1
    15     2     4    2
