MODEL 1
REMARK VINA RESULT:      -7.7      0.000      0.000
REMARK SMILES CC(=O)CCc1ccc2c(c1)OCO2
REMARK SMILES IDX 4 1 2 2 1 3 3 4 5 5 6 6 7 7 11 8 8 9 10 10 9 11 12 12 14 13
REMARK SMILES IDX 13 14
REMARK H PARENT
REMARK Flexibility Score: inf
ROOT
ATOM      1  C   UNL     1       5.509   1.943   1.263  1.00  0.00     0.080 C 
ENDROOT
BRANCH   1   2
ATOM      2  C   UNL     1       5.078   0.724   2.004  1.00  0.00     0.130 C 
ATOM      3  C   UNL     1       5.978  -0.449   2.167  1.00  0.00     0.087 C 
ATOM      4  O   UNL     1       3.966   0.653   2.501  1.00  0.00    -0.300 OA
ENDBRANCH   1   2
BRANCH   1   5
ATOM      5  C   UNL     1       5.386   1.748  -0.235  1.00  0.00     0.043 C 
BRANCH   5   6
ATOM      6  C   UNL     1       6.557   1.049  -0.793  1.00  0.00    -0.044 A 
ATOM      7  C   UNL     1       7.862   1.485  -0.538  1.00  0.00     0.008 A 
ATOM      8  C   UNL     1       6.374  -0.063  -1.584  1.00  0.00     0.054 A 
ATOM      9  C   UNL     1       8.922   0.788  -1.088  1.00  0.00     0.051 A 
ATOM     10  C   UNL     1       7.450  -0.765  -2.137  1.00  0.00     0.166 A 
ATOM     11  C   UNL     1       8.734  -0.335  -1.888  1.00  0.00     0.165 A 
ATOM     12  O   UNL     1       7.529  -1.880  -2.944  1.00  0.00    -0.454 OA
ATOM     13  O   UNL     1       9.584  -1.206  -2.552  1.00  0.00    -0.454 OA
ATOM     14  C   UNL     1       8.866  -2.253  -3.159  1.00  0.00     0.468 C 
ENDBRANCH   5   6
ENDBRANCH   1   5
TORSDOF 3
ENDMDL
MODEL 2
REMARK VINA RESULT:      -7.5      1.933      2.398
REMARK SMILES CC(=O)CCc1ccc2c(c1)OCO2
REMARK SMILES IDX 4 1 2 2 1 3 3 4 5 5 6 6 7 7 11 8 8 9 10 10 9 11 12 12 14 13
REMARK SMILES IDX 13 14
REMARK H PARENT
REMARK Flexibility Score: inf
ROOT
ATOM      1  C   UNL     1       5.755   1.383  -0.315  1.00  0.00     0.080 C 
ENDROOT
BRANCH   1   2
ATOM      2  C   UNL     1       5.104   1.296   1.023  1.00  0.00     0.130 C 
ATOM      3  C   UNL     1       5.386   0.173   1.956  1.00  0.00     0.087 C 
ATOM      4  O   UNL     1       4.315   2.150   1.392  1.00  0.00    -0.300 OA
ENDBRANCH   1   2
BRANCH   1   5
ATOM      5  C   UNL     1       7.244   1.120  -0.220  1.00  0.00     0.043 C 
BRANCH   5   6
ATOM      6  C   UNL     1       7.611  -0.170  -0.833  1.00  0.00    -0.044 A 
ATOM      7  C   UNL     1       7.658  -0.335  -2.222  1.00  0.00     0.008 A 
ATOM      8  C   UNL     1       7.919  -1.244  -0.029  1.00  0.00     0.054 A 
ATOM      9  C   UNL     1       8.009  -1.568  -2.739  1.00  0.00     0.051 A 
ATOM     10  C   UNL     1       8.275  -2.488  -0.557  1.00  0.00     0.166 A 
ATOM     11  C   UNL     1       8.320  -2.652  -1.924  1.00  0.00     0.165 A 
ATOM     12  O   UNL     1       8.619  -3.692   0.022  1.00  0.00    -0.454 OA
ATOM     13  O   UNL     1       8.695  -3.965  -2.158  1.00  0.00    -0.454 OA
ATOM     14  C   UNL     1       8.983  -4.634  -0.953  1.00  0.00     0.468 C 
ENDBRANCH   5   6
ENDBRANCH   1   5
TORSDOF 3
ENDMDL
MODEL 3
REMARK VINA RESULT:      -7.2      2.099      2.658
REMARK SMILES CC(=O)CCc1ccc2c(c1)OCO2
REMARK SMILES IDX 4 1 2 2 1 3 3 4 5 5 6 6 7 7 11 8 8 9 10 10 9 11 12 12 14 13
REMARK SMILES IDX 13 14
REMARK H PARENT
REMARK Flexibility Score: inf
ROOT
ATOM      1  C   UNL     1       5.503  -0.027   1.940  1.00  0.00     0.080 C 
ENDROOT
BRANCH   1   2
ATOM      2  C   UNL     1       4.644   1.153   1.644  1.00  0.00     0.130 C 
ATOM      3  C   UNL     1       4.956   2.086   0.528  1.00  0.00     0.087 C 
ATOM      4  O   UNL     1       3.653   1.391   2.315  1.00  0.00    -0.300 OA
ENDBRANCH   1   2
BRANCH   1   5
ATOM      5  C   UNL     1       6.934   0.208   1.499  1.00  0.00     0.043 C 
BRANCH   5   6
ATOM      6  C   UNL     1       7.349  -0.747   0.456  1.00  0.00    -0.044 A 
ATOM      7  C   UNL     1       7.227  -0.445  -0.905  1.00  0.00     0.008 A 
ATOM      8  C   UNL     1       7.872  -1.967   0.818  1.00  0.00     0.054 A 
ATOM      9  C   UNL     1       7.634  -1.380  -1.839  1.00  0.00     0.051 A 
ATOM     10  C   UNL     1       8.283  -2.909  -0.130  1.00  0.00     0.166 A 
ATOM     11  C   UNL     1       8.162  -2.613  -1.470  1.00  0.00     0.165 A 
ATOM     12  O   UNL     1       8.826  -4.172  -0.026  1.00  0.00    -0.454 OA
ATOM     13  O   UNL     1       8.639  -3.712  -2.167  1.00  0.00    -0.454 OA
ATOM     14  C   UNL     1       9.154  -4.686  -1.291  1.00  0.00     0.468 C 
ENDBRANCH   5   6
ENDBRANCH   1   5
TORSDOF 3
ENDMDL
MODEL 4
REMARK VINA RESULT:      -7.1      1.269      1.494
REMARK SMILES CC(=O)CCc1ccc2c(c1)OCO2
REMARK SMILES IDX 4 1 2 2 1 3 3 4 5 5 6 6 7 7 11 8 8 9 10 10 9 11 12 12 14 13
REMARK SMILES IDX 13 14
REMARK H PARENT
REMARK Flexibility Score: inf
ROOT
ATOM      1  C   UNL     1       6.387   1.184   0.952  1.00  0.00     0.080 C 
ENDROOT
BRANCH   1   2
ATOM      2  C   UNL     1       5.648   0.368   1.955  1.00  0.00     0.130 C 
ATOM      3  C   UNL     1       6.238  -0.860   2.551  1.00  0.00     0.087 C 
ATOM      4  O   UNL     1       4.527   0.687   2.319  1.00  0.00    -0.300 OA
ENDBRANCH   1   2
BRANCH   1   5
ATOM      5  C   UNL     1       5.879   0.924  -0.452  1.00  0.00     0.043 C 
BRANCH   5   6
ATOM      6  C   UNL     1       6.818   0.094  -1.228  1.00  0.00    -0.044 A 
ATOM      7  C   UNL     1       7.485   0.598  -2.350  1.00  0.00     0.008 A 
ATOM      8  C   UNL     1       7.054  -1.207  -0.847  1.00  0.00     0.054 A 
ATOM      9  C   UNL     1       8.356  -0.227  -3.039  1.00  0.00     0.051 A 
ATOM     10  C   UNL     1       7.936  -2.037  -1.546  1.00  0.00     0.166 A 
ATOM     11  C   UNL     1       8.592  -1.542  -2.652  1.00  0.00     0.165 A 
ATOM     12  O   UNL     1       8.334  -3.345  -1.371  1.00  0.00    -0.454 OA
ATOM     13  O   UNL     1       9.388  -2.568  -3.137  1.00  0.00    -0.454 OA
ATOM     14  C   UNL     1       9.324  -3.700  -2.302  1.00  0.00     0.468 C 
ENDBRANCH   5   6
ENDBRANCH   1   5
TORSDOF 3
ENDMDL
MODEL 5
REMARK VINA RESULT:      -7.1      1.986      2.573
REMARK SMILES CC(=O)CCc1ccc2c(c1)OCO2
REMARK SMILES IDX 4 1 2 2 1 3 3 4 5 5 6 6 7 7 11 8 8 9 10 10 9 11 12 12 14 13
REMARK SMILES IDX 13 14
REMARK H PARENT
REMARK Flexibility Score: inf
ROOT
ATOM      1  C   UNL     1       6.829   0.717   1.255  1.00  0.00     0.080 C 
ENDROOT
BRANCH   1   2
ATOM      2  C   UNL     1       5.410   1.141   1.417  1.00  0.00     0.130 C 
ATOM      3  C   UNL     1       4.789   2.150   0.518  1.00  0.00     0.087 C 
ATOM      4  O   UNL     1       4.712   0.668   2.300  1.00  0.00    -0.300 OA
ENDBRANCH   1   2
BRANCH   1   5
ATOM      5  C   UNL     1       7.307   0.928  -0.168  1.00  0.00     0.043 C 
BRANCH   5   6
ATOM      6  C   UNL     1       7.697  -0.342  -0.808  1.00  0.00    -0.044 A 
ATOM      7  C   UNL     1       7.804  -0.460  -2.198  1.00  0.00     0.008 A 
ATOM      8  C   UNL     1       7.967  -1.443  -0.028  1.00  0.00     0.054 A 
ATOM      9  C   UNL     1       8.175  -1.676  -2.742  1.00  0.00     0.051 A 
ATOM     10  C   UNL     1       8.343  -2.671  -0.582  1.00  0.00     0.166 A 
ATOM     11  C   UNL     1       8.447  -2.788  -1.950  1.00  0.00     0.165 A 
ATOM     12  O   UNL     1       8.658  -3.894  -0.030  1.00  0.00    -0.454 OA
ATOM     13  O   UNL     1       8.830  -4.094  -2.212  1.00  0.00    -0.454 OA
ATOM     14  C   UNL     1       9.063  -4.805  -1.020  1.00  0.00     0.468 C 
ENDBRANCH   5   6
ENDBRANCH   1   5
TORSDOF 3
ENDMDL
