@<TRIPOS>MOLECULE
/home/cewinharhar/GITHUB/reincatalyze/data/processed/docking_pred/2023-May-31-1438_sub9_nm5_bs15_s42_ex16_mel10_mts1000_k50_ec05_g099_lra9e-4_lrc3e-3/1fd5ec6d4a6889d2560636754963a08404c0587d_ligand_9.pdbqt
 14 15 0 0 0
SMALL
GASTEIGER

@<TRIPOS>ATOM
      1  C          5.5090    1.9430    1.2630 C.3     1  UNL1        0.0800
      2  C          5.0780    0.7240    2.0040 C.2     1  UNL1        0.1300
      3  C          5.9780   -0.4490    2.1670 C.3     1  UNL1        0.0870
      4  O          3.9660    0.6530    2.5010 O.2     1  UNL1       -0.3000
      5  C          5.3860    1.7480   -0.2350 C.3     1  UNL1        0.0430
      6  C          6.5570    1.0490   -0.7930 C.2     1  UNL1       -0.0440
      7  C          7.8620    1.4850   -0.5380 C.2     1  UNL1        0.0080
      8  C          6.3740   -0.0630   -1.5840 C.2     1  UNL1        0.0540
      9  C          8.9220    0.7880   -1.0880 C.2     1  UNL1        0.0510
     10  C          7.4500   -0.7650   -2.1370 C.2     1  UNL1        0.1660
     11  C          8.7340   -0.3350   -1.8880 C.2     1  UNL1        0.1650
     12  O          7.5290   -1.8800   -2.9440 O.2     1  UNL1       -0.4540
     13  O          9.5840   -1.2060   -2.5520 O.2     1  UNL1       -0.4540
     14  C          8.8660   -2.2530   -3.1590 C.3     1  UNL1        0.4680
@<TRIPOS>BOND
     1    14    12    1
     2    14    13    1
     3    12    10    1
     4    13    11    1
     5    10    11    2
     6    10     8    1
     7    11     9    1
     8     8     6    2
     9     9     7    2
    10     6     7    1
    11     6     5    1
    12     5     1    1
    13     1     2    1
    14     2     3    1
    15     2     4    2
