@<TRIPOS>MOLECULE
/home/cewinharhar/GITHUB/reincatalyze/data/processed/docking_pred/2023-May-31-1438_sub9_nm5_bs15_s42_ex16_mel10_mts1000_k50_ec05_g099_lra9e-4_lrc3e-3/21195065f8807259401ec3420f3b6dd683f2acc0_ligand_9.pdbqt
 14 15 0 0 0
SMALL
GASTEIGER

@<TRIPOS>ATOM
      1  C          6.3810    1.1740    0.9580 C.3     1  UNL1        0.0800
      2  C          5.6390    0.3530    1.9560 C.2     1  UNL1        0.1300
      3  C          6.2280   -0.8770    2.5480 C.3     1  UNL1        0.0870
      4  O          4.5170    0.6700    2.3170 O.2     1  UNL1       -0.3000
      5  C          5.8750    0.9210   -0.4480 C.3     1  UNL1        0.0430
      6  C          6.8170    0.0980   -1.2280 C.2     1  UNL1       -0.0440
      7  C          7.4830    0.6080   -2.3480 C.2     1  UNL1        0.0080
      8  C          7.0570   -1.2050   -0.8530 C.2     1  UNL1        0.0540
      9  C          8.3560   -0.2110   -3.0400 C.2     1  UNL1        0.0510
     10  C          7.9410   -2.0280   -1.5560 C.2     1  UNL1        0.1660
     11  C          8.5960   -1.5270   -2.6590 C.2     1  UNL1        0.1650
     12  O          8.3430   -3.3360   -1.3870 O.2     1  UNL1       -0.4540
     13  O          9.3950   -2.5480   -3.1490 O.2     1  UNL1       -0.4540
     14  C          9.3340   -3.6840   -2.3190 C.3     1  UNL1        0.4680
@<TRIPOS>BOND
     1    13    11    1
     2    13    14    1
     3     9    11    2
     4     9     7    1
     5    11    10    1
     6     7     6    2
     7    14    12    1
     8    10    12    1
     9    10     8    2
    10     6     8    1
    11     6     5    1
    12     5     1    1
    13     1     2    1
    14     2     4    2
    15     2     3    1
