@<TRIPOS>MOLECULE
/home/cewinharhar/GITHUB/reincatalyze/data/processed/docking_pred/2023-May-31-1438_sub9_nm5_bs15_s42_ex16_mel10_mts1000_k50_ec05_g099_lra9e-4_lrc3e-3/21195065f8807259401ec3420f3b6dd683f2acc0_ligand_9.pdbqt
 14 15 0 0 0
SMALL
GASTEIGER

@<TRIPOS>ATOM
      1  C          5.8360    1.3140   -0.2710 C.3     1  UNL1        0.0800
      2  C          5.1980    1.2340    1.0720 C.2     1  UNL1        0.1300
      3  C          5.3690    0.0440    1.9490 C.3     1  UNL1        0.0870
      4  O          4.5120    2.1500    1.4950 O.2     1  UNL1       -0.3000
      5  C          7.3230    1.0310   -0.1920 C.3     1  UNL1        0.0430
      6  C          7.6680   -0.2580   -0.8200 C.2     1  UNL1       -0.0440
      7  C          7.6680   -0.4200   -2.2100 C.2     1  UNL1        0.0080
      8  C          8.0040   -1.3330   -0.0290 C.2     1  UNL1        0.0540
      9  C          8.0010   -1.6520   -2.7420 C.2     1  UNL1        0.0510
     10  C          8.3400   -2.5770   -0.5720 C.2     1  UNL1        0.1660
     11  C          8.3390   -2.7380   -1.9400 C.2     1  UNL1        0.1650
     12  O          8.7030   -3.7810   -0.0080 O.2     1  UNL1       -0.4540
     13  O          8.7060   -4.0510   -2.1890 O.2     1  UNL1       -0.4540
     14  C          9.0340   -4.7220   -0.9970 C.3     1  UNL1        0.4680
@<TRIPOS>BOND
     1     9     7    1
     2     9    11    2
     3     7     6    2
     4    13    11    1
     5    13    14    1
     6    11    10    1
     7    14    12    1
     8     6     5    1
     9     6     8    1
    10    10     8    2
    11    10    12    1
    12     1     5    1
    13     1     2    1
    14     2     4    2
    15     2     3    1
