@<TRIPOS>MOLECULE
/home/cewinharhar/GITHUB/reincatalyze/data/processed/docking_pred/2023-May-31-1438_sub9_nm5_bs15_s42_ex16_mel10_mts1000_k50_ec05_g099_lra9e-4_lrc3e-3/21195065f8807259401ec3420f3b6dd683f2acc0_ligand_9.pdbqt
 14 15 0 0 0
SMALL
GASTEIGER

@<TRIPOS>ATOM
      1  C          5.4140   -0.0760    2.0230 C.3     1  UNL1        0.0800
      2  C          4.5610    1.1180    1.7690 C.2     1  UNL1        0.1300
      3  C          4.9050    2.1140    0.7200 C.3     1  UNL1        0.0870
      4  O          3.5470    1.3140    2.4200 O.2     1  UNL1       -0.3000
      5  C          6.8500    0.1740    1.6070 C.3     1  UNL1        0.0430
      6  C          7.2800   -0.7510    0.5430 C.2     1  UNL1       -0.0440
      7  C          7.1560   -0.4200   -0.8110 C.2     1  UNL1        0.0080
      8  C          7.8200   -1.9720    0.8780 C.2     1  UNL1        0.0540
      9  C          7.5770   -1.3280   -1.7650 C.2     1  UNL1        0.0510
     10  C          8.2450   -2.8860   -0.0900 C.2     1  UNL1        0.1660
     11  C          8.1220   -2.5610   -1.4230 C.2     1  UNL1        0.1650
     12  O          8.8050   -4.1430   -0.0140 O.2     1  UNL1       -0.4540
     13  O          8.6160   -3.6370   -2.1450 O.2     1  UNL1       -0.4540
     14  C          9.1430   -4.6240   -1.2900 C.3     1  UNL1        0.4680
@<TRIPOS>BOND
     1    13    11    1
     2    13    14    1
     3     9    11    2
     4     9     7    1
     5    11    10    1
     6    14    12    1
     7     7     6    2
     8    10    12    1
     9    10     8    2
    10     6     8    1
    11     6     5    1
    12     3     2    1
    13     5     1    1
    14     2     1    1
    15     2     4    2
