@<TRIPOS>MOLECULE
/home/cewinharhar/GITHUB/reincatalyze/data/processed/docking_pred/2023-May-31-1438_sub9_nm5_bs15_s42_ex16_mel10_mts1000_k50_ec05_g099_lra9e-4_lrc3e-3/21195065f8807259401ec3420f3b6dd683f2acc0_ligand_9.pdbqt
 14 15 0 0 0
SMALL
GASTEIGER

@<TRIPOS>ATOM
      1  C          5.5400    1.9360    1.2660 C.3     1  UNL1        0.0800
      2  C          5.1160    0.7180    2.0110 C.2     1  UNL1        0.1300
      3  C          6.0290   -0.4410    2.1970 C.3     1  UNL1        0.0870
      4  O          3.9980    0.6360    2.4930 O.2     1  UNL1       -0.3000
      5  C          5.4090    1.7390   -0.2310 C.3     1  UNL1        0.0430
      6  C          6.5740    1.0340   -0.7940 C.2     1  UNL1       -0.0440
      7  C          7.8820    1.4620   -0.5400 C.2     1  UNL1        0.0080
      8  C          6.3830   -0.0740   -1.5870 C.2     1  UNL1        0.0540
      9  C          8.9370    0.7600   -1.0950 C.2     1  UNL1        0.0510
     10  C          7.4530   -0.7810   -2.1450 C.2     1  UNL1        0.1660
     11  C          8.7400   -0.3600   -1.8970 C.2     1  UNL1        0.1650
     12  O          7.5230   -1.8940   -2.9550 O.2     1  UNL1       -0.4540
     13  O          9.5840   -1.2340   -2.5660 O.2     1  UNL1       -0.4540
     14  C          8.8570   -2.2750   -3.1740 C.3     1  UNL1        0.4680
@<TRIPOS>BOND
     1    14    12    1
     2    14    13    1
     3    12    10    1
     4    13    11    1
     5    10    11    2
     6    10     8    1
     7    11     9    1
     8     8     6    2
     9     9     7    2
    10     6     7    1
    11     6     5    1
    12     5     1    1
    13     1     2    1
    14     2     3    1
    15     2     4    2
