MODEL 1
REMARK VINA RESULT:      -7.6      0.000      0.000
REMARK SMILES CC(=O)CCc1ccc2c(c1)OCO2
REMARK SMILES IDX 4 1 2 2 1 3 3 4 5 5 6 6 7 7 11 8 8 9 10 10 9 11 12 12 14 13
REMARK SMILES IDX 13 14
REMARK H PARENT
REMARK Flexibility Score: inf
ROOT
ATOM      1  C   UNL     1       5.540   1.936   1.266  1.00  0.00     0.080 C 
ENDROOT
BRANCH   1   2
ATOM      2  C   UNL     1       5.116   0.718   2.011  1.00  0.00     0.130 C 
ATOM      3  C   UNL     1       6.029  -0.441   2.197  1.00  0.00     0.087 C 
ATOM      4  O   UNL     1       3.998   0.636   2.493  1.00  0.00    -0.300 OA
ENDBRANCH   1   2
BRANCH   1   5
ATOM      5  C   UNL     1       5.409   1.739  -0.231  1.00  0.00     0.043 C 
BRANCH   5   6
ATOM      6  C   UNL     1       6.574   1.034  -0.794  1.00  0.00    -0.044 A 
ATOM      7  C   UNL     1       7.882   1.462  -0.540  1.00  0.00     0.008 A 
ATOM      8  C   UNL     1       6.383  -0.074  -1.587  1.00  0.00     0.054 A 
ATOM      9  C   UNL     1       8.937   0.760  -1.095  1.00  0.00     0.051 A 
ATOM     10  C   UNL     1       7.453  -0.781  -2.145  1.00  0.00     0.166 A 
ATOM     11  C   UNL     1       8.740  -0.360  -1.897  1.00  0.00     0.165 A 
ATOM     12  O   UNL     1       7.523  -1.894  -2.955  1.00  0.00    -0.454 OA
ATOM     13  O   UNL     1       9.584  -1.234  -2.566  1.00  0.00    -0.454 OA
ATOM     14  C   UNL     1       8.857  -2.275  -3.174  1.00  0.00     0.468 C 
ENDBRANCH   5   6
ENDBRANCH   1   5
TORSDOF 3
ENDMDL
MODEL 2
REMARK VINA RESULT:      -7.4      1.960      2.439
REMARK SMILES CC(=O)CCc1ccc2c(c1)OCO2
REMARK SMILES IDX 4 1 2 2 1 3 3 4 5 5 6 6 7 7 11 8 8 9 10 10 9 11 12 12 14 13
REMARK SMILES IDX 13 14
REMARK H PARENT
REMARK Flexibility Score: inf
ROOT
ATOM      1  C   UNL     1       5.836   1.314  -0.271  1.00  0.00     0.080 C 
ENDROOT
BRANCH   1   2
ATOM      2  C   UNL     1       5.198   1.234   1.072  1.00  0.00     0.130 C 
ATOM      3  C   UNL     1       5.369   0.044   1.949  1.00  0.00     0.087 C 
ATOM      4  O   UNL     1       4.512   2.150   1.495  1.00  0.00    -0.300 OA
ENDBRANCH   1   2
BRANCH   1   5
ATOM      5  C   UNL     1       7.323   1.031  -0.192  1.00  0.00     0.043 C 
BRANCH   5   6
ATOM      6  C   UNL     1       7.668  -0.258  -0.820  1.00  0.00    -0.044 A 
ATOM      7  C   UNL     1       7.668  -0.420  -2.210  1.00  0.00     0.008 A 
ATOM      8  C   UNL     1       8.004  -1.333  -0.029  1.00  0.00     0.054 A 
ATOM      9  C   UNL     1       8.001  -1.652  -2.742  1.00  0.00     0.051 A 
ATOM     10  C   UNL     1       8.340  -2.577  -0.572  1.00  0.00     0.166 A 
ATOM     11  C   UNL     1       8.339  -2.738  -1.940  1.00  0.00     0.165 A 
ATOM     12  O   UNL     1       8.703  -3.781  -0.008  1.00  0.00    -0.454 OA
ATOM     13  O   UNL     1       8.706  -4.051  -2.189  1.00  0.00    -0.454 OA
ATOM     14  C   UNL     1       9.034  -4.722  -0.997  1.00  0.00     0.468 C 
ENDBRANCH   5   6
ENDBRANCH   1   5
TORSDOF 3
ENDMDL
MODEL 3
REMARK VINA RESULT:      -7.2      2.065      2.644
REMARK SMILES CC(=O)CCc1ccc2c(c1)OCO2
REMARK SMILES IDX 4 1 2 2 1 3 3 4 5 5 6 6 7 7 11 8 8 9 10 10 9 11 12 12 14 13
REMARK SMILES IDX 13 14
REMARK H PARENT
REMARK Flexibility Score: inf
ROOT
ATOM      1  C   UNL     1       5.414  -0.076   2.023  1.00  0.00     0.080 C 
ENDROOT
BRANCH   1   2
ATOM      2  C   UNL     1       4.561   1.118   1.769  1.00  0.00     0.130 C 
ATOM      3  C   UNL     1       4.905   2.114   0.720  1.00  0.00     0.087 C 
ATOM      4  O   UNL     1       3.547   1.314   2.420  1.00  0.00    -0.300 OA
ENDBRANCH   1   2
BRANCH   1   5
ATOM      5  C   UNL     1       6.850   0.174   1.607  1.00  0.00     0.043 C 
BRANCH   5   6
ATOM      6  C   UNL     1       7.280  -0.751   0.543  1.00  0.00    -0.044 A 
ATOM      7  C   UNL     1       7.156  -0.420  -0.811  1.00  0.00     0.008 A 
ATOM      8  C   UNL     1       7.820  -1.972   0.878  1.00  0.00     0.054 A 
ATOM      9  C   UNL     1       7.577  -1.328  -1.765  1.00  0.00     0.051 A 
ATOM     10  C   UNL     1       8.245  -2.886  -0.090  1.00  0.00     0.166 A 
ATOM     11  C   UNL     1       8.122  -2.561  -1.423  1.00  0.00     0.165 A 
ATOM     12  O   UNL     1       8.805  -4.143  -0.014  1.00  0.00    -0.454 OA
ATOM     13  O   UNL     1       8.616  -3.637  -2.145  1.00  0.00    -0.454 OA
ATOM     14  C   UNL     1       9.143  -4.624  -1.290  1.00  0.00     0.468 C 
ENDBRANCH   5   6
ENDBRANCH   1   5
TORSDOF 3
ENDMDL
MODEL 4
REMARK VINA RESULT:      -7.1      1.258      1.473
REMARK SMILES CC(=O)CCc1ccc2c(c1)OCO2
REMARK SMILES IDX 4 1 2 2 1 3 3 4 5 5 6 6 7 7 11 8 8 9 10 10 9 11 12 12 14 13
REMARK SMILES IDX 13 14
REMARK H PARENT
REMARK Flexibility Score: inf
ROOT
ATOM      1  C   UNL     1       6.381   1.174   0.958  1.00  0.00     0.080 C 
ENDROOT
BRANCH   1   2
ATOM      2  C   UNL     1       5.639   0.353   1.956  1.00  0.00     0.130 C 
ATOM      3  C   UNL     1       6.228  -0.877   2.548  1.00  0.00     0.087 C 
ATOM      4  O   UNL     1       4.517   0.670   2.317  1.00  0.00    -0.300 OA
ENDBRANCH   1   2
BRANCH   1   5
ATOM      5  C   UNL     1       5.875   0.921  -0.448  1.00  0.00     0.043 C 
BRANCH   5   6
ATOM      6  C   UNL     1       6.817   0.098  -1.228  1.00  0.00    -0.044 A 
ATOM      7  C   UNL     1       7.483   0.608  -2.348  1.00  0.00     0.008 A 
ATOM      8  C   UNL     1       7.057  -1.205  -0.853  1.00  0.00     0.054 A 
ATOM      9  C   UNL     1       8.356  -0.211  -3.040  1.00  0.00     0.051 A 
ATOM     10  C   UNL     1       7.941  -2.028  -1.556  1.00  0.00     0.166 A 
ATOM     11  C   UNL     1       8.596  -1.527  -2.659  1.00  0.00     0.165 A 
ATOM     12  O   UNL     1       8.343  -3.336  -1.387  1.00  0.00    -0.454 OA
ATOM     13  O   UNL     1       9.395  -2.548  -3.149  1.00  0.00    -0.454 OA
ATOM     14  C   UNL     1       9.334  -3.684  -2.319  1.00  0.00     0.468 C 
ENDBRANCH   5   6
ENDBRANCH   1   5
TORSDOF 3
ENDMDL
MODEL 5
REMARK VINA RESULT:      -6.9      2.035      2.674
REMARK SMILES CC(=O)CCc1ccc2c(c1)OCO2
REMARK SMILES IDX 4 1 2 2 1 3 3 4 5 5 6 6 7 7 11 8 8 9 10 10 9 11 12 12 14 13
REMARK SMILES IDX 13 14
REMARK H PARENT
REMARK Flexibility Score: inf
ROOT
ATOM      1  C   UNL     1       6.464   0.324   1.207  1.00  0.00     0.080 C 
ENDROOT
BRANCH   1   2
ATOM      2  C   UNL     1       5.197   1.069   1.453  1.00  0.00     0.130 C 
ATOM      3  C   UNL     1       4.737   2.149   0.541  1.00  0.00     0.087 C 
ATOM      4  O   UNL     1       4.497   0.811   2.419  1.00  0.00    -0.300 OA
ENDBRANCH   1   2
BRANCH   1   5
ATOM      5  C   UNL     1       6.995   0.587  -0.188  1.00  0.00     0.043 C 
BRANCH   5   6
ATOM      6  C   UNL     1       7.516  -0.641  -0.815  1.00  0.00    -0.044 A 
ATOM      7  C   UNL     1       7.687  -0.741  -2.200  1.00  0.00     0.008 A 
ATOM      8  C   UNL     1       7.847  -1.721  -0.028  1.00  0.00     0.054 A 
ATOM      9  C   UNL     1       8.180  -1.918  -2.732  1.00  0.00     0.051 A 
ATOM     10  C   UNL     1       8.346  -2.909  -0.571  1.00  0.00     0.166 A 
ATOM     11  C   UNL     1       8.514  -3.008  -1.934  1.00  0.00     0.165 A 
ATOM     12  O   UNL     1       8.742  -4.104  -0.010  1.00  0.00    -0.454 OA
ATOM     13  O   UNL     1       9.015  -4.276  -2.185  1.00  0.00    -0.454 OA
ATOM     14  C   UNL     1       9.261  -4.972  -0.986  1.00  0.00     0.468 C 
ENDBRANCH   5   6
ENDBRANCH   1   5
TORSDOF 3
ENDMDL
