@<TRIPOS>MOLECULE
/home/cewinharhar/GITHUB/reincatalyze/data/processed/docking_pred/2023-May-31-1438_sub9_nm5_bs15_s42_ex16_mel10_mts1000_k50_ec05_g099_lra9e-4_lrc3e-3/22478e644e92021fed45641255b53d2cc77f0790_ligand_9.pdbqt
 14 15 0 0 0
SMALL
GASTEIGER

@<TRIPOS>ATOM
      1  C          6.3310    1.2220    0.9660 C.3     1  UNL1        0.0800
      2  C          5.6550    0.3580    1.9740 C.2     1  UNL1        0.1300
      3  C          6.3090   -0.8590    2.5250 C.3     1  UNL1        0.0870
      4  O          4.5360    0.6270    2.3800 O.2     1  UNL1       -0.3000
      5  C          5.8140    0.9440   -0.4310 C.3     1  UNL1        0.0430
      6  C          6.7610    0.1260   -1.2110 C.2     1  UNL1       -0.0440
      7  C          7.4240    0.6410   -2.3310 C.2     1  UNL1        0.0080
      8  C          7.0070   -1.1750   -0.8370 C.2     1  UNL1        0.0540
      9  C          8.3020   -0.1720   -3.0240 C.2     1  UNL1        0.0510
     10  C          7.8960   -1.9930   -1.5410 C.2     1  UNL1        0.1660
     11  C          8.5490   -1.4880   -2.6430 C.2     1  UNL1        0.1650
     12  O          8.3050   -3.2990   -1.3730 O.2     1  UNL1       -0.4540
     13  O          9.3540   -2.5040   -3.1340 O.2     1  UNL1       -0.4540
     14  C          9.2980   -3.6410   -2.3050 C.3     1  UNL1        0.4680
@<TRIPOS>BOND
     1    13    11    1
     2    13    14    1
     3     9    11    2
     4     9     7    1
     5    11    10    1
     6     7     6    2
     7    14    12    1
     8    10    12    1
     9    10     8    2
    10     6     8    1
    11     6     5    1
    12     5     1    1
    13     1     2    1
    14     2     4    2
    15     2     3    1
