@<TRIPOS>MOLECULE
/home/cewinharhar/GITHUB/reincatalyze/data/processed/docking_pred/2023-May-31-1438_sub9_nm5_bs15_s42_ex16_mel10_mts1000_k50_ec05_g099_lra9e-4_lrc3e-3/225d7738cc918e3754e3779366d54ccb252183f1_ligand_9.pdbqt
 14 15 0 0 0
SMALL
GASTEIGER

@<TRIPOS>ATOM
      1  C          6.3650    1.2160    0.9040 C.3     1  UNL1        0.0800
      2  C          5.6690    0.3930    1.9320 C.2     1  UNL1        0.1300
      3  C          6.2930   -0.8280    2.5080 C.3     1  UNL1        0.0870
      4  O          4.5580    0.7000    2.3330 O.2     1  UNL1       -0.3000
      5  C          5.8510    0.9080   -0.4880 C.3     1  UNL1        0.0430
      6  C          6.8080    0.0930   -1.2570 C.2     1  UNL1       -0.0440
      7  C          7.5040    0.6180   -2.3520 C.2     1  UNL1        0.0080
      8  C          7.0320   -1.2160   -0.8970 C.2     1  UNL1        0.0540
      9  C          8.3910   -0.1940   -3.0350 C.2     1  UNL1        0.0510
     10  C          7.9310   -2.0330   -1.5910 C.2     1  UNL1        0.1660
     11  C          8.6150   -1.5180   -2.6690 C.2     1  UNL1        0.1650
     12  O          8.3220   -3.3460   -1.4330 O.2     1  UNL1       -0.4540
     13  O          9.4220   -2.5350   -3.1550 O.2     1  UNL1       -0.4540
     14  C          9.3350   -3.6830   -2.3460 C.3     1  UNL1        0.4680
@<TRIPOS>BOND
     1    13    11    1
     2    13    14    1
     3     9    11    2
     4     9     7    1
     5    11    10    1
     6     7     6    2
     7    14    12    1
     8    10    12    1
     9    10     8    2
    10     6     8    1
    11     6     5    1
    12     5     1    1
    13     1     2    1
    14     2     4    2
    15     2     3    1
