@<TRIPOS>MOLECULE
/home/cewinharhar/GITHUB/reincatalyze/data/processed/docking_pred/2023-May-31-1438_sub9_nm5_bs15_s42_ex16_mel10_mts1000_k50_ec05_g099_lra9e-4_lrc3e-3/2368d29bb7bbfa5e31d33bb3936e2ea89938fe66_ligand_9.pdbqt
 14 15 0 0 0
SMALL
GASTEIGER

@<TRIPOS>ATOM
      1  C          5.8430    1.6150    0.8820 C.3     1  UNL1        0.0800
      2  C          5.3940    0.5970    1.8720 C.2     1  UNL1        0.1300
      3  C          6.2390   -0.5750    2.2250 C.3     1  UNL1        0.0870
      4  O          4.3110    0.6970    2.4260 O.2     1  UNL1       -0.3000
      5  C          5.7570    1.0810   -0.5340 C.3     1  UNL1        0.0430
      6  C          7.0070    0.4170   -0.9460 C.2     1  UNL1       -0.0440
      7  C          8.2560    1.0120   -0.7330 C.2     1  UNL1        0.0080
      8  C          6.9570   -0.8170   -1.5520 C.2     1  UNL1        0.0540
      9  C          9.3960    0.3420   -1.1390 C.2     1  UNL1        0.0510
     10  C          8.1120   -1.4910   -1.9600 C.2     1  UNL1        0.1660
     11  C          9.3420   -0.9060   -1.7520 C.2     1  UNL1        0.1650
     12  O          8.3230   -2.7070   -2.5750 O.2     1  UNL1       -0.4540
     13  O         10.2920   -1.7850   -2.2480 O.2     1  UNL1       -0.4540
     14  C          9.6960   -2.9790   -2.6960 C.3     1  UNL1        0.4680
@<TRIPOS>BOND
     1    14    12    1
     2    14    13    1
     3    12    10    1
     4    13    11    1
     5    10    11    2
     6    10     8    1
     7    11     9    1
     8     8     6    2
     9     9     7    2
    10     6     7    1
    11     6     5    1
    12     5     1    1
    13     1     2    1
    14     2     3    1
    15     2     4    2
