@<TRIPOS>MOLECULE
/home/cewinharhar/GITHUB/reincatalyze/data/processed/docking_pred/2023-May-31-1438_sub9_nm5_bs15_s42_ex16_mel10_mts1000_k50_ec05_g099_lra9e-4_lrc3e-3/2368d29bb7bbfa5e31d33bb3936e2ea89938fe66_ligand_9.pdbqt
 14 15 0 0 0
SMALL
GASTEIGER

@<TRIPOS>ATOM
      1  C          5.8790    1.2730   -0.3230 C.3     1  UNL1        0.0800
      2  C          5.2860    1.1390    1.0370 C.2     1  UNL1        0.1300
      3  C          5.5820   -0.0320    1.9060 C.3     1  UNL1        0.0870
      4  O          4.5330    1.9910    1.4790 O.2     1  UNL1       -0.3000
      5  C          7.3940    1.2640   -0.2650 C.3     1  UNL1        0.0430
      6  C          7.9640    0.1570   -1.0540 C.2     1  UNL1       -0.0440
      7  C          7.3760   -0.2690   -2.2510 C.2     1  UNL1        0.0080
      8  C          9.1020   -0.4790   -0.6140 C.2     1  UNL1        0.0540
      9  C          7.9560   -1.3130   -2.9490 C.2     1  UNL1        0.0510
     10  C          9.6850   -1.5330   -1.3230 C.2     1  UNL1        0.1660
     11  C          9.1070   -1.9540   -2.5000 C.2     1  UNL1        0.1650
     12  O         10.7980   -2.3160   -1.0990 O.2     1  UNL1       -0.4540
     13  O          9.8850   -2.9960   -2.9790 O.2     1  UNL1       -0.4540
     14  C         11.0180   -3.1980   -2.1690 C.3     1  UNL1        0.4680
@<TRIPOS>BOND
     1    13    11    1
     2    13    14    1
     3     9    11    2
     4     9     7    1
     5    11    10    1
     6     7     6    2
     7    14    12    1
     8    10    12    1
     9    10     8    2
    10     6     8    1
    11     6     5    1
    12     1     5    1
    13     1     2    1
    14     2     4    2
    15     2     3    1
