MODEL 1
REMARK VINA RESULT:      -8.2      0.000      0.000
REMARK SMILES CC(=O)CCc1ccc2c(c1)OCO2
REMARK SMILES IDX 4 1 2 2 1 3 3 4 5 5 6 6 7 7 11 8 8 9 10 10 9 11 12 12 14 13
REMARK SMILES IDX 13 14
REMARK H PARENT
REMARK Flexibility Score: inf
ROOT
ATOM      1  C   UNL     1       5.843   1.615   0.882  1.00  0.00     0.080 C 
ENDROOT
BRANCH   1   2
ATOM      2  C   UNL     1       5.394   0.597   1.872  1.00  0.00     0.130 C 
ATOM      3  C   UNL     1       6.239  -0.575   2.225  1.00  0.00     0.087 C 
ATOM      4  O   UNL     1       4.311   0.697   2.426  1.00  0.00    -0.300 OA
ENDBRANCH   1   2
BRANCH   1   5
ATOM      5  C   UNL     1       5.757   1.081  -0.534  1.00  0.00     0.043 C 
BRANCH   5   6
ATOM      6  C   UNL     1       7.007   0.417  -0.946  1.00  0.00    -0.044 A 
ATOM      7  C   UNL     1       8.256   1.012  -0.733  1.00  0.00     0.008 A 
ATOM      8  C   UNL     1       6.957  -0.817  -1.552  1.00  0.00     0.054 A 
ATOM      9  C   UNL     1       9.396   0.342  -1.139  1.00  0.00     0.051 A 
ATOM     10  C   UNL     1       8.112  -1.491  -1.960  1.00  0.00     0.166 A 
ATOM     11  C   UNL     1       9.342  -0.906  -1.752  1.00  0.00     0.165 A 
ATOM     12  O   UNL     1       8.323  -2.707  -2.575  1.00  0.00    -0.454 OA
ATOM     13  O   UNL     1      10.292  -1.785  -2.248  1.00  0.00    -0.454 OA
ATOM     14  C   UNL     1       9.696  -2.979  -2.696  1.00  0.00     0.468 C 
ENDBRANCH   5   6
ENDBRANCH   1   5
TORSDOF 3
ENDMDL
MODEL 2
REMARK VINA RESULT:      -7.7      1.099      1.803
REMARK SMILES CC(=O)CCc1ccc2c(c1)OCO2
REMARK SMILES IDX 4 1 2 2 1 3 3 4 5 5 6 6 7 7 11 8 8 9 10 10 9 11 12 12 14 13
REMARK SMILES IDX 13 14
REMARK H PARENT
REMARK Flexibility Score: inf
ROOT
ATOM      1  C   UNL     1       5.879   1.273  -0.323  1.00  0.00     0.080 C 
ENDROOT
BRANCH   1   2
ATOM      2  C   UNL     1       5.286   1.139   1.037  1.00  0.00     0.130 C 
ATOM      3  C   UNL     1       5.582  -0.032   1.906  1.00  0.00     0.087 C 
ATOM      4  O   UNL     1       4.533   1.991   1.479  1.00  0.00    -0.300 OA
ENDBRANCH   1   2
BRANCH   1   5
ATOM      5  C   UNL     1       7.394   1.264  -0.265  1.00  0.00     0.043 C 
BRANCH   5   6
ATOM      6  C   UNL     1       7.964   0.157  -1.054  1.00  0.00    -0.044 A 
ATOM      7  C   UNL     1       7.376  -0.269  -2.251  1.00  0.00     0.008 A 
ATOM      8  C   UNL     1       9.102  -0.479  -0.614  1.00  0.00     0.054 A 
ATOM      9  C   UNL     1       7.956  -1.313  -2.949  1.00  0.00     0.051 A 
ATOM     10  C   UNL     1       9.685  -1.533  -1.323  1.00  0.00     0.166 A 
ATOM     11  C   UNL     1       9.107  -1.954  -2.500  1.00  0.00     0.165 A 
ATOM     12  O   UNL     1      10.798  -2.316  -1.099  1.00  0.00    -0.454 OA
ATOM     13  O   UNL     1       9.885  -2.996  -2.979  1.00  0.00    -0.454 OA
ATOM     14  C   UNL     1      11.018  -3.198  -2.169  1.00  0.00     0.468 C 
ENDBRANCH   5   6
ENDBRANCH   1   5
TORSDOF 3
ENDMDL
MODEL 3
REMARK VINA RESULT:      -7.5      1.244      2.036
REMARK SMILES CC(=O)CCc1ccc2c(c1)OCO2
REMARK SMILES IDX 4 1 2 2 1 3 3 4 5 5 6 6 7 7 11 8 8 9 10 10 9 11 12 12 14 13
REMARK SMILES IDX 13 14
REMARK H PARENT
REMARK Flexibility Score: inf
ROOT
ATOM      1  C   UNL     1       6.824   0.354   0.986  1.00  0.00     0.080 C 
ENDROOT
BRANCH   1   2
ATOM      2  C   UNL     1       5.513   0.998   1.277  1.00  0.00     0.130 C 
ATOM      3  C   UNL     1       4.981   2.102   0.433  1.00  0.00     0.087 C 
ATOM      4  O   UNL     1       4.833   0.636   2.223  1.00  0.00    -0.300 OA
ENDBRANCH   1   2
BRANCH   1   5
ATOM      5  C   UNL     1       7.467   0.948  -0.251  1.00  0.00     0.043 C 
BRANCH   5   6
ATOM      6  C   UNL     1       8.115  -0.084  -1.080  1.00  0.00    -0.044 A 
ATOM      7  C   UNL     1       7.685  -0.353  -2.384  1.00  0.00     0.008 A 
ATOM      8  C   UNL     1       9.171  -0.805  -0.570  1.00  0.00     0.054 A 
ATOM      9  C   UNL     1       8.331  -1.333  -3.115  1.00  0.00     0.051 A 
ATOM     10  C   UNL     1       9.822  -1.794  -1.314  1.00  0.00     0.166 A 
ATOM     11  C   UNL     1       9.398  -2.060  -2.597  1.00  0.00     0.165 A 
ATOM     12  O   UNL     1      10.878  -2.636  -1.036  1.00  0.00    -0.454 OA
ATOM     13  O   UNL     1      10.212  -3.070  -3.086  1.00  0.00    -0.454 OA
ATOM     14  C   UNL     1      11.221  -3.402  -2.162  1.00  0.00     0.468 C 
ENDBRANCH   5   6
ENDBRANCH   1   5
TORSDOF 3
ENDMDL
MODEL 4
REMARK VINA RESULT:      -7.4      1.420      2.161
REMARK SMILES CC(=O)CCc1ccc2c(c1)OCO2
REMARK SMILES IDX 4 1 2 2 1 3 3 4 5 5 6 6 7 7 11 8 8 9 10 10 9 11 12 12 14 13
REMARK SMILES IDX 13 14
REMARK H PARENT
REMARK Flexibility Score: inf
ROOT
ATOM      1  C   UNL     1       6.624   0.221   1.770  1.00  0.00     0.080 C 
ENDROOT
BRANCH   1   2
ATOM      2  C   UNL     1       5.328   0.937   1.600  1.00  0.00     0.130 C 
ATOM      3  C   UNL     1       5.118   1.923   0.506  1.00  0.00     0.087 C 
ATOM      4  O   UNL     1       4.396   0.733   2.360  1.00  0.00    -0.300 OA
ENDBRANCH   1   2
BRANCH   1   5
ATOM      5  C   UNL     1       6.498  -1.242   1.394  1.00  0.00     0.043 C 
BRANCH   5   6
ATOM      6  C   UNL     1       7.241  -1.555   0.160  1.00  0.00    -0.044 A 
ATOM      7  C   UNL     1       6.831  -1.067  -1.086  1.00  0.00     0.008 A 
ATOM      8  C   UNL     1       8.367  -2.343   0.224  1.00  0.00     0.054 A 
ATOM      9  C   UNL     1       7.569  -1.394  -2.209  1.00  0.00     0.051 A 
ATOM     10  C   UNL     1       9.110  -2.670  -0.914  1.00  0.00     0.166 A 
ATOM     11  C   UNL     1       8.707  -2.192  -2.141  1.00  0.00     0.165 A 
ATOM     12  O   UNL     1      10.247  -3.424  -1.110  1.00  0.00    -0.454 OA
ATOM     13  O   UNL     1       9.615  -2.666  -3.075  1.00  0.00    -0.454 OA
ATOM     14  C   UNL     1      10.659  -3.377  -2.452  1.00  0.00     0.468 C 
ENDBRANCH   5   6
ENDBRANCH   1   5
TORSDOF 3
ENDMDL
MODEL 5
REMARK VINA RESULT:      -7.3      1.939      2.472
REMARK SMILES CC(=O)CCc1ccc2c(c1)OCO2
REMARK SMILES IDX 4 1 2 2 1 3 3 4 5 5 6 6 7 7 11 8 8 9 10 10 9 11 12 12 14 13
REMARK SMILES IDX 13 14
REMARK H PARENT
REMARK Flexibility Score: inf
ROOT
ATOM      1  C   UNL     1       6.158  -0.347   1.840  1.00  0.00     0.080 C 
ENDROOT
BRANCH   1   2
ATOM      2  C   UNL     1       5.111   0.709   1.743  1.00  0.00     0.130 C 
ATOM      3  C   UNL     1       5.143   1.745   0.676  1.00  0.00     0.087 C 
ATOM      4  O   UNL     1       4.191   0.755   2.544  1.00  0.00    -0.300 OA
ENDBRANCH   1   2
BRANCH   1   5
ATOM      5  C   UNL     1       6.459  -0.949   0.482  1.00  0.00     0.043 C 
BRANCH   5   6
ATOM      6  C   UNL     1       7.886  -0.827   0.134  1.00  0.00    -0.044 A 
ATOM      7  C   UNL     1       8.367   0.250  -0.618  1.00  0.00     0.008 A 
ATOM      8  C   UNL     1       8.776  -1.788   0.556  1.00  0.00     0.054 A 
ATOM      9  C   UNL     1       9.717   0.313  -0.914  1.00  0.00     0.051 A 
ATOM     10  C   UNL     1      10.139  -1.720   0.256  1.00  0.00     0.166 A 
ATOM     11  C   UNL     1      10.613  -0.661  -0.486  1.00  0.00     0.165 A 
ATOM     12  O   UNL     1      11.209  -2.537   0.554  1.00  0.00    -0.454 OA
ATOM     13  O   UNL     1      11.979  -0.851  -0.628  1.00  0.00    -0.454 OA
ATOM     14  C   UNL     1      12.413  -1.980   0.092  1.00  0.00     0.468 C 
ENDBRANCH   5   6
ENDBRANCH   1   5
TORSDOF 3
ENDMDL
