MODEL 1
REMARK VINA RESULT:      -7.7      0.000      0.000
REMARK SMILES CC(=O)CCc1ccc2c(c1)OCO2
REMARK SMILES IDX 4 1 2 2 1 3 3 4 5 5 6 6 7 7 11 8 8 9 10 10 9 11 12 12 14 13
REMARK SMILES IDX 13 14
REMARK H PARENT
REMARK Flexibility Score: inf
ROOT
ATOM      1  C   UNL     1       5.500   1.945   1.247  1.00  0.00     0.080 C 
ENDROOT
BRANCH   1   2
ATOM      2  C   UNL     1       5.080   0.729   1.997  1.00  0.00     0.130 C 
ATOM      3  C   UNL     1       5.991  -0.435   2.169  1.00  0.00     0.087 C 
ATOM      4  O   UNL     1       3.969   0.652   2.496  1.00  0.00    -0.300 OA
ENDBRANCH   1   2
BRANCH   1   5
ATOM      5  C   UNL     1       5.378   1.738  -0.250  1.00  0.00     0.043 C 
BRANCH   5   6
ATOM      6  C   UNL     1       6.550   1.036  -0.802  1.00  0.00    -0.044 A 
ATOM      7  C   UNL     1       7.855   1.466  -0.534  1.00  0.00     0.008 A 
ATOM      8  C   UNL     1       6.370  -0.071  -1.599  1.00  0.00     0.054 A 
ATOM      9  C   UNL     1       8.917   0.768  -1.079  1.00  0.00     0.051 A 
ATOM     10  C   UNL     1       7.447  -0.774  -2.147  1.00  0.00     0.166 A 
ATOM     11  C   UNL     1       8.731  -0.351  -1.885  1.00  0.00     0.165 A 
ATOM     12  O   UNL     1       7.528  -1.886  -2.958  1.00  0.00    -0.454 OA
ATOM     13  O   UNL     1       9.583  -1.222  -2.546  1.00  0.00    -0.454 OA
ATOM     14  C   UNL     1       8.865  -2.264  -3.164  1.00  0.00     0.468 C 
ENDBRANCH   5   6
ENDBRANCH   1   5
TORSDOF 3
ENDMDL
MODEL 2
REMARK VINA RESULT:      -7.5      1.892      2.342
REMARK SMILES CC(=O)CCc1ccc2c(c1)OCO2
REMARK SMILES IDX 4 1 2 2 1 3 3 4 5 5 6 6 7 7 11 8 8 9 10 10 9 11 12 12 14 13
REMARK SMILES IDX 13 14
REMARK H PARENT
REMARK Flexibility Score: inf
ROOT
ATOM      1  C   UNL     1       5.668   1.308  -0.269  1.00  0.00     0.080 C 
ENDROOT
BRANCH   1   2
ATOM      2  C   UNL     1       5.092   1.248   1.104  1.00  0.00     0.130 C 
ATOM      3  C   UNL     1       5.396   0.125   2.029  1.00  0.00     0.087 C 
ATOM      4  O   UNL     1       4.349   2.127   1.510  1.00  0.00    -0.300 OA
ENDBRANCH   1   2
BRANCH   1   5
ATOM      5  C   UNL     1       7.171   1.113  -0.244  1.00  0.00     0.043 C 
BRANCH   5   6
ATOM      6  C   UNL     1       7.567  -0.161  -0.871  1.00  0.00    -0.044 A 
ATOM      7  C   UNL     1       7.673  -0.292  -2.261  1.00  0.00     0.008 A 
ATOM      8  C   UNL     1       7.843  -1.253  -0.081  1.00  0.00     0.054 A 
ATOM      9  C   UNL     1       8.050  -1.512  -2.793  1.00  0.00     0.051 A 
ATOM     10  C   UNL     1       8.224  -2.484  -0.624  1.00  0.00     0.166 A 
ATOM     11  C   UNL     1       8.328  -2.614  -1.991  1.00  0.00     0.165 A 
ATOM     12  O   UNL     1       8.547  -3.700  -0.060  1.00  0.00    -0.454 OA
ATOM     13  O   UNL     1       8.717  -3.921  -2.240  1.00  0.00    -0.454 OA
ATOM     14  C   UNL     1       8.955  -4.618  -1.041  1.00  0.00     0.468 C 
ENDBRANCH   5   6
ENDBRANCH   1   5
TORSDOF 3
ENDMDL
MODEL 3
REMARK VINA RESULT:      -7.2      2.101      2.632
REMARK SMILES CC(=O)CCc1ccc2c(c1)OCO2
REMARK SMILES IDX 4 1 2 2 1 3 3 4 5 5 6 6 7 7 11 8 8 9 10 10 9 11 12 12 14 13
REMARK SMILES IDX 13 14
REMARK H PARENT
REMARK Flexibility Score: inf
ROOT
ATOM      1  C   UNL     1       5.566   0.001   1.915  1.00  0.00     0.080 C 
ENDROOT
BRANCH   1   2
ATOM      2  C   UNL     1       4.677   1.162   1.631  1.00  0.00     0.130 C 
ATOM      3  C   UNL     1       4.956   2.104   0.514  1.00  0.00     0.087 C 
ATOM      4  O   UNL     1       3.688   1.376   2.313  1.00  0.00    -0.300 OA
ENDBRANCH   1   2
BRANCH   1   5
ATOM      5  C   UNL     1       6.981   0.261   1.438  1.00  0.00     0.043 C 
BRANCH   5   6
ATOM      6  C   UNL     1       7.396  -0.706   0.407  1.00  0.00    -0.044 A 
ATOM      7  C   UNL     1       7.318  -0.403  -0.957  1.00  0.00     0.008 A 
ATOM      8  C   UNL     1       7.877  -1.940   0.783  1.00  0.00     0.054 A 
ATOM      9  C   UNL     1       7.723  -1.350  -1.880  1.00  0.00     0.051 A 
ATOM     10  C   UNL     1       8.285  -2.894  -0.154  1.00  0.00     0.166 A 
ATOM     11  C   UNL     1       8.208  -2.597  -1.496  1.00  0.00     0.165 A 
ATOM     12  O   UNL     1       8.790  -4.172  -0.035  1.00  0.00    -0.454 OA
ATOM     13  O   UNL     1       8.672  -3.709  -2.181  1.00  0.00    -0.454 OA
ATOM     14  C   UNL     1       9.136  -4.696  -1.292  1.00  0.00     0.468 C 
ENDBRANCH   5   6
ENDBRANCH   1   5
TORSDOF 3
ENDMDL
MODEL 4
REMARK VINA RESULT:      -7.1      1.271      1.494
REMARK SMILES CC(=O)CCc1ccc2c(c1)OCO2
REMARK SMILES IDX 4 1 2 2 1 3 3 4 5 5 6 6 7 7 11 8 8 9 10 10 9 11 12 12 14 13
REMARK SMILES IDX 13 14
REMARK H PARENT
REMARK Flexibility Score: inf
ROOT
ATOM      1  C   UNL     1       6.405   1.197   0.933  1.00  0.00     0.080 C 
ENDROOT
BRANCH   1   2
ATOM      2  C   UNL     1       5.667   0.376   1.934  1.00  0.00     0.130 C 
ATOM      3  C   UNL     1       6.261  -0.852   2.526  1.00  0.00     0.087 C 
ATOM      4  O   UNL     1       4.546   0.692   2.299  1.00  0.00    -0.300 OA
ENDBRANCH   1   2
BRANCH   1   5
ATOM      5  C   UNL     1       5.903   0.931  -0.473  1.00  0.00     0.043 C 
BRANCH   5   6
ATOM      6  C   UNL     1       6.844   0.096  -1.240  1.00  0.00    -0.044 A 
ATOM      7  C   UNL     1       7.533   0.597  -2.350  1.00  0.00     0.008 A 
ATOM      8  C   UNL     1       7.060  -1.210  -0.863  1.00  0.00     0.054 A 
ATOM      9  C   UNL     1       8.404  -0.233  -3.031  1.00  0.00     0.051 A 
ATOM     10  C   UNL     1       7.942  -2.046  -1.554  1.00  0.00     0.166 A 
ATOM     11  C   UNL     1       8.619  -1.554  -2.648  1.00  0.00     0.165 A 
ATOM     12  O   UNL     1       8.322  -3.360  -1.381  1.00  0.00    -0.454 OA
ATOM     13  O   UNL     1       9.411  -2.586  -3.127  1.00  0.00    -0.454 OA
ATOM     14  C   UNL     1       9.322  -3.721  -2.300  1.00  0.00     0.468 C 
ENDBRANCH   5   6
ENDBRANCH   1   5
TORSDOF 3
ENDMDL
MODEL 5
REMARK VINA RESULT:      -6.8      1.264      1.761
REMARK SMILES CC(=O)CCc1ccc2c(c1)OCO2
REMARK SMILES IDX 4 1 2 2 1 3 3 4 5 5 6 6 7 7 11 8 8 9 10 10 9 11 12 12 14 13
REMARK SMILES IDX 13 14
REMARK H PARENT
REMARK Flexibility Score: inf
ROOT
ATOM      1  C   UNL     1       5.320  -0.067   1.974  1.00  0.00     0.080 C 
ENDROOT
BRANCH   1   2
ATOM      2  C   UNL     1       4.439   1.119   1.786  1.00  0.00     0.130 C 
ATOM      3  C   UNL     1       4.727   2.150   0.753  1.00  0.00     0.087 C 
ATOM      4  O   UNL     1       3.448   1.280   2.479  1.00  0.00    -0.300 OA
ENDBRANCH   1   2
BRANCH   1   5
ATOM      5  C   UNL     1       6.784   0.320   1.909  1.00  0.00     0.043 C 
BRANCH   5   6
ATOM      6  C   UNL     1       7.387  -0.038   0.612  1.00  0.00    -0.044 A 
ATOM      7  C   UNL     1       7.875   0.939  -0.263  1.00  0.00     0.008 A 
ATOM      8  C   UNL     1       7.479  -1.361   0.244  1.00  0.00     0.054 A 
ATOM      9  C   UNL     1       8.431   0.544  -1.467  1.00  0.00     0.051 A 
ATOM     10  C   UNL     1       8.042  -1.755  -0.973  1.00  0.00     0.166 A 
ATOM     11  C   UNL     1       8.522  -0.795  -1.836  1.00  0.00     0.165 A 
ATOM     12  O   UNL     1       8.245  -2.986  -1.560  1.00  0.00    -0.454 OA
ATOM     13  O   UNL     1       9.015  -1.463  -2.945  1.00  0.00    -0.454 OA
ATOM     14  C   UNL     1       8.942  -2.858  -2.772  1.00  0.00     0.468 C 
ENDBRANCH   5   6
ENDBRANCH   1   5
TORSDOF 3
ENDMDL
