@<TRIPOS>MOLECULE
/home/cewinharhar/GITHUB/reincatalyze/data/processed/docking_pred/2023-May-31-1438_sub9_nm5_bs15_s42_ex16_mel10_mts1000_k50_ec05_g099_lra9e-4_lrc3e-3/2481e5cfc04dcfc4c7035fb6b8b96c3a7d203934_ligand_9.pdbqt
 14 15 0 0 0
SMALL
GASTEIGER

@<TRIPOS>ATOM
      1  C          5.3200   -0.0670    1.9740 C.3     1  UNL1        0.0800
      2  C          4.4390    1.1190    1.7860 C.2     1  UNL1        0.1300
      3  C          4.7270    2.1500    0.7530 C.3     1  UNL1        0.0870
      4  O          3.4480    1.2800    2.4790 O.2     1  UNL1       -0.3000
      5  C          6.7840    0.3200    1.9090 C.3     1  UNL1        0.0430
      6  C          7.3870   -0.0380    0.6120 C.2     1  UNL1       -0.0440
      7  C          7.8750    0.9390   -0.2630 C.2     1  UNL1        0.0080
      8  C          7.4790   -1.3610    0.2440 C.2     1  UNL1        0.0540
      9  C          8.4310    0.5440   -1.4670 C.2     1  UNL1        0.0510
     10  C          8.0420   -1.7550   -0.9730 C.2     1  UNL1        0.1660
     11  C          8.5220   -0.7950   -1.8360 C.2     1  UNL1        0.1650
     12  O          8.2450   -2.9860   -1.5600 O.2     1  UNL1       -0.4540
     13  O          9.0150   -1.4630   -2.9450 O.2     1  UNL1       -0.4540
     14  C          8.9420   -2.8580   -2.7720 C.3     1  UNL1        0.4680
@<TRIPOS>BOND
     1    13    14    1
     2    13    11    1
     3    14    12    1
     4    11     9    2
     5    11    10    1
     6    12    10    1
     7     9     7    1
     8    10     8    2
     9     7     6    2
    10     8     6    1
    11     6     5    1
    12     3     2    1
    13     2     1    1
    14     2     4    2
    15     5     1    1
