@<TRIPOS>MOLECULE
/home/cewinharhar/GITHUB/reincatalyze/data/processed/docking_pred/2023-May-31-1438_sub9_nm5_bs15_s42_ex16_mel10_mts1000_k50_ec05_g099_lra9e-4_lrc3e-3/25ea22f039de2039e6eb222be1b9c38742a73e8b_ligand_9.pdbqt
 14 15 0 0 0
SMALL
GASTEIGER

@<TRIPOS>ATOM
      1  C          5.8090    1.3800   -0.3170 C.3     1  UNL1        0.0800
      2  C          5.1540    1.2890    1.0180 C.2     1  UNL1        0.1300
      3  C          5.4200    0.1550    1.9430 C.3     1  UNL1        0.0870
      4  O          4.3750    2.1500    1.3940 O.2     1  UNL1       -0.3000
      5  C          7.2960    1.1000   -0.2210 C.3     1  UNL1        0.0430
      6  C          7.6490   -0.1930   -0.8320 C.2     1  UNL1       -0.0440
      7  C          7.6880   -0.3610   -2.2210 C.2     1  UNL1        0.0080
      8  C          7.9510   -1.2680   -0.0280 C.2     1  UNL1        0.0540
      9  C          8.0270   -1.5980   -2.7380 C.2     1  UNL1        0.0510
     10  C          8.2940   -2.5170   -0.5550 C.2     1  UNL1        0.1660
     11  C          8.3320   -2.6830   -1.9220 C.2     1  UNL1        0.1650
     12  O          8.6300   -3.7220    0.0240 O.2     1  UNL1       -0.4540
     13  O          8.6950   -4.0000   -2.1560 O.2     1  UNL1       -0.4540
     14  C          8.9820   -4.6690   -0.9510 C.3     1  UNL1        0.4680
@<TRIPOS>BOND
     1     9     7    1
     2     9    11    2
     3     7     6    2
     4    13    11    1
     5    13    14    1
     6    11    10    1
     7    14    12    1
     8     6     5    1
     9     6     8    1
    10    10     8    2
    11    10    12    1
    12     1     5    1
    13     1     2    1
    14     2     4    2
    15     2     3    1
