MODEL 1
REMARK VINA RESULT:      -7.6      0.000      0.000
REMARK SMILES CC(=O)CCc1ccc2c(c1)OCO2
REMARK SMILES IDX 4 1 2 2 1 3 3 4 5 5 6 6 7 7 11 8 8 9 10 10 9 11 12 12 14 13
REMARK SMILES IDX 13 14
REMARK H PARENT
REMARK Flexibility Score: inf
ROOT
ATOM      1  C   UNL     1       5.577   1.874   1.291  1.00  0.00     0.080 C 
ENDROOT
BRANCH   1   2
ATOM      2  C   UNL     1       5.127   0.656   2.021  1.00  0.00     0.130 C 
ATOM      3  C   UNL     1       6.020  -0.520   2.201  1.00  0.00     0.087 C 
ATOM      4  O   UNL     1       4.005   0.588   2.495  1.00  0.00    -0.300 OA
ENDBRANCH   1   2
BRANCH   1   5
ATOM      5  C   UNL     1       5.437   1.700  -0.208  1.00  0.00     0.043 C 
BRANCH   5   6
ATOM      6  C   UNL     1       6.596   0.997  -0.788  1.00  0.00    -0.044 A 
ATOM      7  C   UNL     1       7.906   1.435  -0.562  1.00  0.00     0.008 A 
ATOM      8  C   UNL     1       6.396  -0.118  -1.568  1.00  0.00     0.054 A 
ATOM      9  C   UNL     1       8.954   0.734  -1.131  1.00  0.00     0.051 A 
ATOM     10  C   UNL     1       7.459  -0.823  -2.141  1.00  0.00     0.166 A 
ATOM     11  C   UNL     1       8.749  -0.393  -1.921  1.00  0.00     0.165 A 
ATOM     12  O   UNL     1       7.521  -1.943  -2.943  1.00  0.00    -0.454 OA
ATOM     13  O   UNL     1       9.584  -1.267  -2.598  1.00  0.00    -0.454 OA
ATOM     14  C   UNL     1       8.853  -2.317  -3.185  1.00  0.00     0.468 C 
ENDBRANCH   5   6
ENDBRANCH   1   5
TORSDOF 3
ENDMDL
MODEL 2
REMARK VINA RESULT:      -7.4      1.923      2.375
REMARK SMILES CC(=O)CCc1ccc2c(c1)OCO2
REMARK SMILES IDX 4 1 2 2 1 3 3 4 5 5 6 6 7 7 11 8 8 9 10 10 9 11 12 12 14 13
REMARK SMILES IDX 13 14
REMARK H PARENT
REMARK Flexibility Score: inf
ROOT
ATOM      1  C   UNL     1       5.808   1.401  -0.259  1.00  0.00     0.080 C 
ENDROOT
BRANCH   1   2
ATOM      2  C   UNL     1       5.123   1.284   1.059  1.00  0.00     0.130 C 
ATOM      3  C   UNL     1       5.345   0.116   1.953  1.00  0.00     0.087 C 
ATOM      4  O   UNL     1       4.354   2.149   1.445  1.00  0.00    -0.300 OA
ENDBRANCH   1   2
BRANCH   1   5
ATOM      5  C   UNL     1       7.287   1.093  -0.140  1.00  0.00     0.043 C 
BRANCH   5   6
ATOM      6  C   UNL     1       7.631  -0.191  -0.777  1.00  0.00    -0.044 A 
ATOM      7  C   UNL     1       7.639  -0.340  -2.169  1.00  0.00     0.008 A 
ATOM      8  C   UNL     1       7.956  -1.276   0.006  1.00  0.00     0.054 A 
ATOM      9  C   UNL     1       7.970  -1.569  -2.710  1.00  0.00     0.051 A 
ATOM     10  C   UNL     1       8.291  -2.515  -0.547  1.00  0.00     0.166 A 
ATOM     11  C   UNL     1       8.298  -2.663  -1.916  1.00  0.00     0.165 A 
ATOM     12  O   UNL     1       8.645  -3.727   0.009  1.00  0.00    -0.454 OA
ATOM     13  O   UNL     1       8.661  -3.975  -2.175  1.00  0.00    -0.454 OA
ATOM     14  C   UNL     1       8.979  -4.660  -0.987  1.00  0.00     0.468 C 
ENDBRANCH   5   6
ENDBRANCH   1   5
TORSDOF 3
ENDMDL
MODEL 3
REMARK VINA RESULT:      -7.2      2.073      2.593
REMARK SMILES CC(=O)CCc1ccc2c(c1)OCO2
REMARK SMILES IDX 4 1 2 2 1 3 3 4 5 5 6 6 7 7 11 8 8 9 10 10 9 11 12 12 14 13
REMARK SMILES IDX 13 14
REMARK H PARENT
REMARK Flexibility Score: inf
ROOT
ATOM      1  C   UNL     1       5.605   0.083   1.946  1.00  0.00     0.080 C 
ENDROOT
BRANCH   1   2
ATOM      2  C   UNL     1       4.682   1.204   1.614  1.00  0.00     0.130 C 
ATOM      3  C   UNL     1       4.957   2.133   0.485  1.00  0.00     0.087 C 
ATOM      4  O   UNL     1       3.667   1.394   2.264  1.00  0.00    -0.300 OA
ENDBRANCH   1   2
BRANCH   1   5
ATOM      5  C   UNL     1       7.002   0.346   1.422  1.00  0.00     0.043 C 
BRANCH   5   6
ATOM      6  C   UNL     1       7.398  -0.640   0.401  1.00  0.00    -0.044 A 
ATOM      7  C   UNL     1       7.297  -0.360  -0.967  1.00  0.00     0.008 A 
ATOM      8  C   UNL     1       7.881  -1.868   0.790  1.00  0.00     0.054 A 
ATOM      9  C   UNL     1       7.684  -1.325  -1.880  1.00  0.00     0.051 A 
ATOM     10  C   UNL     1       8.271  -2.840  -0.136  1.00  0.00     0.166 A 
ATOM     11  C   UNL     1       8.171  -2.566  -1.482  1.00  0.00     0.165 A 
ATOM     12  O   UNL     1       8.775  -4.117  -0.004  1.00  0.00    -0.454 OA
ATOM     13  O   UNL     1       8.621  -3.691  -2.155  1.00  0.00    -0.454 OA
ATOM     14  C   UNL     1       9.098  -4.664  -1.256  1.00  0.00     0.468 C 
ENDBRANCH   5   6
ENDBRANCH   1   5
TORSDOF 3
ENDMDL
MODEL 4
REMARK VINA RESULT:      -7.1      1.228      1.410
REMARK SMILES CC(=O)CCc1ccc2c(c1)OCO2
REMARK SMILES IDX 4 1 2 2 1 3 3 4 5 5 6 6 7 7 11 8 8 9 10 10 9 11 12 12 14 13
REMARK SMILES IDX 13 14
REMARK H PARENT
REMARK Flexibility Score: inf
ROOT
ATOM      1  C   UNL     1       6.365   1.246   0.885  1.00  0.00     0.080 C 
ENDROOT
BRANCH   1   2
ATOM      2  C   UNL     1       5.681   0.411   1.911  1.00  0.00     0.130 C 
ATOM      3  C   UNL     1       6.330  -0.791   2.499  1.00  0.00     0.087 C 
ATOM      4  O   UNL     1       4.559   0.691   2.301  1.00  0.00    -0.300 OA
ENDBRANCH   1   2
BRANCH   1   5
ATOM      5  C   UNL     1       5.851   0.938  -0.508  1.00  0.00     0.043 C 
BRANCH   5   6
ATOM      6  C   UNL     1       6.808   0.121  -1.275  1.00  0.00    -0.044 A 
ATOM      7  C   UNL     1       7.516   0.648  -2.361  1.00  0.00     0.008 A 
ATOM      8  C   UNL     1       7.021  -1.192  -0.922  1.00  0.00     0.054 A 
ATOM      9  C   UNL     1       8.402  -0.166  -3.044  1.00  0.00     0.051 A 
ATOM     10  C   UNL     1       7.918  -2.011  -1.615  1.00  0.00     0.166 A 
ATOM     11  C   UNL     1       8.614  -1.493  -2.685  1.00  0.00     0.165 A 
ATOM     12  O   UNL     1       8.299  -3.327  -1.463  1.00  0.00    -0.454 OA
ATOM     13  O   UNL     1       9.417  -2.513  -3.172  1.00  0.00    -0.454 OA
ATOM     14  C   UNL     1       9.316  -3.666  -2.370  1.00  0.00     0.468 C 
ENDBRANCH   5   6
ENDBRANCH   1   5
TORSDOF 3
ENDMDL
MODEL 5
REMARK VINA RESULT:      -6.8      1.259      1.747
REMARK SMILES CC(=O)CCc1ccc2c(c1)OCO2
REMARK SMILES IDX 4 1 2 2 1 3 3 4 5 5 6 6 7 7 11 8 8 9 10 10 9 11 12 12 14 13
REMARK SMILES IDX 13 14
REMARK H PARENT
REMARK Flexibility Score: inf
ROOT
ATOM      1  C   UNL     1       5.299  -0.083   1.941  1.00  0.00     0.080 C 
ENDROOT
BRANCH   1   2
ATOM      2  C   UNL     1       4.434   1.118   1.778  1.00  0.00     0.130 C 
ATOM      3  C   UNL     1       4.716   2.150   0.744  1.00  0.00     0.087 C 
ATOM      4  O   UNL     1       3.461   1.292   2.495  1.00  0.00    -0.300 OA
ENDBRANCH   1   2
BRANCH   1   5
ATOM      5  C   UNL     1       6.769   0.288   1.898  1.00  0.00     0.043 C 
BRANCH   5   6
ATOM      6  C   UNL     1       7.383  -0.061   0.605  1.00  0.00    -0.044 A 
ATOM      7  C   UNL     1       7.876   0.922  -0.261  1.00  0.00     0.008 A 
ATOM      8  C   UNL     1       7.482  -1.382   0.231  1.00  0.00     0.054 A 
ATOM      9  C   UNL     1       8.443   0.535  -1.462  1.00  0.00     0.051 A 
ATOM     10  C   UNL     1       8.056  -1.768  -0.984  1.00  0.00     0.166 A 
ATOM     11  C   UNL     1       8.540  -0.801  -1.837  1.00  0.00     0.165 A 
ATOM     12  O   UNL     1       8.267  -2.995  -1.576  1.00  0.00    -0.454 OA
ATOM     13  O   UNL     1       9.045  -1.462  -2.946  1.00  0.00    -0.454 OA
ATOM     14  C   UNL     1       8.975  -2.859  -2.781  1.00  0.00     0.468 C 
ENDBRANCH   5   6
ENDBRANCH   1   5
TORSDOF 3
ENDMDL
