@<TRIPOS>MOLECULE
/home/cewinharhar/GITHUB/reincatalyze/data/processed/docking_pred/2023-May-31-1438_sub9_nm5_bs15_s42_ex16_mel10_mts1000_k50_ec05_g099_lra9e-4_lrc3e-3/25fd2f55844bdf9fb92a90adf0bdb598f7a2ad59_ligand_9.pdbqt
 14 15 0 0 0
SMALL
GASTEIGER

@<TRIPOS>ATOM
      1  C          5.5770    1.8740    1.2910 C.3     1  UNL1        0.0800
      2  C          5.1270    0.6560    2.0210 C.2     1  UNL1        0.1300
      3  C          6.0200   -0.5200    2.2010 C.3     1  UNL1        0.0870
      4  O          4.0050    0.5880    2.4950 O.2     1  UNL1       -0.3000
      5  C          5.4370    1.7000   -0.2080 C.3     1  UNL1        0.0430
      6  C          6.5960    0.9970   -0.7880 C.2     1  UNL1       -0.0440
      7  C          7.9060    1.4350   -0.5620 C.2     1  UNL1        0.0080
      8  C          6.3960   -0.1180   -1.5680 C.2     1  UNL1        0.0540
      9  C          8.9540    0.7340   -1.1310 C.2     1  UNL1        0.0510
     10  C          7.4590   -0.8230   -2.1410 C.2     1  UNL1        0.1660
     11  C          8.7490   -0.3930   -1.9210 C.2     1  UNL1        0.1650
     12  O          7.5210   -1.9430   -2.9430 O.2     1  UNL1       -0.4540
     13  O          9.5840   -1.2670   -2.5980 O.2     1  UNL1       -0.4540
     14  C          8.8530   -2.3170   -3.1850 C.3     1  UNL1        0.4680
@<TRIPOS>BOND
     1    14    12    1
     2    14    13    1
     3    12    10    1
     4    13    11    1
     5    10    11    2
     6    10     8    1
     7    11     9    1
     8     8     6    2
     9     9     7    2
    10     6     7    1
    11     6     5    1
    12     5     1    1
    13     1     2    1
    14     2     3    1
    15     2     4    2
