@<TRIPOS>MOLECULE
/home/cewinharhar/GITHUB/reincatalyze/data/processed/docking_pred/2023-May-31-1438_sub9_nm5_bs15_s42_ex16_mel10_mts1000_k50_ec05_g099_lra9e-4_lrc3e-3/25fd2f55844bdf9fb92a90adf0bdb598f7a2ad59_ligand_9.pdbqt
 14 15 0 0 0
SMALL
GASTEIGER

@<TRIPOS>ATOM
      1  C          5.8080    1.4010   -0.2590 C.3     1  UNL1        0.0800
      2  C          5.1230    1.2840    1.0590 C.2     1  UNL1        0.1300
      3  C          5.3450    0.1160    1.9530 C.3     1  UNL1        0.0870
      4  O          4.3540    2.1490    1.4450 O.2     1  UNL1       -0.3000
      5  C          7.2870    1.0930   -0.1400 C.3     1  UNL1        0.0430
      6  C          7.6310   -0.1910   -0.7770 C.2     1  UNL1       -0.0440
      7  C          7.6390   -0.3400   -2.1690 C.2     1  UNL1        0.0080
      8  C          7.9560   -1.2760    0.0060 C.2     1  UNL1        0.0540
      9  C          7.9700   -1.5690   -2.7100 C.2     1  UNL1        0.0510
     10  C          8.2910   -2.5150   -0.5470 C.2     1  UNL1        0.1660
     11  C          8.2980   -2.6630   -1.9160 C.2     1  UNL1        0.1650
     12  O          8.6450   -3.7270    0.0090 O.2     1  UNL1       -0.4540
     13  O          8.6610   -3.9750   -2.1750 O.2     1  UNL1       -0.4540
     14  C          8.9790   -4.6600   -0.9870 C.3     1  UNL1        0.4680
@<TRIPOS>BOND
     1     9     7    1
     2     9    11    2
     3    13    11    1
     4    13    14    1
     5     7     6    2
     6    11    10    1
     7    14    12    1
     8     6     5    1
     9     6     8    1
    10    10     8    2
    11    10    12    1
    12     1     5    1
    13     1     2    1
    14     2     4    2
    15     2     3    1
