@<TRIPOS>MOLECULE
/home/cewinharhar/GITHUB/reincatalyze/data/processed/docking_pred/2023-May-31-1438_sub9_nm5_bs15_s42_ex16_mel10_mts1000_k50_ec05_g099_lra9e-4_lrc3e-3/25fd2f55844bdf9fb92a90adf0bdb598f7a2ad59_ligand_9.pdbqt
 14 15 0 0 0
SMALL
GASTEIGER

@<TRIPOS>ATOM
      1  C          6.3650    1.2460    0.8850 C.3     1  UNL1        0.0800
      2  C          5.6810    0.4110    1.9110 C.2     1  UNL1        0.1300
      3  C          6.3300   -0.7910    2.4990 C.3     1  UNL1        0.0870
      4  O          4.5590    0.6910    2.3010 O.2     1  UNL1       -0.3000
      5  C          5.8510    0.9380   -0.5080 C.3     1  UNL1        0.0430
      6  C          6.8080    0.1210   -1.2750 C.2     1  UNL1       -0.0440
      7  C          7.5160    0.6480   -2.3610 C.2     1  UNL1        0.0080
      8  C          7.0210   -1.1920   -0.9220 C.2     1  UNL1        0.0540
      9  C          8.4020   -0.1660   -3.0440 C.2     1  UNL1        0.0510
     10  C          7.9180   -2.0110   -1.6150 C.2     1  UNL1        0.1660
     11  C          8.6140   -1.4930   -2.6850 C.2     1  UNL1        0.1650
     12  O          8.2990   -3.3270   -1.4630 O.2     1  UNL1       -0.4540
     13  O          9.4170   -2.5130   -3.1720 O.2     1  UNL1       -0.4540
     14  C          9.3160   -3.6660   -2.3700 C.3     1  UNL1        0.4680
@<TRIPOS>BOND
     1    13    11    1
     2    13    14    1
     3     9    11    2
     4     9     7    1
     5    11    10    1
     6    14    12    1
     7     7     6    2
     8    10    12    1
     9    10     8    2
    10     6     8    1
    11     6     5    1
    12     5     1    1
    13     1     2    1
    14     2     4    2
    15     2     3    1
