@<TRIPOS>MOLECULE
/home/cewinharhar/GITHUB/reincatalyze/data/processed/docking_pred/2023-May-31-1438_sub9_nm5_bs15_s42_ex16_mel10_mts1000_k50_ec05_g099_lra9e-4_lrc3e-3/287d700aa29cdd08db1558ad291e1b5912b75232_ligand_9.pdbqt
 14 15 0 0 0
SMALL
GASTEIGER

@<TRIPOS>ATOM
      1  C          8.3550    0.2100   -2.6200 C.3     1  UNL1        0.0800
      2  C          8.0580   -1.2460   -2.7230 C.2     1  UNL1        0.1300
      3  C          9.1230   -2.2420   -3.0150 C.3     1  UNL1        0.0870
      4  O          6.9220   -1.6660   -2.5700 O.2     1  UNL1       -0.3000
      5  C          8.8640    0.5720   -1.2390 C.3     1  UNL1        0.0430
      6  C          7.8130    0.4360   -0.2160 C.2     1  UNL1       -0.0440
      7  C          7.8970   -0.5260    0.7980 C.2     1  UNL1        0.0080
      8  C          6.7190    1.2700   -0.2460 C.2     1  UNL1        0.0540
      9  C          6.8800   -0.6070    1.7320 C.2     1  UNL1        0.0510
     10  C          5.6940    1.1850    0.7010 C.2     1  UNL1        0.1660
     11  C          5.7750    0.2390    1.6980 C.2     1  UNL1        0.1650
     12  O          4.5220    1.8880    0.8830 O.2     1  UNL1       -0.4540
     13  O          4.6400    0.3820    2.4800 O.2     1  UNL1       -0.4540
     14  C          3.8630    1.4750    2.0530 C.3     1  UNL1        0.4680
@<TRIPOS>BOND
     1     3     2    1
     2     2     1    1
     3     2     4    2
     4     1     5    1
     5     5     6    1
     6     8     6    2
     7     8    10    1
     8     6     7    1
     9    10    12    1
    10    10    11    2
    11     7     9    2
    12    12    14    1
    13    11     9    1
    14    11    13    1
    15    14    13    1
