MODEL 1
REMARK VINA RESULT:      -7.7      0.000      0.000
REMARK SMILES CC(=O)CCc1ccc2c(c1)OCO2
REMARK SMILES IDX 4 1 2 2 1 3 3 4 5 5 6 6 7 7 11 8 8 9 10 10 9 11 12 12 14 13
REMARK SMILES IDX 13 14
REMARK H PARENT
REMARK Flexibility Score: inf
ROOT
ATOM      1  C   UNL     1       5.514   1.910   1.254  1.00  0.00     0.080 C 
ENDROOT
BRANCH   1   2
ATOM      2  C   UNL     1       5.056   0.701   1.994  1.00  0.00     0.130 C 
ATOM      3  C   UNL     1       5.924  -0.498   2.143  1.00  0.00     0.087 C 
ATOM      4  O   UNL     1       3.947   0.660   2.502  1.00  0.00    -0.300 OA
ENDBRANCH   1   2
BRANCH   1   5
ATOM      5  C   UNL     1       5.392   1.718  -0.245  1.00  0.00     0.043 C 
BRANCH   5   6
ATOM      6  C   UNL     1       6.562   1.018  -0.803  1.00  0.00    -0.044 A 
ATOM      7  C   UNL     1       7.867   1.453  -0.547  1.00  0.00     0.008 A 
ATOM      8  C   UNL     1       6.379  -0.093  -1.595  1.00  0.00     0.054 A 
ATOM      9  C   UNL     1       8.927   0.756  -1.098  1.00  0.00     0.051 A 
ATOM     10  C   UNL     1       7.454  -0.795  -2.149  1.00  0.00     0.166 A 
ATOM     11  C   UNL     1       8.739  -0.366  -1.898  1.00  0.00     0.165 A 
ATOM     12  O   UNL     1       7.532  -1.909  -2.956  1.00  0.00    -0.454 OA
ATOM     13  O   UNL     1       9.588  -1.237  -2.563  1.00  0.00    -0.454 OA
ATOM     14  C   UNL     1       8.869  -2.283  -3.172  1.00  0.00     0.468 C 
ENDBRANCH   5   6
ENDBRANCH   1   5
TORSDOF 3
ENDMDL
MODEL 2
REMARK VINA RESULT:      -7.4      1.897      2.328
REMARK SMILES CC(=O)CCc1ccc2c(c1)OCO2
REMARK SMILES IDX 4 1 2 2 1 3 3 4 5 5 6 6 7 7 11 8 8 9 10 10 9 11 12 12 14 13
REMARK SMILES IDX 13 14
REMARK H PARENT
REMARK Flexibility Score: inf
ROOT
ATOM      1  C   UNL     1       5.625   1.395  -0.212  1.00  0.00     0.080 C 
ENDROOT
BRANCH   1   2
ATOM      2  C   UNL     1       5.009   1.237   1.135  1.00  0.00     0.130 C 
ATOM      3  C   UNL     1       5.325   0.075   2.007  1.00  0.00     0.087 C 
ATOM      4  O   UNL     1       4.220   2.064   1.564  1.00  0.00    -0.300 OA
ENDBRANCH   1   2
BRANCH   1   5
ATOM      5  C   UNL     1       7.122   1.161  -0.164  1.00  0.00     0.043 C 
BRANCH   5   6
ATOM      6  C   UNL     1       7.495  -0.123  -0.783  1.00  0.00    -0.044 A 
ATOM      7  C   UNL     1       7.509  -0.290  -2.172  1.00  0.00     0.008 A 
ATOM      8  C   UNL     1       7.842  -1.189   0.015  1.00  0.00     0.054 A 
ATOM      9  C   UNL     1       7.869  -1.518  -2.697  1.00  0.00     0.051 A 
ATOM     10  C   UNL     1       8.206  -2.429  -0.520  1.00  0.00     0.166 A 
ATOM     11  C   UNL     1       8.219  -2.595  -1.887  1.00  0.00     0.165 A 
ATOM     12  O   UNL     1       8.585  -3.624   0.052  1.00  0.00    -0.454 OA
ATOM     13  O   UNL     1       8.611  -3.902  -2.129  1.00  0.00    -0.454 OA
ATOM     14  C   UNL     1       8.941  -4.563  -0.930  1.00  0.00     0.468 C 
ENDBRANCH   5   6
ENDBRANCH   1   5
TORSDOF 3
ENDMDL
MODEL 3
REMARK VINA RESULT:      -7.2      2.089      2.634
REMARK SMILES CC(=O)CCc1ccc2c(c1)OCO2
REMARK SMILES IDX 4 1 2 2 1 3 3 4 5 5 6 6 7 7 11 8 8 9 10 10 9 11 12 12 14 13
REMARK SMILES IDX 13 14
REMARK H PARENT
REMARK Flexibility Score: inf
ROOT
ATOM      1  C   UNL     1       5.532  -0.022   1.945  1.00  0.00     0.080 C 
ENDROOT
BRANCH   1   2
ATOM      2  C   UNL     1       4.655   1.144   1.648  1.00  0.00     0.130 C 
ATOM      3  C   UNL     1       4.951   2.080   0.531  1.00  0.00     0.087 C 
ATOM      4  O   UNL     1       3.660   1.367   2.319  1.00  0.00    -0.300 OA
ENDBRANCH   1   2
BRANCH   1   5
ATOM      5  C   UNL     1       6.953   0.224   1.477  1.00  0.00     0.043 C 
BRANCH   5   6
ATOM      6  C   UNL     1       7.359  -0.735   0.434  1.00  0.00    -0.044 A 
ATOM      7  C   UNL     1       7.235  -0.435  -0.927  1.00  0.00     0.008 A 
ATOM      8  C   UNL     1       7.876  -1.958   0.797  1.00  0.00     0.054 A 
ATOM      9  C   UNL     1       7.633  -1.374  -1.860  1.00  0.00     0.051 A 
ATOM     10  C   UNL     1       8.277  -2.904  -0.151  1.00  0.00     0.166 A 
ATOM     11  C   UNL     1       8.155  -2.610  -1.490  1.00  0.00     0.165 A 
ATOM     12  O   UNL     1       8.812  -4.171  -0.046  1.00  0.00    -0.454 OA
ATOM     13  O   UNL     1       8.623  -3.713  -2.187  1.00  0.00    -0.454 OA
ATOM     14  C   UNL     1       9.133  -4.689  -1.311  1.00  0.00     0.468 C 
ENDBRANCH   5   6
ENDBRANCH   1   5
TORSDOF 3
ENDMDL
MODEL 4
REMARK VINA RESULT:      -7.1      1.254      1.449
REMARK SMILES CC(=O)CCc1ccc2c(c1)OCO2
REMARK SMILES IDX 4 1 2 2 1 3 3 4 5 5 6 6 7 7 11 8 8 9 10 10 9 11 12 12 14 13
REMARK SMILES IDX 13 14
REMARK H PARENT
REMARK Flexibility Score: inf
ROOT
ATOM      1  C   UNL     1       6.344   1.239   0.931  1.00  0.00     0.080 C 
ENDROOT
BRANCH   1   2
ATOM      2  C   UNL     1       5.618   0.425   1.946  1.00  0.00     0.130 C 
ATOM      3  C   UNL     1       6.223  -0.792   2.548  1.00  0.00     0.087 C 
ATOM      4  O   UNL     1       4.497   0.737   2.313  1.00  0.00    -0.300 OA
ENDBRANCH   1   2
BRANCH   1   5
ATOM      5  C   UNL     1       5.847   0.941  -0.471  1.00  0.00     0.043 C 
BRANCH   5   6
ATOM      6  C   UNL     1       6.805   0.114  -1.225  1.00  0.00    -0.044 A 
ATOM      7  C   UNL     1       7.505   0.623  -2.325  1.00  0.00     0.008 A 
ATOM      8  C   UNL     1       7.026  -1.191  -0.847  1.00  0.00     0.054 A 
ATOM      9  C   UNL     1       8.392  -0.200  -2.995  1.00  0.00     0.051 A 
ATOM     10  C   UNL     1       7.924  -2.019  -1.527  1.00  0.00     0.166 A 
ATOM     11  C   UNL     1       8.613  -1.519  -2.610  1.00  0.00     0.165 A 
ATOM     12  O   UNL     1       8.312  -3.330  -1.350  1.00  0.00    -0.454 OA
ATOM     13  O   UNL     1       9.419  -2.545  -3.080  1.00  0.00    -0.454 OA
ATOM     14  C   UNL     1       9.327  -3.682  -2.255  1.00  0.00     0.468 C 
ENDBRANCH   5   6
ENDBRANCH   1   5
TORSDOF 3
ENDMDL
MODEL 5
REMARK VINA RESULT:      -6.8      1.184      5.179
REMARK SMILES CC(=O)CCc1ccc2c(c1)OCO2
REMARK SMILES IDX 4 1 2 2 1 3 3 4 5 5 6 6 7 7 11 8 8 9 10 10 9 11 12 12 14 13
REMARK SMILES IDX 13 14
REMARK H PARENT
REMARK Flexibility Score: inf
ROOT
ATOM      1  C   UNL     1       8.355   0.210  -2.620  1.00  0.00     0.080 C 
ENDROOT
BRANCH   1   2
ATOM      2  C   UNL     1       8.058  -1.246  -2.723  1.00  0.00     0.130 C 
ATOM      3  C   UNL     1       9.123  -2.242  -3.015  1.00  0.00     0.087 C 
ATOM      4  O   UNL     1       6.922  -1.666  -2.570  1.00  0.00    -0.300 OA
ENDBRANCH   1   2
BRANCH   1   5
ATOM      5  C   UNL     1       8.864   0.572  -1.239  1.00  0.00     0.043 C 
BRANCH   5   6
ATOM      6  C   UNL     1       7.813   0.436  -0.216  1.00  0.00    -0.044 A 
ATOM      7  C   UNL     1       7.897  -0.526   0.798  1.00  0.00     0.008 A 
ATOM      8  C   UNL     1       6.719   1.270  -0.246  1.00  0.00     0.054 A 
ATOM      9  C   UNL     1       6.880  -0.607   1.732  1.00  0.00     0.051 A 
ATOM     10  C   UNL     1       5.694   1.185   0.701  1.00  0.00     0.166 A 
ATOM     11  C   UNL     1       5.775   0.239   1.698  1.00  0.00     0.165 A 
ATOM     12  O   UNL     1       4.522   1.888   0.883  1.00  0.00    -0.454 OA
ATOM     13  O   UNL     1       4.640   0.382   2.480  1.00  0.00    -0.454 OA
ATOM     14  C   UNL     1       3.863   1.475   2.053  1.00  0.00     0.468 C 
ENDBRANCH   5   6
ENDBRANCH   1   5
TORSDOF 3
ENDMDL
