@<TRIPOS>MOLECULE
/home/cewinharhar/GITHUB/reincatalyze/data/processed/docking_pred/2023-May-31-1438_sub9_nm5_bs15_s42_ex16_mel10_mts1000_k50_ec05_g099_lra9e-4_lrc3e-3/2b611616233e02901686b2fc0a6dd8ec9c570ff2_ligand_9.pdbqt
 14 15 0 0 0
SMALL
GASTEIGER

@<TRIPOS>ATOM
      1  C          8.7560   -4.7480   -0.4190 C.3     1  UNL1        0.0800
      2  C          9.5280   -4.6620   -1.6900 C.2     1  UNL1        0.1300
      3  C         10.3770   -5.7860   -2.1660 C.3     1  UNL1        0.0870
      4  O          9.4840   -3.6580   -2.3830 O.2     1  UNL1       -0.3000
      5  C          9.4970   -4.0770    0.7210 C.3     1  UNL1        0.0430
      6  C          8.8660   -2.8020    1.1070 C.2     1  UNL1       -0.0440
      7  C          9.6080   -1.6210    1.2200 C.2     1  UNL1        0.0080
      8  C          7.5140   -2.7600    1.3640 C.2     1  UNL1        0.0540
      9  C          8.9620   -0.4540    1.5850 C.2     1  UNL1        0.0510
     10  C          6.8650   -1.5780    1.7320 C.2     1  UNL1        0.1660
     11  C          7.5950   -0.4160    1.8440 C.2     1  UNL1        0.1650
     12  O          5.5540   -1.2810    2.0360 O.2     1  UNL1       -0.4540
     13  O          6.7070    0.5810    2.2170 O.2     1  UNL1       -0.4540
     14  C          5.3870    0.0950    2.2620 C.3     1  UNL1        0.4680
@<TRIPOS>BOND
     1     4     2    2
     2     3     2    1
     3     2     1    1
     4     1     5    1
     5     5     6    1
     6     6     7    2
     7     6     8    1
     8     7     9    1
     9     8    10    2
    10     9    11    2
    11    10    11    1
    12    10    12    1
    13    11    13    1
    14    12    14    1
    15    13    14    1
