@<TRIPOS>MOLECULE
/home/cewinharhar/GITHUB/reincatalyze/data/processed/docking_pred/2023-May-31-1438_sub9_nm5_bs15_s42_ex16_mel10_mts1000_k50_ec05_g099_lra9e-4_lrc3e-3/2b611616233e02901686b2fc0a6dd8ec9c570ff2_ligand_9.pdbqt
 14 15 0 0 0
SMALL
GASTEIGER

@<TRIPOS>ATOM
      1  C          6.4990    2.1490    2.1390 C.3     1  UNL1        0.0800
      2  C          5.2570    1.9130    1.3520 C.2     1  UNL1        0.1300
      3  C          5.2910    1.7260   -0.1230 C.3     1  UNL1        0.0870
      4  O          4.1670    1.8670    1.8990 O.2     1  UNL1       -0.3000
      5  C          6.7280    1.0440    3.1510 C.3     1  UNL1        0.0430
      6  C          6.9720   -0.2540    2.4960 C.2     1  UNL1       -0.0440
      7  C          5.9250   -1.1320    2.1960 C.2     1  UNL1        0.0080
      8  C          8.2570   -0.6200    2.1660 C.2     1  UNL1        0.0540
      9  C          6.2140   -2.3360    1.5800 C.2     1  UNL1        0.0510
     10  C          8.5450   -1.8380    1.5430 C.2     1  UNL1        0.1660
     11  C          7.5150   -2.7040    1.2480 C.2     1  UNL1        0.1650
     12  O          9.7190   -2.4230    1.1210 O.2     1  UNL1       -0.4540
     13  O          8.0840   -3.8130    0.6440 O.2     1  UNL1       -0.4540
     14  C          9.4690   -3.6380    0.4610 C.3     1  UNL1        0.4680
@<TRIPOS>BOND
     1     3     2    1
     2    14    13    1
     3    14    12    1
     4    13    11    1
     5    12    10    1
     6    11    10    2
     7    11     9    1
     8     2     4    2
     9     2     1    1
    10    10     8    1
    11     9     7    2
    12     1     5    1
    13     8     6    2
    14     7     6    1
    15     6     5    1
