@<TRIPOS>MOLECULE
/home/cewinharhar/GITHUB/reincatalyze/data/processed/docking_pred/2023-May-31-1438_sub9_nm5_bs15_s42_ex16_mel10_mts1000_k50_ec05_g099_lra9e-4_lrc3e-3/2b611616233e02901686b2fc0a6dd8ec9c570ff2_ligand_9.pdbqt
 14 15 0 0 0
SMALL
GASTEIGER

@<TRIPOS>ATOM
      1  C          9.0240   -2.6660    1.1330 C.3     1  UNL1        0.0800
      2  C          9.5260   -4.0000    0.7010 C.2     1  UNL1        0.1300
      3  C          8.9980   -4.6770   -0.5140 C.3     1  UNL1        0.0870
      4  O         10.3910   -4.5800    1.3360 O.2     1  UNL1       -0.3000
      5  C          7.6090   -2.7580    1.6690 C.3     1  UNL1        0.0430
      6  C          7.0070   -1.4250    1.8550 C.2     1  UNL1       -0.0440
      7  C          7.7970   -0.2780    1.9970 C.2     1  UNL1        0.0080
      8  C          5.6380   -1.2940    1.8880 C.2     1  UNL1        0.0540
      9  C          7.1760    0.9460    2.1680 C.2     1  UNL1        0.0510
     10  C          5.0160   -0.0540    2.0600 C.2     1  UNL1        0.1660
     11  C          5.7910    1.0750    2.2020 C.2     1  UNL1        0.1650
     12  O          3.6940    0.3330    2.1280 O.2     1  UNL1       -0.4540
     13  O          4.9210    2.1430    2.3540 O.2     1  UNL1       -0.4540
     14  C          3.5820    1.7300    2.2220 C.3     1  UNL1        0.4680
@<TRIPOS>BOND
     1     3     2    1
     2     2     1    1
     3     2     4    2
     4     1     5    1
     5     5     6    1
     6     6     8    2
     7     6     7    1
     8     8    10    1
     9     7     9    2
    10    10    12    1
    11    10    11    2
    12    12    14    1
    13     9    11    1
    14    11    13    1
    15    14    13    1
