@<TRIPOS>MOLECULE
/home/cewinharhar/GITHUB/reincatalyze/data/processed/docking_pred/2023-May-31-1438_sub9_nm5_bs15_s42_ex16_mel10_mts1000_k50_ec05_g099_lra9e-4_lrc3e-3/2f41e52dfc6618f39d2325611a45b0a1c53476a0_ligand_9.pdbqt
 14 15 0 0 0
SMALL
GASTEIGER

@<TRIPOS>ATOM
      1  C          5.4930    1.9360    1.2530 C.3     1  UNL1        0.0800
      2  C          5.0480    0.7230    1.9940 C.2     1  UNL1        0.1300
      3  C          5.9250   -0.4700    2.1350 C.3     1  UNL1        0.0870
      4  O          3.9430    0.6720    2.5080 O.2     1  UNL1       -0.3000
      5  C          5.3750    1.7410   -0.2450 C.3     1  UNL1        0.0430
      6  C          6.5480    1.0400   -0.7990 C.2     1  UNL1       -0.0440
      7  C          7.8520    1.4720   -0.5330 C.2     1  UNL1        0.0080
      8  C          6.3670   -0.0680   -1.5950 C.2     1  UNL1        0.0540
      9  C          8.9140    0.7740   -1.0790 C.2     1  UNL1        0.0510
     10  C          7.4440   -0.7700   -2.1440 C.2     1  UNL1        0.1660
     11  C          8.7280   -0.3460   -1.8840 C.2     1  UNL1        0.1650
     12  O          7.5250   -1.8830   -2.9550 O.2     1  UNL1       -0.4540
     13  O          9.5800   -1.2160   -2.5460 O.2     1  UNL1       -0.4540
     14  C          8.8620   -2.2590   -3.1630 C.3     1  UNL1        0.4680
@<TRIPOS>BOND
     1    14    12    1
     2    14    13    1
     3    12    10    1
     4    13    11    1
     5    10    11    2
     6    10     8    1
     7    11     9    1
     8     8     6    2
     9     9     7    2
    10     6     7    1
    11     6     5    1
    12     5     1    1
    13     1     2    1
    14     2     3    1
    15     2     4    2
