@<TRIPOS>MOLECULE
/home/cewinharhar/GITHUB/reincatalyze/data/processed/docking_pred/2023-May-31-1438_sub9_nm5_bs15_s42_ex16_mel10_mts1000_k50_ec05_g099_lra9e-4_lrc3e-3/2f41e52dfc6618f39d2325611a45b0a1c53476a0_ligand_9.pdbqt
 14 15 0 0 0
SMALL
GASTEIGER

@<TRIPOS>ATOM
      1  C          6.3990    1.1840    0.9510 C.3     1  UNL1        0.0800
      2  C          5.6580    0.3530    1.9410 C.2     1  UNL1        0.1300
      3  C          6.2420   -0.8910    2.5090 C.3     1  UNL1        0.0870
      4  O          4.5410    0.6730    2.3150 O.2     1  UNL1       -0.3000
      5  C          5.8980    0.9390   -0.4590 C.3     1  UNL1        0.0430
      6  C          6.8340    0.1060   -1.2350 C.2     1  UNL1       -0.0440
      7  C          7.5160    0.6120   -2.3470 C.2     1  UNL1        0.0080
      8  C          7.0520   -1.2010   -0.8640 C.2     1  UNL1        0.0540
      9  C          8.3830   -0.2160   -3.0370 C.2     1  UNL1        0.0510
     10  C          7.9300   -2.0340   -1.5640 C.2     1  UNL1        0.1660
     11  C          8.6000   -1.5380   -2.6590 C.2     1  UNL1        0.1650
     12  O          8.3110   -3.3490   -1.3980 O.2     1  UNL1       -0.4540
     13  O          9.3880   -2.5680   -3.1480 O.2     1  UNL1       -0.4540
     14  C          9.3040   -3.7070   -2.3240 C.3     1  UNL1        0.4680
@<TRIPOS>BOND
     1    13    11    1
     2    13    14    1
     3     9    11    2
     4     9     7    1
     5    11    10    1
     6     7     6    2
     7    14    12    1
     8    10    12    1
     9    10     8    2
    10     6     8    1
    11     6     5    1
    12     5     1    1
    13     1     2    1
    14     2     4    2
    15     2     3    1
