MODEL 1
REMARK VINA RESULT:      -7.7      0.000      0.000
REMARK SMILES CC(=O)CCc1ccc2c(c1)OCO2
REMARK SMILES IDX 4 1 2 2 1 3 3 4 5 5 6 6 7 7 11 8 8 9 10 10 9 11 12 12 14 13
REMARK SMILES IDX 13 14
REMARK H PARENT
REMARK Flexibility Score: inf
ROOT
ATOM      1  C   UNL     1       5.493   1.936   1.253  1.00  0.00     0.080 C 
ENDROOT
BRANCH   1   2
ATOM      2  C   UNL     1       5.048   0.723   1.994  1.00  0.00     0.130 C 
ATOM      3  C   UNL     1       5.925  -0.470   2.135  1.00  0.00     0.087 C 
ATOM      4  O   UNL     1       3.943   0.672   2.508  1.00  0.00    -0.300 OA
ENDBRANCH   1   2
BRANCH   1   5
ATOM      5  C   UNL     1       5.375   1.741  -0.245  1.00  0.00     0.043 C 
BRANCH   5   6
ATOM      6  C   UNL     1       6.548   1.040  -0.799  1.00  0.00    -0.044 A 
ATOM      7  C   UNL     1       7.852   1.472  -0.533  1.00  0.00     0.008 A 
ATOM      8  C   UNL     1       6.367  -0.068  -1.595  1.00  0.00     0.054 A 
ATOM      9  C   UNL     1       8.914   0.774  -1.079  1.00  0.00     0.051 A 
ATOM     10  C   UNL     1       7.444  -0.770  -2.144  1.00  0.00     0.166 A 
ATOM     11  C   UNL     1       8.728  -0.346  -1.884  1.00  0.00     0.165 A 
ATOM     12  O   UNL     1       7.525  -1.883  -2.955  1.00  0.00    -0.454 OA
ATOM     13  O   UNL     1       9.580  -1.216  -2.546  1.00  0.00    -0.454 OA
ATOM     14  C   UNL     1       8.862  -2.259  -3.163  1.00  0.00     0.468 C 
ENDBRANCH   5   6
ENDBRANCH   1   5
TORSDOF 3
ENDMDL
MODEL 2
REMARK VINA RESULT:      -7.4      1.946      2.449
REMARK SMILES CC(=O)CCc1ccc2c(c1)OCO2
REMARK SMILES IDX 4 1 2 2 1 3 3 4 5 5 6 6 7 7 11 8 8 9 10 10 9 11 12 12 14 13
REMARK SMILES IDX 13 14
REMARK H PARENT
REMARK Flexibility Score: inf
ROOT
ATOM      1  C   UNL     1       5.748   1.250  -0.298  1.00  0.00     0.080 C 
ENDROOT
BRANCH   1   2
ATOM      2  C   UNL     1       5.206   1.193   1.088  1.00  0.00     0.130 C 
ATOM      3  C   UNL     1       5.354  -0.021   1.935  1.00  0.00     0.087 C 
ATOM      4  O   UNL     1       4.621   2.149   1.572  1.00  0.00    -0.300 OA
ENDBRANCH   1   2
BRANCH   1   5
ATOM      5  C   UNL     1       7.247   1.028  -0.313  1.00  0.00     0.043 C 
BRANCH   5   6
ATOM      6  C   UNL     1       7.601  -0.272  -0.911  1.00  0.00    -0.044 A 
ATOM      7  C   UNL     1       7.648  -0.452  -2.299  1.00  0.00     0.008 A 
ATOM      8  C   UNL     1       7.897  -1.340  -0.096  1.00  0.00     0.054 A 
ATOM      9  C   UNL     1       7.987  -1.694  -2.803  1.00  0.00     0.051 A 
ATOM     10  C   UNL     1       8.239  -2.594  -0.610  1.00  0.00     0.166 A 
ATOM     11  C   UNL     1       8.285  -2.772  -1.975  1.00  0.00     0.165 A 
ATOM     12  O   UNL     1       8.570  -3.794  -0.018  1.00  0.00    -0.454 OA
ATOM     13  O   UNL     1       8.647  -4.092  -2.195  1.00  0.00    -0.454 OA
ATOM     14  C   UNL     1       8.926  -4.751  -0.983  1.00  0.00     0.468 C 
ENDBRANCH   5   6
ENDBRANCH   1   5
TORSDOF 3
ENDMDL
MODEL 3
REMARK VINA RESULT:      -7.2      2.081      2.619
REMARK SMILES CC(=O)CCc1ccc2c(c1)OCO2
REMARK SMILES IDX 4 1 2 2 1 3 3 4 5 5 6 6 7 7 11 8 8 9 10 10 9 11 12 12 14 13
REMARK SMILES IDX 13 14
REMARK H PARENT
REMARK Flexibility Score: inf
ROOT
ATOM      1  C   UNL     1       5.547   0.018   1.966  1.00  0.00     0.080 C 
ENDROOT
BRANCH   1   2
ATOM      2  C   UNL     1       4.652   1.165   1.649  1.00  0.00     0.130 C 
ATOM      3  C   UNL     1       4.948   2.101   0.532  1.00  0.00     0.087 C 
ATOM      4  O   UNL     1       3.642   1.371   2.303  1.00  0.00    -0.300 OA
ENDBRANCH   1   2
BRANCH   1   5
ATOM      5  C   UNL     1       6.962   0.275   1.485  1.00  0.00     0.043 C 
BRANCH   5   6
ATOM      6  C   UNL     1       7.367  -0.685   0.442  1.00  0.00    -0.044 A 
ATOM      7  C   UNL     1       7.258  -0.377  -0.919  1.00  0.00     0.008 A 
ATOM      8  C   UNL     1       7.868  -1.915   0.804  1.00  0.00     0.054 A 
ATOM      9  C   UNL     1       7.655  -1.317  -1.853  1.00  0.00     0.051 A 
ATOM     10  C   UNL     1       8.268  -2.861  -0.145  1.00  0.00     0.166 A 
ATOM     11  C   UNL     1       8.160  -2.559  -1.484  1.00  0.00     0.165 A 
ATOM     12  O   UNL     1       8.788  -4.133  -0.041  1.00  0.00    -0.454 OA
ATOM     13  O   UNL     1       8.623  -3.664  -2.182  1.00  0.00    -0.454 OA
ATOM     14  C   UNL     1       9.115  -4.649  -1.305  1.00  0.00     0.468 C 
ENDBRANCH   5   6
ENDBRANCH   1   5
TORSDOF 3
ENDMDL
MODEL 4
REMARK VINA RESULT:      -7.1      1.269      1.489
REMARK SMILES CC(=O)CCc1ccc2c(c1)OCO2
REMARK SMILES IDX 4 1 2 2 1 3 3 4 5 5 6 6 7 7 11 8 8 9 10 10 9 11 12 12 14 13
REMARK SMILES IDX 13 14
REMARK H PARENT
REMARK Flexibility Score: inf
ROOT
ATOM      1  C   UNL     1       6.399   1.184   0.951  1.00  0.00     0.080 C 
ENDROOT
BRANCH   1   2
ATOM      2  C   UNL     1       5.658   0.353   1.941  1.00  0.00     0.130 C 
ATOM      3  C   UNL     1       6.242  -0.891   2.509  1.00  0.00     0.087 C 
ATOM      4  O   UNL     1       4.541   0.673   2.315  1.00  0.00    -0.300 OA
ENDBRANCH   1   2
BRANCH   1   5
ATOM      5  C   UNL     1       5.898   0.939  -0.459  1.00  0.00     0.043 C 
BRANCH   5   6
ATOM      6  C   UNL     1       6.834   0.106  -1.235  1.00  0.00    -0.044 A 
ATOM      7  C   UNL     1       7.516   0.612  -2.347  1.00  0.00     0.008 A 
ATOM      8  C   UNL     1       7.052  -1.201  -0.864  1.00  0.00     0.054 A 
ATOM      9  C   UNL     1       8.383  -0.216  -3.037  1.00  0.00     0.051 A 
ATOM     10  C   UNL     1       7.930  -2.034  -1.564  1.00  0.00     0.166 A 
ATOM     11  C   UNL     1       8.600  -1.538  -2.659  1.00  0.00     0.165 A 
ATOM     12  O   UNL     1       8.311  -3.349  -1.398  1.00  0.00    -0.454 OA
ATOM     13  O   UNL     1       9.388  -2.568  -3.148  1.00  0.00    -0.454 OA
ATOM     14  C   UNL     1       9.304  -3.707  -2.324  1.00  0.00     0.468 C 
ENDBRANCH   5   6
ENDBRANCH   1   5
TORSDOF 3
ENDMDL
MODEL 5
REMARK VINA RESULT:      -7.0      1.992      2.509
REMARK SMILES CC(=O)CCc1ccc2c(c1)OCO2
REMARK SMILES IDX 4 1 2 2 1 3 3 4 5 5 6 6 7 7 11 8 8 9 10 10 9 11 12 12 14 13
REMARK SMILES IDX 13 14
REMARK H PARENT
REMARK Flexibility Score: inf
ROOT
ATOM      1  C   UNL     1       6.878   0.958   1.323  1.00  0.00     0.080 C 
ENDROOT
BRANCH   1   2
ATOM      2  C   UNL     1       5.408   1.132   1.495  1.00  0.00     0.130 C 
ATOM      3  C   UNL     1       4.647   2.150   0.723  1.00  0.00     0.087 C 
ATOM      4  O   UNL     1       4.783   0.438   2.281  1.00  0.00    -0.300 OA
ENDBRANCH   1   2
BRANCH   1   5
ATOM      5  C   UNL     1       7.285   1.117  -0.128  1.00  0.00     0.043 C 
BRANCH   5   6
ATOM      6  C   UNL     1       7.648  -0.174  -0.738  1.00  0.00    -0.044 A 
ATOM      7  C   UNL     1       7.743  -0.329  -2.126  1.00  0.00     0.008 A 
ATOM      8  C   UNL     1       7.904  -1.261   0.067  1.00  0.00     0.054 A 
ATOM      9  C   UNL     1       8.089  -1.565  -2.641  1.00  0.00     0.051 A 
ATOM     10  C   UNL     1       8.254  -2.508  -0.459  1.00  0.00     0.166 A 
ATOM     11  C   UNL     1       8.347  -2.661  -1.825  1.00  0.00     0.165 A 
ATOM     12  O   UNL     1       8.552  -3.723   0.121  1.00  0.00    -0.454 OA
ATOM     13  O   UNL     1       8.705  -3.980  -2.057  1.00  0.00    -0.454 OA
ATOM     14  C   UNL     1       8.934  -4.665  -0.848  1.00  0.00     0.468 C 
ENDBRANCH   5   6
ENDBRANCH   1   5
TORSDOF 3
ENDMDL
