@<TRIPOS>MOLECULE
/home/cewinharhar/GITHUB/reincatalyze/data/processed/docking_pred/2023-May-31-1438_sub9_nm5_bs15_s42_ex16_mel10_mts1000_k50_ec05_g099_lra9e-4_lrc3e-3/2f41e52dfc6618f39d2325611a45b0a1c53476a0_ligand_9.pdbqt
 14 15 0 0 0
SMALL
GASTEIGER

@<TRIPOS>ATOM
      1  C          6.8780    0.9580    1.3230 C.3     1  UNL1        0.0800
      2  C          5.4080    1.1320    1.4950 C.2     1  UNL1        0.1300
      3  C          4.6470    2.1500    0.7230 C.3     1  UNL1        0.0870
      4  O          4.7830    0.4380    2.2810 O.2     1  UNL1       -0.3000
      5  C          7.2850    1.1170   -0.1280 C.3     1  UNL1        0.0430
      6  C          7.6480   -0.1740   -0.7380 C.2     1  UNL1       -0.0440
      7  C          7.7430   -0.3290   -2.1260 C.2     1  UNL1        0.0080
      8  C          7.9040   -1.2610    0.0670 C.2     1  UNL1        0.0540
      9  C          8.0890   -1.5650   -2.6410 C.2     1  UNL1        0.0510
     10  C          8.2540   -2.5080   -0.4590 C.2     1  UNL1        0.1660
     11  C          8.3470   -2.6610   -1.8250 C.2     1  UNL1        0.1650
     12  O          8.5520   -3.7230    0.1210 O.2     1  UNL1       -0.4540
     13  O          8.7050   -3.9800   -2.0570 O.2     1  UNL1       -0.4540
     14  C          8.9340   -4.6650   -0.8480 C.3     1  UNL1        0.4680
@<TRIPOS>BOND
     1     9     7    1
     2     9    11    2
     3     7     6    2
     4    13    11    1
     5    13    14    1
     6    11    10    1
     7    14    12    1
     8     6     5    1
     9     6     8    1
    10    10     8    2
    11    10    12    1
    12     5     1    1
    13     3     2    1
    14     1     2    1
    15     2     4    2
