@<TRIPOS>MOLECULE
/home/cewinharhar/GITHUB/reincatalyze/data/processed/docking_pred/2023-May-31-1438_sub9_nm5_bs15_s42_ex16_mel10_mts1000_k50_ec05_g099_lra9e-4_lrc3e-3/2f41e52dfc6618f39d2325611a45b0a1c53476a0_ligand_9.pdbqt
 14 15 0 0 0
SMALL
GASTEIGER

@<TRIPOS>ATOM
      1  C          5.7480    1.2500   -0.2980 C.3     1  UNL1        0.0800
      2  C          5.2060    1.1930    1.0880 C.2     1  UNL1        0.1300
      3  C          5.3540   -0.0210    1.9350 C.3     1  UNL1        0.0870
      4  O          4.6210    2.1490    1.5720 O.2     1  UNL1       -0.3000
      5  C          7.2470    1.0280   -0.3130 C.3     1  UNL1        0.0430
      6  C          7.6010   -0.2720   -0.9110 C.2     1  UNL1       -0.0440
      7  C          7.6480   -0.4520   -2.2990 C.2     1  UNL1        0.0080
      8  C          7.8970   -1.3400   -0.0960 C.2     1  UNL1        0.0540
      9  C          7.9870   -1.6940   -2.8030 C.2     1  UNL1        0.0510
     10  C          8.2390   -2.5940   -0.6100 C.2     1  UNL1        0.1660
     11  C          8.2850   -2.7720   -1.9750 C.2     1  UNL1        0.1650
     12  O          8.5700   -3.7940   -0.0180 O.2     1  UNL1       -0.4540
     13  O          8.6470   -4.0920   -2.1950 O.2     1  UNL1       -0.4540
     14  C          8.9260   -4.7510   -0.9830 C.3     1  UNL1        0.4680
@<TRIPOS>BOND
     1     9     7    1
     2     9    11    2
     3     7     6    2
     4    13    11    1
     5    13    14    1
     6    11    10    1
     7    14    12    1
     8     6     5    1
     9     6     8    1
    10    10     8    2
    11    10    12    1
    12     5     1    1
    13     1     2    1
    14     2     4    2
    15     2     3    1
