@<TRIPOS>MOLECULE
/home/cewinharhar/GITHUB/reincatalyze/data/processed/docking_pred/2023-May-31-1438_sub9_nm5_bs15_s42_ex16_mel10_mts1000_k50_ec05_g099_lra9e-4_lrc3e-3/2f41e52dfc6618f39d2325611a45b0a1c53476a0_ligand_9.pdbqt
 14 15 0 0 0
SMALL
GASTEIGER

@<TRIPOS>ATOM
      1  C          5.5470    0.0180    1.9660 C.3     1  UNL1        0.0800
      2  C          4.6520    1.1650    1.6490 C.2     1  UNL1        0.1300
      3  C          4.9480    2.1010    0.5320 C.3     1  UNL1        0.0870
      4  O          3.6420    1.3710    2.3030 O.2     1  UNL1       -0.3000
      5  C          6.9620    0.2750    1.4850 C.3     1  UNL1        0.0430
      6  C          7.3670   -0.6850    0.4420 C.2     1  UNL1       -0.0440
      7  C          7.2580   -0.3770   -0.9190 C.2     1  UNL1        0.0080
      8  C          7.8680   -1.9150    0.8040 C.2     1  UNL1        0.0540
      9  C          7.6550   -1.3170   -1.8530 C.2     1  UNL1        0.0510
     10  C          8.2680   -2.8610   -0.1450 C.2     1  UNL1        0.1660
     11  C          8.1600   -2.5590   -1.4840 C.2     1  UNL1        0.1650
     12  O          8.7880   -4.1330   -0.0410 O.2     1  UNL1       -0.4540
     13  O          8.6230   -3.6640   -2.1820 O.2     1  UNL1       -0.4540
     14  C          9.1150   -4.6490   -1.3050 C.3     1  UNL1        0.4680
@<TRIPOS>BOND
     1    13    11    1
     2    13    14    1
     3     9    11    2
     4     9     7    1
     5    11    10    1
     6    14    12    1
     7     7     6    2
     8    10    12    1
     9    10     8    2
    10     6     8    1
    11     6     5    1
    12     3     2    1
    13     5     1    1
    14     2     1    1
    15     2     4    2
