MODEL 1
REMARK VINA RESULT:      -7.7      0.000      0.000
REMARK SMILES CC(=O)CCc1ccc2c(c1)OCO2
REMARK SMILES IDX 4 1 2 2 1 3 3 4 5 5 6 6 7 7 11 8 8 9 10 10 9 11 12 12 14 13
REMARK SMILES IDX 13 14
REMARK H PARENT
REMARK Flexibility Score: inf
ROOT
ATOM      1  C   UNL     1       5.490   1.928   1.258  1.00  0.00     0.080 C 
ENDROOT
BRANCH   1   2
ATOM      2  C   UNL     1       5.027   0.717   1.992  1.00  0.00     0.130 C 
ATOM      3  C   UNL     1       5.879  -0.497   2.111  1.00  0.00     0.087 C 
ATOM      4  O   UNL     1       3.927   0.686   2.519  1.00  0.00    -0.300 OA
ENDBRANCH   1   2
BRANCH   1   5
ATOM      5  C   UNL     1       5.375   1.740  -0.242  1.00  0.00     0.043 C 
BRANCH   5   6
ATOM      6  C   UNL     1       6.547   1.039  -0.797  1.00  0.00    -0.044 A 
ATOM      7  C   UNL     1       7.852   1.470  -0.532  1.00  0.00     0.008 A 
ATOM      8  C   UNL     1       6.365  -0.069  -1.593  1.00  0.00     0.054 A 
ATOM      9  C   UNL     1       8.913   0.772  -1.079  1.00  0.00     0.051 A 
ATOM     10  C   UNL     1       7.442  -0.772  -2.143  1.00  0.00     0.166 A 
ATOM     11  C   UNL     1       8.726  -0.347  -1.884  1.00  0.00     0.165 A 
ATOM     12  O   UNL     1       7.521  -1.884  -2.954  1.00  0.00    -0.454 OA
ATOM     13  O   UNL     1       9.577  -1.218  -2.547  1.00  0.00    -0.454 OA
ATOM     14  C   UNL     1       8.858  -2.260  -3.163  1.00  0.00     0.468 C 
ENDBRANCH   5   6
ENDBRANCH   1   5
TORSDOF 3
ENDMDL
MODEL 2
REMARK VINA RESULT:      -7.4      1.887      2.355
REMARK SMILES CC(=O)CCc1ccc2c(c1)OCO2
REMARK SMILES IDX 4 1 2 2 1 3 3 4 5 5 6 6 7 7 11 8 8 9 10 10 9 11 12 12 14 13
REMARK SMILES IDX 13 14
REMARK H PARENT
REMARK Flexibility Score: inf
ROOT
ATOM      1  C   UNL     1       5.759   1.391  -0.276  1.00  0.00     0.080 C 
ENDROOT
BRANCH   1   2
ATOM      2  C   UNL     1       5.171   1.260   1.086  1.00  0.00     0.130 C 
ATOM      3  C   UNL     1       5.394   0.049   1.920  1.00  0.00     0.087 C 
ATOM      4  O   UNL     1       4.483   2.150   1.559  1.00  0.00    -0.300 OA
ENDBRANCH   1   2
BRANCH   1   5
ATOM      5  C   UNL     1       7.255   1.148  -0.255  1.00  0.00     0.043 C 
BRANCH   5   6
ATOM      6  C   UNL     1       7.609  -0.138  -0.881  1.00  0.00    -0.044 A 
ATOM      7  C   UNL     1       7.635  -0.294  -2.272  1.00  0.00     0.008 A 
ATOM      8  C   UNL     1       7.927  -1.218  -0.089  1.00  0.00     0.054 A 
ATOM      9  C   UNL     1       7.976  -1.524  -2.803  1.00  0.00     0.051 A 
ATOM     10  C   UNL     1       8.271  -2.460  -0.631  1.00  0.00     0.166 A 
ATOM     11  C   UNL     1       8.295  -2.614  -1.999  1.00  0.00     0.165 A 
ATOM     12  O   UNL     1       8.620  -3.668  -0.065  1.00  0.00    -0.454 OA
ATOM     13  O   UNL     1       8.664  -3.927  -2.247  1.00  0.00    -0.454 OA
ATOM     14  C   UNL     1       8.968  -4.605  -1.052  1.00  0.00     0.468 C 
ENDBRANCH   5   6
ENDBRANCH   1   5
TORSDOF 3
ENDMDL
MODEL 3
REMARK VINA RESULT:      -7.2      2.084      2.611
REMARK SMILES CC(=O)CCc1ccc2c(c1)OCO2
REMARK SMILES IDX 4 1 2 2 1 3 3 4 5 5 6 6 7 7 11 8 8 9 10 10 9 11 12 12 14 13
REMARK SMILES IDX 13 14
REMARK H PARENT
REMARK Flexibility Score: inf
ROOT
ATOM      1  C   UNL     1       5.554   0.021   1.993  1.00  0.00     0.080 C 
ENDROOT
BRANCH   1   2
ATOM      2  C   UNL     1       4.672   1.175   1.662  1.00  0.00     0.130 C 
ATOM      3  C   UNL     1       4.995   2.111   0.553  1.00  0.00     0.087 C 
ATOM      4  O   UNL     1       3.652   1.387   2.298  1.00  0.00    -0.300 OA
ENDBRANCH   1   2
BRANCH   1   5
ATOM      5  C   UNL     1       6.979   0.270   1.541  1.00  0.00     0.043 C 
BRANCH   5   6
ATOM      6  C   UNL     1       7.392  -0.677   0.490  1.00  0.00    -0.044 A 
ATOM      7  C   UNL     1       7.328  -0.340  -0.867  1.00  0.00     0.008 A 
ATOM      8  C   UNL     1       7.856  -1.925   0.839  1.00  0.00     0.054 A 
ATOM      9  C   UNL     1       7.729  -1.269  -1.809  1.00  0.00     0.051 A 
ATOM     10  C   UNL     1       8.261  -2.861  -0.117  1.00  0.00     0.166 A 
ATOM     11  C   UNL     1       8.197  -2.530  -1.452  1.00  0.00     0.165 A 
ATOM     12  O   UNL     1       8.751  -4.146  -0.025  1.00  0.00    -0.454 OA
ATOM     13  O   UNL     1       8.654  -3.631  -2.160  1.00  0.00    -0.454 OA
ATOM     14  C   UNL     1       9.101  -4.644  -1.291  1.00  0.00     0.468 C 
ENDBRANCH   5   6
ENDBRANCH   1   5
TORSDOF 3
ENDMDL
MODEL 4
REMARK VINA RESULT:      -7.1      1.262      1.476
REMARK SMILES CC(=O)CCc1ccc2c(c1)OCO2
REMARK SMILES IDX 4 1 2 2 1 3 3 4 5 5 6 6 7 7 11 8 8 9 10 10 9 11 12 12 14 13
REMARK SMILES IDX 13 14
REMARK H PARENT
REMARK Flexibility Score: inf
ROOT
ATOM      1  C   UNL     1       6.371   1.239   0.907  1.00  0.00     0.080 C 
ENDROOT
BRANCH   1   2
ATOM      2  C   UNL     1       5.671   0.408   1.925  1.00  0.00     0.130 C 
ATOM      3  C   UNL     1       6.306  -0.799   2.520  1.00  0.00     0.087 C 
ATOM      4  O   UNL     1       4.547   0.695   2.304  1.00  0.00    -0.300 OA
ENDBRANCH   1   2
BRANCH   1   5
ATOM      5  C   UNL     1       5.865   0.940  -0.490  1.00  0.00     0.043 C 
BRANCH   5   6
ATOM      6  C   UNL     1       6.818   0.114  -1.253  1.00  0.00    -0.044 A 
ATOM      7  C   UNL     1       7.517   0.627  -2.352  1.00  0.00     0.008 A 
ATOM      8  C   UNL     1       7.037  -1.193  -0.882  1.00  0.00     0.054 A 
ATOM      9  C   UNL     1       8.400  -0.194  -3.028  1.00  0.00     0.051 A 
ATOM     10  C   UNL     1       7.932  -2.019  -1.569  1.00  0.00     0.166 A 
ATOM     11  C   UNL     1       8.618  -1.516  -2.651  1.00  0.00     0.165 A 
ATOM     12  O   UNL     1       8.317  -3.332  -1.400  1.00  0.00    -0.454 OA
ATOM     13  O   UNL     1       9.420  -2.540  -3.129  1.00  0.00    -0.454 OA
ATOM     14  C   UNL     1       9.329  -3.682  -2.310  1.00  0.00     0.468 C 
ENDBRANCH   5   6
ENDBRANCH   1   5
TORSDOF 3
ENDMDL
MODEL 5
REMARK VINA RESULT:      -6.8      1.251      1.746
REMARK SMILES CC(=O)CCc1ccc2c(c1)OCO2
REMARK SMILES IDX 4 1 2 2 1 3 3 4 5 5 6 6 7 7 11 8 8 9 10 10 9 11 12 12 14 13
REMARK SMILES IDX 13 14
REMARK H PARENT
REMARK Flexibility Score: inf
ROOT
ATOM      1  C   UNL     1       5.312  -0.084   1.937  1.00  0.00     0.080 C 
ENDROOT
BRANCH   1   2
ATOM      2  C   UNL     1       4.438   1.112   1.774  1.00  0.00     0.130 C 
ATOM      3  C   UNL     1       4.720   2.150   0.746  1.00  0.00     0.087 C 
ATOM      4  O   UNL     1       3.460   1.275   2.484  1.00  0.00    -0.300 OA
ENDBRANCH   1   2
BRANCH   1   5
ATOM      5  C   UNL     1       6.779   0.296   1.892  1.00  0.00     0.043 C 
BRANCH   5   6
ATOM      6  C   UNL     1       7.393  -0.051   0.598  1.00  0.00    -0.044 A 
ATOM      7  C   UNL     1       7.903   0.931  -0.258  1.00  0.00     0.008 A 
ATOM      8  C   UNL     1       7.475  -1.370   0.214  1.00  0.00     0.054 A 
ATOM      9  C   UNL     1       8.470   0.546  -1.460  1.00  0.00     0.051 A 
ATOM     10  C   UNL     1       8.049  -1.755  -1.001  1.00  0.00     0.166 A 
ATOM     11  C   UNL     1       8.550  -0.789  -1.845  1.00  0.00     0.165 A 
ATOM     12  O   UNL     1       8.246  -2.981  -1.601  1.00  0.00    -0.454 OA
ATOM     13  O   UNL     1       9.050  -1.448  -2.957  1.00  0.00    -0.454 OA
ATOM     14  C   UNL     1       8.960  -2.845  -2.803  1.00  0.00     0.468 C 
ENDBRANCH   5   6
ENDBRANCH   1   5
TORSDOF 3
ENDMDL
