@<TRIPOS>MOLECULE
/home/cewinharhar/GITHUB/reincatalyze/data/processed/docking_pred/2023-May-31-1438_sub9_nm5_bs15_s42_ex16_mel10_mts1000_k50_ec05_g099_lra9e-4_lrc3e-3/30246d56752cb6be0208f58fab85103c625ac011_ligand_9.pdbqt
 14 15 0 0 0
SMALL
GASTEIGER

@<TRIPOS>ATOM
      1  C          6.3710    1.2390    0.9070 C.3     1  UNL1        0.0800
      2  C          5.6710    0.4080    1.9250 C.2     1  UNL1        0.1300
      3  C          6.3060   -0.7990    2.5200 C.3     1  UNL1        0.0870
      4  O          4.5470    0.6950    2.3040 O.2     1  UNL1       -0.3000
      5  C          5.8650    0.9400   -0.4900 C.3     1  UNL1        0.0430
      6  C          6.8180    0.1140   -1.2530 C.2     1  UNL1       -0.0440
      7  C          7.5170    0.6270   -2.3520 C.2     1  UNL1        0.0080
      8  C          7.0370   -1.1930   -0.8820 C.2     1  UNL1        0.0540
      9  C          8.4000   -0.1940   -3.0280 C.2     1  UNL1        0.0510
     10  C          7.9320   -2.0190   -1.5690 C.2     1  UNL1        0.1660
     11  C          8.6180   -1.5160   -2.6510 C.2     1  UNL1        0.1650
     12  O          8.3170   -3.3320   -1.4000 O.2     1  UNL1       -0.4540
     13  O          9.4200   -2.5400   -3.1290 O.2     1  UNL1       -0.4540
     14  C          9.3290   -3.6820   -2.3100 C.3     1  UNL1        0.4680
@<TRIPOS>BOND
     1    13    11    1
     2    13    14    1
     3     9    11    2
     4     9     7    1
     5    11    10    1
     6     7     6    2
     7    14    12    1
     8    10    12    1
     9    10     8    2
    10     6     8    1
    11     6     5    1
    12     5     1    1
    13     1     2    1
    14     2     4    2
    15     2     3    1
