@<TRIPOS>MOLECULE
/home/cewinharhar/GITHUB/reincatalyze/data/processed/docking_pred/2023-May-31-1438_sub9_nm5_bs15_s42_ex16_mel10_mts1000_k50_ec05_g099_lra9e-4_lrc3e-3/30246d56752cb6be0208f58fab85103c625ac011_ligand_9.pdbqt
 14 15 0 0 0
SMALL
GASTEIGER

@<TRIPOS>ATOM
      1  C          5.5540    0.0210    1.9930 C.3     1  UNL1        0.0800
      2  C          4.6720    1.1750    1.6620 C.2     1  UNL1        0.1300
      3  C          4.9950    2.1110    0.5530 C.3     1  UNL1        0.0870
      4  O          3.6520    1.3870    2.2980 O.2     1  UNL1       -0.3000
      5  C          6.9790    0.2700    1.5410 C.3     1  UNL1        0.0430
      6  C          7.3920   -0.6770    0.4900 C.2     1  UNL1       -0.0440
      7  C          7.3280   -0.3400   -0.8670 C.2     1  UNL1        0.0080
      8  C          7.8560   -1.9250    0.8390 C.2     1  UNL1        0.0540
      9  C          7.7290   -1.2690   -1.8090 C.2     1  UNL1        0.0510
     10  C          8.2610   -2.8610   -0.1170 C.2     1  UNL1        0.1660
     11  C          8.1970   -2.5300   -1.4520 C.2     1  UNL1        0.1650
     12  O          8.7510   -4.1460   -0.0250 O.2     1  UNL1       -0.4540
     13  O          8.6540   -3.6310   -2.1600 O.2     1  UNL1       -0.4540
     14  C          9.1010   -4.6440   -1.2910 C.3     1  UNL1        0.4680
@<TRIPOS>BOND
     1    13    11    1
     2    13    14    1
     3     9    11    2
     4     9     7    1
     5    11    10    1
     6    14    12    1
     7     7     6    2
     8    10    12    1
     9    10     8    2
    10     6     8    1
    11     6     5    1
    12     3     2    1
    13     5     1    1
    14     2     1    1
    15     2     4    2
