@<TRIPOS>MOLECULE
/home/cewinharhar/GITHUB/reincatalyze/data/processed/docking_pred/2023-May-31-1438_sub9_nm5_bs15_s42_ex16_mel10_mts1000_k50_ec05_g099_lra9e-4_lrc3e-3/306d1dfeb5e1085b4f3e24b09348dc81ae645662_ligand_9.pdbqt
 14 15 0 0 0
SMALL
GASTEIGER

@<TRIPOS>ATOM
      1  C          5.4110   -0.0610    2.0340 C.3     1  UNL1        0.0800
      2  C          4.5560    1.1300    1.7700 C.2     1  UNL1        0.1300
      3  C          4.8940    2.1140    0.7070 C.3     1  UNL1        0.0870
      4  O          3.5460    1.3350    2.4250 O.2     1  UNL1       -0.3000
      5  C          6.8470    0.1900    1.6200 C.3     1  UNL1        0.0430
      6  C          7.2770   -0.7320    0.5540 C.2     1  UNL1       -0.0440
      7  C          7.1580   -0.3950   -0.8000 C.2     1  UNL1        0.0080
      8  C          7.8120   -1.9560    0.8850 C.2     1  UNL1        0.0540
      9  C          7.5790   -1.3010   -1.7560 C.2     1  UNL1        0.0510
     10  C          8.2370   -2.8680   -0.0860 C.2     1  UNL1        0.1660
     11  C          8.1190   -2.5380   -1.4170 C.2     1  UNL1        0.1650
     12  O          8.7920   -4.1280   -0.0130 O.2     1  UNL1       -0.4540
     13  O          8.6110   -3.6120   -2.1420 O.2     1  UNL1       -0.4540
     14  C          9.1310   -4.6040   -1.2900 C.3     1  UNL1        0.4680
@<TRIPOS>BOND
     1    13    11    1
     2    13    14    1
     3     9    11    2
     4     9     7    1
     5    11    10    1
     6    14    12    1
     7     7     6    2
     8    10    12    1
     9    10     8    2
    10     6     8    1
    11     6     5    1
    12     3     2    1
    13     5     1    1
    14     2     1    1
    15     2     4    2
