@<TRIPOS>MOLECULE
/home/cewinharhar/GITHUB/reincatalyze/data/processed/docking_pred/2023-May-31-1438_sub9_nm5_bs15_s42_ex16_mel10_mts1000_k50_ec05_g099_lra9e-4_lrc3e-3/31018d4d3337f577513d0037205f1d699057d88b_ligand_9.pdbqt
 14 15 0 0 0
SMALL
GASTEIGER

@<TRIPOS>ATOM
      1  C          5.7670    1.4390   -0.3460 C.3     1  UNL1        0.0800
      2  C          5.1310    1.3410    0.9970 C.2     1  UNL1        0.1300
      3  C          5.4940    0.2640    1.9560 C.3     1  UNL1        0.0870
      4  O          4.2870    2.1490    1.3510 O.2     1  UNL1       -0.3000
      5  C          7.2590    1.1840   -0.2690 C.3     1  UNL1        0.0430
      6  C          7.6240   -0.1110   -0.8710 C.2     1  UNL1       -0.0440
      7  C          7.7100   -0.2760   -2.2580 C.2     1  UNL1        0.0080
      8  C          7.8910   -1.1900   -0.0590 C.2     1  UNL1        0.0540
      9  C          8.0580   -1.5150   -2.7660 C.2     1  UNL1        0.0510
     10  C          8.2430   -2.4400   -0.5770 C.2     1  UNL1        0.1660
     11  C          8.3260   -2.6040   -1.9420 C.2     1  UNL1        0.1650
     12  O          8.5500   -3.6480    0.0110 O.2     1  UNL1       -0.4540
     13  O          8.6880   -3.9230   -2.1660 O.2     1  UNL1       -0.4540
     14  C          8.9290   -4.5970   -0.9540 C.3     1  UNL1        0.4680
@<TRIPOS>BOND
     1     9     7    1
     2     9    11    2
     3     7     6    2
     4    13    11    1
     5    13    14    1
     6    11    10    1
     7    14    12    1
     8     6     5    1
     9     6     8    1
    10    10     8    2
    11    10    12    1
    12     1     5    1
    13     1     2    1
    14     2     4    2
    15     2     3    1
