@<TRIPOS>MOLECULE
/home/cewinharhar/GITHUB/reincatalyze/data/processed/docking_pred/2023-May-31-1438_sub9_nm5_bs15_s42_ex16_mel10_mts1000_k50_ec05_g099_lra9e-4_lrc3e-3/31018d4d3337f577513d0037205f1d699057d88b_ligand_9.pdbqt
 14 15 0 0 0
SMALL
GASTEIGER

@<TRIPOS>ATOM
      1  C          5.6060    1.8560    1.2960 C.3     1  UNL1        0.0800
      2  C          5.1550    0.6440    2.0350 C.2     1  UNL1        0.1300
      3  C          6.0430   -0.5350    2.2170 C.3     1  UNL1        0.0870
      4  O          4.0340    0.5830    2.5150 O.2     1  UNL1       -0.3000
      5  C          5.4530    1.6770   -0.2010 C.3     1  UNL1        0.0430
      6  C          6.6110    0.9800   -0.7890 C.2     1  UNL1       -0.0440
      7  C          7.9200    1.4300   -0.5830 C.2     1  UNL1        0.0080
      8  C          6.4120   -0.1440   -1.5600 C.2     1  UNL1        0.0540
      9  C          8.9670    0.7350   -1.1600 C.2     1  UNL1        0.0510
     10  C          7.4740   -0.8430   -2.1400 C.2     1  UNL1        0.1660
     11  C          8.7620   -0.4000   -1.9380 C.2     1  UNL1        0.1650
     12  O          7.5360   -1.9680   -2.9340 O.2     1  UNL1       -0.4540
     13  O          9.5970   -1.2720   -2.6190 O.2     1  UNL1       -0.4540
     14  C          8.8680   -2.3330   -3.1890 C.3     1  UNL1        0.4680
@<TRIPOS>BOND
     1    14    12    1
     2    14    13    1
     3    12    10    1
     4    13    11    1
     5    10    11    2
     6    10     8    1
     7    11     9    1
     8     8     6    2
     9     9     7    2
    10     6     7    1
    11     6     5    1
    12     5     1    1
    13     1     2    1
    14     2     3    1
    15     2     4    2
