@<TRIPOS>MOLECULE
/home/cewinharhar/GITHUB/reincatalyze/data/processed/docking_pred/2023-May-31-1438_sub9_nm5_bs15_s42_ex16_mel10_mts1000_k50_ec05_g099_lra9e-4_lrc3e-3/31018d4d3337f577513d0037205f1d699057d88b_ligand_9.pdbqt
 14 15 0 0 0
SMALL
GASTEIGER

@<TRIPOS>ATOM
      1  C          6.7790    0.7980    1.4350 C.3     1  UNL1        0.0800
      2  C          5.3360    1.1650    1.4790 C.2     1  UNL1        0.1300
      3  C          4.7490    2.1430    0.5250 C.3     1  UNL1        0.0870
      4  O          4.5890    0.6700    2.3080 O.2     1  UNL1       -0.3000
      5  C          7.3640    1.0320    0.0560 C.3     1  UNL1        0.0430
      6  C          7.6890   -0.2360   -0.6220 C.2     1  UNL1       -0.0440
      7  C          7.7040   -0.3390   -2.0170 C.2     1  UNL1        0.0080
      8  C          7.9900   -1.3520    0.1270 C.2     1  UNL1        0.0540
      9  C          8.0170   -1.5550   -2.5970 C.2     1  UNL1        0.0510
     10  C          8.3070   -2.5780   -0.4640 C.2     1  UNL1        0.1660
     11  C          8.3200   -2.6810   -1.8380 C.2     1  UNL1        0.1650
     12  O          8.6360   -3.8140    0.0520 O.2     1  UNL1       -0.4540
     13  O          8.6620   -3.9900   -2.1390 O.2     1  UNL1       -0.4540
     14  C          8.9590   -4.7190   -0.9720 C.3     1  UNL1        0.4680
@<TRIPOS>BOND
     1     9     7    1
     2     9    11    2
     3    13    11    1
     4    13    14    1
     5     7     6    2
     6    11    10    1
     7    14    12    1
     8     6     5    1
     9     6     8    1
    10    10    12    1
    11    10     8    2
    12     5     1    1
    13     3     2    1
    14     1     2    1
    15     2     4    2
