MODEL 1
REMARK VINA RESULT:      -7.7      0.000      0.000
REMARK SMILES CC(=O)CCc1ccc2c(c1)OCO2
REMARK SMILES IDX 4 1 2 2 1 3 3 4 5 5 6 6 7 7 11 8 8 9 10 10 9 11 12 12 14 13
REMARK SMILES IDX 13 14
REMARK H PARENT
REMARK Flexibility Score: inf
ROOT
ATOM      1  C   UNL     1       5.527   1.914   1.252  1.00  0.00     0.080 C 
ENDROOT
BRANCH   1   2
ATOM      2  C   UNL     1       5.081   0.708   2.003  1.00  0.00     0.130 C 
ATOM      3  C   UNL     1       5.963  -0.478   2.173  1.00  0.00     0.087 C 
ATOM      4  O   UNL     1       3.969   0.657   2.504  1.00  0.00    -0.300 OA
ENDBRANCH   1   2
BRANCH   1   5
ATOM      5  C   UNL     1       5.397   1.709  -0.245  1.00  0.00     0.043 C 
BRANCH   5   6
ATOM      6  C   UNL     1       6.570   1.015  -0.805  1.00  0.00    -0.044 A 
ATOM      7  C   UNL     1       7.873   1.462  -0.560  1.00  0.00     0.008 A 
ATOM      8  C   UNL     1       6.391  -0.103  -1.588  1.00  0.00     0.054 A 
ATOM      9  C   UNL     1       8.935   0.769  -1.112  1.00  0.00     0.051 A 
ATOM     10  C   UNL     1       7.468  -0.801  -2.143  1.00  0.00     0.166 A 
ATOM     11  C   UNL     1       8.751  -0.361  -1.904  1.00  0.00     0.165 A 
ATOM     12  O   UNL     1       7.550  -1.921  -2.943  1.00  0.00    -0.454 OA
ATOM     13  O   UNL     1       9.603  -1.229  -2.567  1.00  0.00    -0.454 OA
ATOM     14  C   UNL     1       8.888  -2.285  -3.164  1.00  0.00     0.468 C 
ENDBRANCH   5   6
ENDBRANCH   1   5
TORSDOF 3
ENDMDL
MODEL 2
REMARK VINA RESULT:      -7.4      1.920      2.402
REMARK SMILES CC(=O)CCc1ccc2c(c1)OCO2
REMARK SMILES IDX 4 1 2 2 1 3 3 4 5 5 6 6 7 7 11 8 8 9 10 10 9 11 12 12 14 13
REMARK SMILES IDX 13 14
REMARK H PARENT
REMARK Flexibility Score: inf
ROOT
ATOM      1  C   UNL     1       5.744   1.255  -0.286  1.00  0.00     0.080 C 
ENDROOT
BRANCH   1   2
ATOM      2  C   UNL     1       5.197   1.199   1.098  1.00  0.00     0.130 C 
ATOM      3  C   UNL     1       5.358  -0.007   1.954  1.00  0.00     0.087 C 
ATOM      4  O   UNL     1       4.597   2.150   1.573  1.00  0.00    -0.300 OA
ENDBRANCH   1   2
BRANCH   1   5
ATOM      5  C   UNL     1       7.246   1.050  -0.294  1.00  0.00     0.043 C 
BRANCH   5   6
ATOM      6  C   UNL     1       7.618  -0.241  -0.900  1.00  0.00    -0.044 A 
ATOM      7  C   UNL     1       7.679  -0.407  -2.289  1.00  0.00     0.008 A 
ATOM      8  C   UNL     1       7.918  -1.314  -0.092  1.00  0.00     0.054 A 
ATOM      9  C   UNL     1       8.036  -1.642  -2.801  1.00  0.00     0.051 A 
ATOM     10  C   UNL     1       8.279  -2.559  -0.615  1.00  0.00     0.166 A 
ATOM     11  C   UNL     1       8.337  -2.724  -1.981  1.00  0.00     0.165 A 
ATOM     12  O   UNL     1       8.616  -3.761  -0.031  1.00  0.00    -0.454 OA
ATOM     13  O   UNL     1       8.715  -4.038  -2.210  1.00  0.00    -0.454 OA
ATOM     14  C   UNL     1       8.991  -4.706  -1.001  1.00  0.00     0.468 C 
ENDBRANCH   5   6
ENDBRANCH   1   5
TORSDOF 3
ENDMDL
MODEL 3
REMARK VINA RESULT:      -7.2      2.081      2.633
REMARK SMILES CC(=O)CCc1ccc2c(c1)OCO2
REMARK SMILES IDX 4 1 2 2 1 3 3 4 5 5 6 6 7 7 11 8 8 9 10 10 9 11 12 12 14 13
REMARK SMILES IDX 13 14
REMARK H PARENT
REMARK Flexibility Score: inf
ROOT
ATOM      1  C   UNL     1       5.515  -0.028   1.944  1.00  0.00     0.080 C 
ENDROOT
BRANCH   1   2
ATOM      2  C   UNL     1       4.653   1.149   1.642  1.00  0.00     0.130 C 
ATOM      3  C   UNL     1       4.977   2.091   0.537  1.00  0.00     0.087 C 
ATOM      4  O   UNL     1       3.650   1.376   2.298  1.00  0.00    -0.300 OA
ENDBRANCH   1   2
BRANCH   1   5
ATOM      5  C   UNL     1       6.945   0.210   1.502  1.00  0.00     0.043 C 
BRANCH   5   6
ATOM      6  C   UNL     1       7.359  -0.742   0.455  1.00  0.00    -0.044 A 
ATOM      7  C   UNL     1       7.246  -0.430  -0.905  1.00  0.00     0.008 A 
ATOM      8  C   UNL     1       7.873  -1.968   0.812  1.00  0.00     0.054 A 
ATOM      9  C   UNL     1       7.651  -1.362  -1.843  1.00  0.00     0.051 A 
ATOM     10  C   UNL     1       8.282  -2.906  -0.140  1.00  0.00     0.166 A 
ATOM     11  C   UNL     1       8.169  -2.601  -1.478  1.00  0.00     0.165 A 
ATOM     12  O   UNL     1       8.815  -4.174  -0.042  1.00  0.00    -0.454 OA
ATOM     13  O   UNL     1       8.642  -3.698  -2.181  1.00  0.00    -0.454 OA
ATOM     14  C   UNL     1       9.146  -4.682  -1.309  1.00  0.00     0.468 C 
ENDBRANCH   5   6
ENDBRANCH   1   5
TORSDOF 3
ENDMDL
MODEL 4
REMARK VINA RESULT:      -7.1      1.255      1.468
REMARK SMILES CC(=O)CCc1ccc2c(c1)OCO2
REMARK SMILES IDX 4 1 2 2 1 3 3 4 5 5 6 6 7 7 11 8 8 9 10 10 9 11 12 12 14 13
REMARK SMILES IDX 13 14
REMARK H PARENT
REMARK Flexibility Score: inf
ROOT
ATOM      1  C   UNL     1       6.381   1.173   0.935  1.00  0.00     0.080 C 
ENDROOT
BRANCH   1   2
ATOM      2  C   UNL     1       5.658   0.354   1.948  1.00  0.00     0.130 C 
ATOM      3  C   UNL     1       6.256  -0.879   2.526  1.00  0.00     0.087 C 
ATOM      4  O   UNL     1       4.545   0.674   2.334  1.00  0.00    -0.300 OA
ENDBRANCH   1   2
BRANCH   1   5
ATOM      5  C   UNL     1       5.869   0.896  -0.464  1.00  0.00     0.043 C 
BRANCH   5   6
ATOM      6  C   UNL     1       6.816   0.076  -1.240  1.00  0.00    -0.044 A 
ATOM      7  C   UNL     1       7.496   0.592  -2.349  1.00  0.00     0.008 A 
ATOM      8  C   UNL     1       7.047  -1.231  -0.873  1.00  0.00     0.054 A 
ATOM      9  C   UNL     1       8.374  -0.224  -3.039  1.00  0.00     0.051 A 
ATOM     10  C   UNL     1       7.936  -2.052  -1.573  1.00  0.00     0.166 A 
ATOM     11  C   UNL     1       8.605  -1.544  -2.665  1.00  0.00     0.165 A 
ATOM     12  O   UNL     1       8.331  -3.363  -1.410  1.00  0.00    -0.454 OA
ATOM     13  O   UNL     1       9.405  -2.564  -3.154  1.00  0.00    -0.454 OA
ATOM     14  C   UNL     1       9.331  -3.706  -2.335  1.00  0.00     0.468 C 
ENDBRANCH   5   6
ENDBRANCH   1   5
TORSDOF 3
ENDMDL
MODEL 5
REMARK VINA RESULT:      -6.8      1.273      1.763
REMARK SMILES CC(=O)CCc1ccc2c(c1)OCO2
REMARK SMILES IDX 4 1 2 2 1 3 3 4 5 5 6 6 7 7 11 8 8 9 10 10 9 11 12 12 14 13
REMARK SMILES IDX 13 14
REMARK H PARENT
REMARK Flexibility Score: inf
ROOT
ATOM      1  C   UNL     1       5.330  -0.096   1.938  1.00  0.00     0.080 C 
ENDROOT
BRANCH   1   2
ATOM      2  C   UNL     1       4.460   1.103   1.788  1.00  0.00     0.130 C 
ATOM      3  C   UNL     1       4.742   2.150   0.769  1.00  0.00     0.087 C 
ATOM      4  O   UNL     1       3.484   1.263   2.503  1.00  0.00    -0.300 OA
ENDBRANCH   1   2
BRANCH   1   5
ATOM      5  C   UNL     1       6.798   0.277   1.877  1.00  0.00     0.043 C 
BRANCH   5   6
ATOM      6  C   UNL     1       7.401  -0.087   0.582  1.00  0.00    -0.044 A 
ATOM      7  C   UNL     1       7.870   0.887  -0.308  1.00  0.00     0.008 A 
ATOM      8  C   UNL     1       7.512  -1.412   0.230  1.00  0.00     0.054 A 
ATOM      9  C   UNL     1       8.427   0.486  -1.508  1.00  0.00     0.051 A 
ATOM     10  C   UNL     1       8.077  -1.813  -0.985  1.00  0.00     0.166 A 
ATOM     11  C   UNL     1       8.538  -0.856  -1.861  1.00  0.00     0.165 A 
ATOM     12  O   UNL     1       8.297  -3.048  -1.557  1.00  0.00    -0.454 OA
ATOM     13  O   UNL     1       9.038  -1.530  -2.964  1.00  0.00    -0.454 OA
ATOM     14  C   UNL     1       8.988  -2.924  -2.774  1.00  0.00     0.468 C 
ENDBRANCH   5   6
ENDBRANCH   1   5
TORSDOF 3
ENDMDL
