@<TRIPOS>MOLECULE
/home/cewinharhar/GITHUB/reincatalyze/data/processed/docking_pred/2023-May-31-1438_sub9_nm5_bs15_s42_ex16_mel10_mts1000_k50_ec05_g099_lra9e-4_lrc3e-3/31638bda67923b1bb66f4f033a77b51352de91e4_ligand_9.pdbqt
 14 15 0 0 0
SMALL
GASTEIGER

@<TRIPOS>ATOM
      1  C          5.5270    1.9140    1.2520 C.3     1  UNL1        0.0800
      2  C          5.0810    0.7080    2.0030 C.2     1  UNL1        0.1300
      3  C          5.9630   -0.4780    2.1730 C.3     1  UNL1        0.0870
      4  O          3.9690    0.6570    2.5040 O.2     1  UNL1       -0.3000
      5  C          5.3970    1.7090   -0.2450 C.3     1  UNL1        0.0430
      6  C          6.5700    1.0150   -0.8050 C.2     1  UNL1       -0.0440
      7  C          7.8730    1.4620   -0.5600 C.2     1  UNL1        0.0080
      8  C          6.3910   -0.1030   -1.5880 C.2     1  UNL1        0.0540
      9  C          8.9350    0.7690   -1.1120 C.2     1  UNL1        0.0510
     10  C          7.4680   -0.8010   -2.1430 C.2     1  UNL1        0.1660
     11  C          8.7510   -0.3610   -1.9040 C.2     1  UNL1        0.1650
     12  O          7.5500   -1.9210   -2.9430 O.2     1  UNL1       -0.4540
     13  O          9.6030   -1.2290   -2.5670 O.2     1  UNL1       -0.4540
     14  C          8.8880   -2.2850   -3.1640 C.3     1  UNL1        0.4680
@<TRIPOS>BOND
     1    14    12    1
     2    14    13    1
     3    12    10    1
     4    13    11    1
     5    10    11    2
     6    10     8    1
     7    11     9    1
     8     8     6    2
     9     9     7    2
    10     6     7    1
    11     6     5    1
    12     5     1    1
    13     1     2    1
    14     2     3    1
    15     2     4    2
