@<TRIPOS>MOLECULE
/home/cewinharhar/GITHUB/reincatalyze/data/processed/docking_pred/2023-May-31-1438_sub9_nm5_bs15_s42_ex16_mel10_mts1000_k50_ec05_g099_lra9e-4_lrc3e-3/31638bda67923b1bb66f4f033a77b51352de91e4_ligand_9.pdbqt
 14 15 0 0 0
SMALL
GASTEIGER

@<TRIPOS>ATOM
      1  C          5.3300   -0.0960    1.9380 C.3     1  UNL1        0.0800
      2  C          4.4600    1.1030    1.7880 C.2     1  UNL1        0.1300
      3  C          4.7420    2.1500    0.7690 C.3     1  UNL1        0.0870
      4  O          3.4840    1.2630    2.5030 O.2     1  UNL1       -0.3000
      5  C          6.7980    0.2770    1.8770 C.3     1  UNL1        0.0430
      6  C          7.4010   -0.0870    0.5820 C.2     1  UNL1       -0.0440
      7  C          7.8700    0.8870   -0.3080 C.2     1  UNL1        0.0080
      8  C          7.5120   -1.4120    0.2300 C.2     1  UNL1        0.0540
      9  C          8.4270    0.4860   -1.5080 C.2     1  UNL1        0.0510
     10  C          8.0770   -1.8130   -0.9850 C.2     1  UNL1        0.1660
     11  C          8.5380   -0.8560   -1.8610 C.2     1  UNL1        0.1650
     12  O          8.2970   -3.0480   -1.5570 O.2     1  UNL1       -0.4540
     13  O          9.0380   -1.5300   -2.9640 O.2     1  UNL1       -0.4540
     14  C          8.9880   -2.9240   -2.7740 C.3     1  UNL1        0.4680
@<TRIPOS>BOND
     1    13    14    1
     2    13    11    1
     3    14    12    1
     4    11     9    2
     5    11    10    1
     6    12    10    1
     7     9     7    1
     8    10     8    2
     9     7     6    2
    10     8     6    1
    11     6     5    1
    12     3     2    1
    13     2     1    1
    14     2     4    2
    15     5     1    1
