@<TRIPOS>MOLECULE
/home/cewinharhar/GITHUB/reincatalyze/data/processed/docking_pred/2023-May-31-1438_sub9_nm5_bs15_s42_ex16_mel10_mts1000_k50_ec05_g099_lra9e-4_lrc3e-3/31638bda67923b1bb66f4f033a77b51352de91e4_ligand_9.pdbqt
 14 15 0 0 0
SMALL
GASTEIGER

@<TRIPOS>ATOM
      1  C          5.5150   -0.0280    1.9440 C.3     1  UNL1        0.0800
      2  C          4.6530    1.1490    1.6420 C.2     1  UNL1        0.1300
      3  C          4.9770    2.0910    0.5370 C.3     1  UNL1        0.0870
      4  O          3.6500    1.3760    2.2980 O.2     1  UNL1       -0.3000
      5  C          6.9450    0.2100    1.5020 C.3     1  UNL1        0.0430
      6  C          7.3590   -0.7420    0.4550 C.2     1  UNL1       -0.0440
      7  C          7.2460   -0.4300   -0.9050 C.2     1  UNL1        0.0080
      8  C          7.8730   -1.9680    0.8120 C.2     1  UNL1        0.0540
      9  C          7.6510   -1.3620   -1.8430 C.2     1  UNL1        0.0510
     10  C          8.2820   -2.9060   -0.1400 C.2     1  UNL1        0.1660
     11  C          8.1690   -2.6010   -1.4780 C.2     1  UNL1        0.1650
     12  O          8.8150   -4.1740   -0.0420 O.2     1  UNL1       -0.4540
     13  O          8.6420   -3.6980   -2.1810 O.2     1  UNL1       -0.4540
     14  C          9.1460   -4.6820   -1.3090 C.3     1  UNL1        0.4680
@<TRIPOS>BOND
     1    13    11    1
     2    13    14    1
     3     9    11    2
     4     9     7    1
     5    11    10    1
     6    14    12    1
     7     7     6    2
     8    10    12    1
     9    10     8    2
    10     6     8    1
    11     6     5    1
    12     3     2    1
    13     5     1    1
    14     2     1    1
    15     2     4    2
