@<TRIPOS>MOLECULE
/home/cewinharhar/GITHUB/reincatalyze/data/processed/docking_pred/2023-May-31-1438_sub9_nm5_bs15_s42_ex16_mel10_mts1000_k50_ec05_g099_lra9e-4_lrc3e-3/31638bda67923b1bb66f4f033a77b51352de91e4_ligand_9.pdbqt
 14 15 0 0 0
SMALL
GASTEIGER

@<TRIPOS>ATOM
      1  C          6.3810    1.1730    0.9350 C.3     1  UNL1        0.0800
      2  C          5.6580    0.3540    1.9480 C.2     1  UNL1        0.1300
      3  C          6.2560   -0.8790    2.5260 C.3     1  UNL1        0.0870
      4  O          4.5450    0.6740    2.3340 O.2     1  UNL1       -0.3000
      5  C          5.8690    0.8960   -0.4640 C.3     1  UNL1        0.0430
      6  C          6.8160    0.0760   -1.2400 C.2     1  UNL1       -0.0440
      7  C          7.4960    0.5920   -2.3490 C.2     1  UNL1        0.0080
      8  C          7.0470   -1.2310   -0.8730 C.2     1  UNL1        0.0540
      9  C          8.3740   -0.2240   -3.0390 C.2     1  UNL1        0.0510
     10  C          7.9360   -2.0520   -1.5730 C.2     1  UNL1        0.1660
     11  C          8.6050   -1.5440   -2.6650 C.2     1  UNL1        0.1650
     12  O          8.3310   -3.3630   -1.4100 O.2     1  UNL1       -0.4540
     13  O          9.4050   -2.5640   -3.1540 O.2     1  UNL1       -0.4540
     14  C          9.3310   -3.7060   -2.3350 C.3     1  UNL1        0.4680
@<TRIPOS>BOND
     1    13    11    1
     2    13    14    1
     3     9    11    2
     4     9     7    1
     5    11    10    1
     6     7     6    2
     7    14    12    1
     8    10    12    1
     9    10     8    2
    10     6     8    1
    11     6     5    1
    12     5     1    1
    13     1     2    1
    14     2     4    2
    15     2     3    1
