@<TRIPOS>MOLECULE
/home/cewinharhar/GITHUB/reincatalyze/data/processed/docking_pred/2023-May-31-1438_sub9_nm5_bs15_s42_ex16_mel10_mts1000_k50_ec05_g099_lra9e-4_lrc3e-3/31de0aabf4a391366091aaa04775d5537fef7eaf_ligand_9.pdbqt
 14 15 0 0 0
SMALL
GASTEIGER

@<TRIPOS>ATOM
      1  C         11.9200   -1.2090    1.2270 C.3     1  UNL1        0.0800
      2  C         10.7760   -0.6160    0.4790 C.2     1  UNL1        0.1300
      3  C         10.9870    0.2980   -0.6750 C.3     1  UNL1        0.0870
      4  O          9.6240   -0.8660    0.7960 O.2     1  UNL1       -0.3000
      5  C         12.8180   -2.0150    0.3100 C.3     1  UNL1        0.0430
      6  C         12.0540   -3.0010   -0.4760 C.2     1  UNL1       -0.0440
      7  C         12.5080   -3.4590   -1.7180 C.2     1  UNL1        0.0080
      8  C         10.8650   -3.4900    0.0150 C.2     1  UNL1        0.0540
      9  C         11.7490   -4.3850   -2.4090 C.2     1  UNL1        0.0510
     10  C         10.1010   -4.4270   -0.6870 C.2     1  UNL1        0.1660
     11  C         10.5470   -4.8780   -1.9100 C.2     1  UNL1        0.1650
     12  O          8.9050   -5.0570   -0.4180 O.2     1  UNL1       -0.4540
     13  O          9.6050   -5.7850   -2.3700 O.2     1  UNL1       -0.4540
     14  C          8.5930   -5.9960   -1.4140 C.3     1  UNL1        0.4680
@<TRIPOS>BOND
     1     9    11    2
     2     9     7    1
     3    13    11    1
     4    13    14    1
     5    11    10    1
     6     7     6    2
     7    14    12    1
     8    10    12    1
     9    10     8    2
    10     3     2    1
    11     6     8    1
    12     6     5    1
    13     5     1    1
    14     2     4    2
    15     2     1    1
