@<TRIPOS>MOLECULE
/home/cewinharhar/GITHUB/reincatalyze/data/processed/docking_pred/2023-May-31-1438_sub9_nm5_bs15_s42_ex16_mel10_mts1000_k50_ec05_g099_lra9e-4_lrc3e-3/31de0aabf4a391366091aaa04775d5537fef7eaf_ligand_9.pdbqt
 14 15 0 0 0
SMALL
GASTEIGER

@<TRIPOS>ATOM
      1  C          6.8120   -1.1130    2.0570 C.3     1  UNL1        0.0800
      2  C          5.8200   -0.0020    2.0240 C.2     1  UNL1        0.1300
      3  C          6.1950    1.3650    1.5750 C.3     1  UNL1        0.0870
      4  O          4.6630   -0.1850    2.3660 O.2     1  UNL1       -0.3000
      5  C          8.2300   -0.5890    1.9480 C.3     1  UNL1        0.0430
      6  C          9.1190   -1.5530    1.2760 C.2     1  UNL1       -0.0440
      7  C          8.7760   -2.9040    1.1540 C.2     1  UNL1        0.0080
      8  C         10.3160   -1.1240    0.7490 C.2     1  UNL1        0.0540
      9  C          9.6500   -3.7630    0.5120 C.2     1  UNL1        0.0510
     10  C         11.1950   -1.9960    0.0990 C.2     1  UNL1        0.1660
     11  C         10.8600   -3.3260   -0.0190 C.2     1  UNL1        0.1650
     12  O         12.4250   -1.8170   -0.4990 O.2     1  UNL1       -0.4540
     13  O         11.9000   -3.9430   -0.6960 O.2     1  UNL1       -0.4540
     14  C         12.8710   -3.0060   -1.0990 C.3     1  UNL1        0.4680
@<TRIPOS>BOND
     1    14    13    1
     2    14    12    1
     3    13    11    1
     4    12    10    1
     5    11    10    2
     6    11     9    1
     7    10     8    1
     8     9     7    2
     9     8     6    2
    10     7     6    1
    11     6     5    1
    12     3     2    1
    13     5     1    1
    14     2     1    1
    15     2     4    2
