@<TRIPOS>MOLECULE
/home/cewinharhar/GITHUB/reincatalyze/data/processed/docking_pred/2023-May-31-1438_sub9_nm5_bs15_s42_ex16_mel10_mts1000_k50_ec05_g099_lra9e-4_lrc3e-3/367438b83e07ec58543242b49c62b5ced391bd04_ligand_9.pdbqt
 14 15 0 0 0
SMALL
GASTEIGER

@<TRIPOS>ATOM
      1  C          5.7350    1.3340   -0.3080 C.3     1  UNL1        0.0800
      2  C          5.1090    1.2620    1.0420 C.2     1  UNL1        0.1300
      3  C          5.3530    0.1130    1.9550 C.3     1  UNL1        0.0870
      4  O          4.3710    2.1490    1.4390 O.2     1  UNL1       -0.3000
      5  C          7.2280    1.0840   -0.2360 C.3     1  UNL1        0.0430
      6  C          7.5940   -0.2110   -0.8380 C.2     1  UNL1       -0.0440
      7  C          7.6420   -0.3860   -2.2260 C.2     1  UNL1        0.0080
      8  C          7.9020   -1.2790   -0.0260 C.2     1  UNL1        0.0540
      9  C          7.9930   -1.6240   -2.7340 C.2     1  UNL1        0.0510
     10  C          8.2570   -2.5270   -0.5450 C.2     1  UNL1        0.1660
     11  C          8.3020   -2.7010   -1.9100 C.2     1  UNL1        0.1650
     12  O          8.6000   -3.7260    0.0430 O.2     1  UNL1       -0.4540
     13  O          8.6770   -4.0170   -2.1340 O.2     1  UNL1       -0.4540
     14  C          8.9640   -4.6770   -0.9240 C.3     1  UNL1        0.4680
@<TRIPOS>BOND
     1     9     7    1
     2     9    11    2
     3     7     6    2
     4    13    11    1
     5    13    14    1
     6    11    10    1
     7    14    12    1
     8     6     5    1
     9     6     8    1
    10    10     8    2
    11    10    12    1
    12     1     5    1
    13     1     2    1
    14     2     4    2
    15     2     3    1
