MODEL 1
REMARK VINA RESULT:      -7.6      0.000      0.000
REMARK SMILES CC(=O)CCc1ccc2c(c1)OCO2
REMARK SMILES IDX 4 1 2 2 1 3 3 4 5 5 6 6 7 7 11 8 8 9 10 10 9 11 12 12 14 13
REMARK SMILES IDX 13 14
REMARK H PARENT
REMARK Flexibility Score: inf
ROOT
ATOM      1  C   UNL     1       5.549   1.916   1.276  1.00  0.00     0.080 C 
ENDROOT
BRANCH   1   2
ATOM      2  C   UNL     1       5.117   0.695   2.012  1.00  0.00     0.130 C 
ATOM      3  C   UNL     1       6.024  -0.469   2.194  1.00  0.00     0.087 C 
ATOM      4  O   UNL     1       3.996   0.615   2.489  1.00  0.00    -0.300 OA
ENDBRANCH   1   2
BRANCH   1   5
ATOM      5  C   UNL     1       5.416   1.732  -0.223  1.00  0.00     0.043 C 
BRANCH   5   6
ATOM      6  C   UNL     1       6.580   1.029  -0.792  1.00  0.00    -0.044 A 
ATOM      7  C   UNL     1       7.888   1.464  -0.552  1.00  0.00     0.008 A 
ATOM      8  C   UNL     1       6.387  -0.084  -1.578  1.00  0.00     0.054 A 
ATOM      9  C   UNL     1       8.941   0.765  -1.112  1.00  0.00     0.051 A 
ATOM     10  C   UNL     1       7.455  -0.788  -2.142  1.00  0.00     0.166 A 
ATOM     11  C   UNL     1       8.743  -0.360  -1.907  1.00  0.00     0.165 A 
ATOM     12  O   UNL     1       7.524  -1.905  -2.947  1.00  0.00    -0.454 OA
ATOM     13  O   UNL     1       9.584  -1.233  -2.579  1.00  0.00    -0.454 OA
ATOM     14  C   UNL     1       8.858  -2.281  -3.176  1.00  0.00     0.468 C 
ENDBRANCH   5   6
ENDBRANCH   1   5
TORSDOF 3
ENDMDL
MODEL 2
REMARK VINA RESULT:      -7.4      1.947      2.412
REMARK SMILES CC(=O)CCc1ccc2c(c1)OCO2
REMARK SMILES IDX 4 1 2 2 1 3 3 4 5 5 6 6 7 7 11 8 8 9 10 10 9 11 12 12 14 13
REMARK SMILES IDX 13 14
REMARK H PARENT
REMARK Flexibility Score: inf
ROOT
ATOM      1  C   UNL     1       5.735   1.334  -0.308  1.00  0.00     0.080 C 
ENDROOT
BRANCH   1   2
ATOM      2  C   UNL     1       5.109   1.262   1.042  1.00  0.00     0.130 C 
ATOM      3  C   UNL     1       5.353   0.113   1.955  1.00  0.00     0.087 C 
ATOM      4  O   UNL     1       4.371   2.149   1.439  1.00  0.00    -0.300 OA
ENDBRANCH   1   2
BRANCH   1   5
ATOM      5  C   UNL     1       7.228   1.084  -0.236  1.00  0.00     0.043 C 
BRANCH   5   6
ATOM      6  C   UNL     1       7.594  -0.211  -0.838  1.00  0.00    -0.044 A 
ATOM      7  C   UNL     1       7.642  -0.386  -2.226  1.00  0.00     0.008 A 
ATOM      8  C   UNL     1       7.902  -1.279  -0.026  1.00  0.00     0.054 A 
ATOM      9  C   UNL     1       7.993  -1.624  -2.734  1.00  0.00     0.051 A 
ATOM     10  C   UNL     1       8.257  -2.527  -0.545  1.00  0.00     0.166 A 
ATOM     11  C   UNL     1       8.302  -2.701  -1.910  1.00  0.00     0.165 A 
ATOM     12  O   UNL     1       8.600  -3.726   0.043  1.00  0.00    -0.454 OA
ATOM     13  O   UNL     1       8.677  -4.017  -2.134  1.00  0.00    -0.454 OA
ATOM     14  C   UNL     1       8.964  -4.677  -0.924  1.00  0.00     0.468 C 
ENDBRANCH   5   6
ENDBRANCH   1   5
TORSDOF 3
ENDMDL
MODEL 3
REMARK VINA RESULT:      -7.2      2.059      2.641
REMARK SMILES CC(=O)CCc1ccc2c(c1)OCO2
REMARK SMILES IDX 4 1 2 2 1 3 3 4 5 5 6 6 7 7 11 8 8 9 10 10 9 11 12 12 14 13
REMARK SMILES IDX 13 14
REMARK H PARENT
REMARK Flexibility Score: inf
ROOT
ATOM      1  C   UNL     1       5.397  -0.076   2.022  1.00  0.00     0.080 C 
ENDROOT
BRANCH   1   2
ATOM      2  C   UNL     1       4.555   1.128   1.773  1.00  0.00     0.130 C 
ATOM      3  C   UNL     1       4.903   2.120   0.721  1.00  0.00     0.087 C 
ATOM      4  O   UNL     1       3.548   1.335   2.431  1.00  0.00    -0.300 OA
ENDBRANCH   1   2
BRANCH   1   5
ATOM      5  C   UNL     1       6.838   0.168   1.619  1.00  0.00     0.043 C 
BRANCH   5   6
ATOM      6  C   UNL     1       7.270  -0.753   0.553  1.00  0.00    -0.044 A 
ATOM      7  C   UNL     1       7.149  -0.417  -0.800  1.00  0.00     0.008 A 
ATOM      8  C   UNL     1       7.809  -1.975   0.885  1.00  0.00     0.054 A 
ATOM      9  C   UNL     1       7.572  -1.321  -1.757  1.00  0.00     0.051 A 
ATOM     10  C   UNL     1       8.237  -2.886  -0.086  1.00  0.00     0.166 A 
ATOM     11  C   UNL     1       8.117  -2.556  -1.418  1.00  0.00     0.165 A 
ATOM     12  O   UNL     1       8.797  -4.144  -0.013  1.00  0.00    -0.454 OA
ATOM     13  O   UNL     1       8.612  -3.629  -2.143  1.00  0.00    -0.454 OA
ATOM     14  C   UNL     1       9.137  -4.619  -1.291  1.00  0.00     0.468 C 
ENDBRANCH   5   6
ENDBRANCH   1   5
TORSDOF 3
ENDMDL
MODEL 4
REMARK VINA RESULT:      -7.1      1.232      1.420
REMARK SMILES CC(=O)CCc1ccc2c(c1)OCO2
REMARK SMILES IDX 4 1 2 2 1 3 3 4 5 5 6 6 7 7 11 8 8 9 10 10 9 11 12 12 14 13
REMARK SMILES IDX 13 14
REMARK H PARENT
REMARK Flexibility Score: inf
ROOT
ATOM      1  C   UNL     1       6.335   1.288   0.900  1.00  0.00     0.080 C 
ENDROOT
BRANCH   1   2
ATOM      2  C   UNL     1       5.653   0.431   1.909  1.00  0.00     0.130 C 
ATOM      3  C   UNL     1       6.317  -0.763   2.497  1.00  0.00     0.087 C 
ATOM      4  O   UNL     1       4.520   0.686   2.284  1.00  0.00    -0.300 OA
ENDBRANCH   1   2
BRANCH   1   5
ATOM      5  C   UNL     1       5.840   0.989  -0.501  1.00  0.00     0.043 C 
BRANCH   5   6
ATOM      6  C   UNL     1       6.797   0.156  -1.252  1.00  0.00    -0.044 A 
ATOM      7  C   UNL     1       7.515   0.665  -2.340  1.00  0.00     0.008 A 
ATOM      8  C   UNL     1       6.998  -1.154  -0.882  1.00  0.00     0.054 A 
ATOM      9  C   UNL     1       8.400  -0.163  -3.007  1.00  0.00     0.051 A 
ATOM     10  C   UNL     1       7.894  -1.988  -1.559  1.00  0.00     0.166 A 
ATOM     11  C   UNL     1       8.600  -1.488  -2.631  1.00  0.00     0.165 A 
ATOM     12  O   UNL     1       8.264  -3.305  -1.389  1.00  0.00    -0.454 OA
ATOM     13  O   UNL     1       9.399  -2.519  -3.100  1.00  0.00    -0.454 OA
ATOM     14  C   UNL     1       9.284  -3.661  -2.286  1.00  0.00     0.468 C 
ENDBRANCH   5   6
ENDBRANCH   1   5
TORSDOF 3
ENDMDL
MODEL 5
REMARK VINA RESULT:      -7.0      1.921      2.457
REMARK SMILES CC(=O)CCc1ccc2c(c1)OCO2
REMARK SMILES IDX 4 1 2 2 1 3 3 4 5 5 6 6 7 7 11 8 8 9 10 10 9 11 12 12 14 13
REMARK SMILES IDX 13 14
REMARK H PARENT
REMARK Flexibility Score: inf
ROOT
ATOM      1  C   UNL     1       6.910   0.976   1.424  1.00  0.00     0.080 C 
ENDROOT
BRANCH   1   2
ATOM      2  C   UNL     1       5.446   1.254   1.424  1.00  0.00     0.130 C 
ATOM      3  C   UNL     1       4.822   2.150   0.415  1.00  0.00     0.087 C 
ATOM      4  O   UNL     1       4.713   0.751   2.260  1.00  0.00    -0.300 OA
ENDBRANCH   1   2
BRANCH   1   5
ATOM      5  C   UNL     1       7.512   1.197   0.051  1.00  0.00     0.043 C 
BRANCH   5   6
ATOM      6  C   UNL     1       7.799  -0.077  -0.632  1.00  0.00    -0.044 A 
ATOM      7  C   UNL     1       7.859  -0.163  -2.028  1.00  0.00     0.008 A 
ATOM      8  C   UNL     1       8.016  -1.215   0.110  1.00  0.00     0.054 A 
ATOM      9  C   UNL     1       8.133  -1.385  -2.613  1.00  0.00     0.051 A 
ATOM     10  C   UNL     1       8.294  -2.448  -0.487  1.00  0.00     0.166 A 
ATOM     11  C   UNL     1       8.352  -2.534  -1.860  1.00  0.00     0.165 A 
ATOM     12  O   UNL     1       8.542  -3.705   0.024  1.00  0.00    -0.454 OA
ATOM     13  O   UNL     1       8.639  -3.855  -2.167  1.00  0.00    -0.454 OA
ATOM     14  C   UNL     1       8.857  -4.612  -1.001  1.00  0.00     0.468 C 
ENDBRANCH   5   6
ENDBRANCH   1   5
TORSDOF 3
ENDMDL
