@<TRIPOS>MOLECULE
/home/cewinharhar/GITHUB/reincatalyze/data/processed/docking_pred/2023-May-31-1438_sub9_nm5_bs15_s42_ex16_mel10_mts1000_k50_ec05_g099_lra9e-4_lrc3e-3/367438b83e07ec58543242b49c62b5ced391bd04_ligand_9.pdbqt
 14 15 0 0 0
SMALL
GASTEIGER

@<TRIPOS>ATOM
      1  C          6.3350    1.2880    0.9000 C.3     1  UNL1        0.0800
      2  C          5.6530    0.4310    1.9090 C.2     1  UNL1        0.1300
      3  C          6.3170   -0.7630    2.4970 C.3     1  UNL1        0.0870
      4  O          4.5200    0.6860    2.2840 O.2     1  UNL1       -0.3000
      5  C          5.8400    0.9890   -0.5010 C.3     1  UNL1        0.0430
      6  C          6.7970    0.1560   -1.2520 C.2     1  UNL1       -0.0440
      7  C          7.5150    0.6650   -2.3400 C.2     1  UNL1        0.0080
      8  C          6.9980   -1.1540   -0.8820 C.2     1  UNL1        0.0540
      9  C          8.4000   -0.1630   -3.0070 C.2     1  UNL1        0.0510
     10  C          7.8940   -1.9880   -1.5590 C.2     1  UNL1        0.1660
     11  C          8.6000   -1.4880   -2.6310 C.2     1  UNL1        0.1650
     12  O          8.2640   -3.3050   -1.3890 O.2     1  UNL1       -0.4540
     13  O          9.3990   -2.5190   -3.1000 O.2     1  UNL1       -0.4540
     14  C          9.2840   -3.6610   -2.2860 C.3     1  UNL1        0.4680
@<TRIPOS>BOND
     1    13    11    1
     2    13    14    1
     3     9    11    2
     4     9     7    1
     5    11    10    1
     6     7     6    2
     7    14    12    1
     8    10    12    1
     9    10     8    2
    10     6     8    1
    11     6     5    1
    12     5     1    1
    13     1     2    1
    14     2     4    2
    15     2     3    1
