@<TRIPOS>MOLECULE
/home/cewinharhar/GITHUB/reincatalyze/data/processed/docking_pred/2023-May-31-1438_sub9_nm5_bs15_s42_ex16_mel10_mts1000_k50_ec05_g099_lra9e-4_lrc3e-3/367438b83e07ec58543242b49c62b5ced391bd04_ligand_9.pdbqt
 14 15 0 0 0
SMALL
GASTEIGER

@<TRIPOS>ATOM
      1  C          5.5490    1.9160    1.2760 C.3     1  UNL1        0.0800
      2  C          5.1170    0.6950    2.0120 C.2     1  UNL1        0.1300
      3  C          6.0240   -0.4690    2.1940 C.3     1  UNL1        0.0870
      4  O          3.9960    0.6150    2.4890 O.2     1  UNL1       -0.3000
      5  C          5.4160    1.7320   -0.2230 C.3     1  UNL1        0.0430
      6  C          6.5800    1.0290   -0.7920 C.2     1  UNL1       -0.0440
      7  C          7.8880    1.4640   -0.5520 C.2     1  UNL1        0.0080
      8  C          6.3870   -0.0840   -1.5780 C.2     1  UNL1        0.0540
      9  C          8.9410    0.7650   -1.1120 C.2     1  UNL1        0.0510
     10  C          7.4550   -0.7880   -2.1420 C.2     1  UNL1        0.1660
     11  C          8.7430   -0.3600   -1.9070 C.2     1  UNL1        0.1650
     12  O          7.5240   -1.9050   -2.9470 O.2     1  UNL1       -0.4540
     13  O          9.5840   -1.2330   -2.5790 O.2     1  UNL1       -0.4540
     14  C          8.8580   -2.2810   -3.1760 C.3     1  UNL1        0.4680
@<TRIPOS>BOND
     1    14    12    1
     2    14    13    1
     3    12    10    1
     4    13    11    1
     5    10    11    2
     6    10     8    1
     7    11     9    1
     8     8     6    2
     9     9     7    2
    10     6     7    1
    11     6     5    1
    12     5     1    1
    13     1     2    1
    14     2     3    1
    15     2     4    2
