@<TRIPOS>MOLECULE
/home/cewinharhar/GITHUB/reincatalyze/data/processed/docking_pred/2023-May-31-1438_sub9_nm5_bs15_s42_ex16_mel10_mts1000_k50_ec05_g099_lra9e-4_lrc3e-3/367438b83e07ec58543242b49c62b5ced391bd04_ligand_9.pdbqt
 14 15 0 0 0
SMALL
GASTEIGER

@<TRIPOS>ATOM
      1  C          5.3970   -0.0760    2.0220 C.3     1  UNL1        0.0800
      2  C          4.5550    1.1280    1.7730 C.2     1  UNL1        0.1300
      3  C          4.9030    2.1200    0.7210 C.3     1  UNL1        0.0870
      4  O          3.5480    1.3350    2.4310 O.2     1  UNL1       -0.3000
      5  C          6.8380    0.1680    1.6190 C.3     1  UNL1        0.0430
      6  C          7.2700   -0.7530    0.5530 C.2     1  UNL1       -0.0440
      7  C          7.1490   -0.4170   -0.8000 C.2     1  UNL1        0.0080
      8  C          7.8090   -1.9750    0.8850 C.2     1  UNL1        0.0540
      9  C          7.5720   -1.3210   -1.7570 C.2     1  UNL1        0.0510
     10  C          8.2370   -2.8860   -0.0860 C.2     1  UNL1        0.1660
     11  C          8.1170   -2.5560   -1.4180 C.2     1  UNL1        0.1650
     12  O          8.7970   -4.1440   -0.0130 O.2     1  UNL1       -0.4540
     13  O          8.6120   -3.6290   -2.1430 O.2     1  UNL1       -0.4540
     14  C          9.1370   -4.6190   -1.2910 C.3     1  UNL1        0.4680
@<TRIPOS>BOND
     1    13    11    1
     2    13    14    1
     3     9    11    2
     4     9     7    1
     5    11    10    1
     6    14    12    1
     7     7     6    2
     8    10    12    1
     9    10     8    2
    10     6     8    1
    11     6     5    1
    12     3     2    1
    13     5     1    1
    14     2     1    1
    15     2     4    2
