@<TRIPOS>MOLECULE
/home/cewinharhar/GITHUB/reincatalyze/data/processed/docking_pred/2023-May-31-1438_sub9_nm5_bs15_s42_ex16_mel10_mts1000_k50_ec05_g099_lra9e-4_lrc3e-3/37a8b72800122466266a4bb22cdda1f56f02b914_ligand_9.pdbqt
 14 15 0 0 0
SMALL
GASTEIGER

@<TRIPOS>ATOM
      1  C          5.6920    1.2550   -0.3020 C.3     1  UNL1        0.0800
      2  C          5.1350    1.2150    1.0790 C.2     1  UNL1        0.1300
      3  C          5.3490    0.0470    1.9750 C.3     1  UNL1        0.0870
      4  O          4.4810    2.1480    1.5180 O.2     1  UNL1       -0.3000
      5  C          7.1970    1.0770   -0.2930 C.3     1  UNL1        0.0430
      6  C          7.5990   -0.2110   -0.8860 C.2     1  UNL1       -0.0440
      7  C          7.7330   -0.3720   -2.2690 C.2     1  UNL1        0.0080
      8  C          7.8530   -1.2890   -0.0680 C.2     1  UNL1        0.0540
      9  C          8.1130   -1.6040   -2.7680 C.2     1  UNL1        0.0510
     10  C          8.2380   -2.5330   -0.5770 C.2     1  UNL1        0.1660
     11  C          8.3690   -2.6920   -1.9380 C.2     1  UNL1        0.1650
     12  O          8.5410   -3.7390    0.0180 O.2     1  UNL1       -0.4540
     13  O          8.7550   -4.0050   -2.1530 O.2     1  UNL1       -0.4540
     14  C          8.9640   -4.6790   -0.9350 C.3     1  UNL1        0.4680
@<TRIPOS>BOND
     1     9     7    1
     2     9    11    2
     3     7     6    2
     4    13    11    1
     5    13    14    1
     6    11    10    1
     7    14    12    1
     8     6     5    1
     9     6     8    1
    10    10     8    2
    11    10    12    1
    12     1     5    1
    13     1     2    1
    14     2     4    2
    15     2     3    1
