@<TRIPOS>MOLECULE
/home/cewinharhar/GITHUB/reincatalyze/data/processed/docking_pred/2023-May-31-1438_sub9_nm5_bs15_s42_ex16_mel10_mts1000_k50_ec05_g099_lra9e-4_lrc3e-3/37aabdb081a78d2f2d4d4e560ab17afff45a2586_ligand_9.pdbqt
 14 15 0 0 0
SMALL
GASTEIGER

@<TRIPOS>ATOM
      1  C          5.4690   -0.0230    1.9930 C.3     1  UNL1        0.0800
      2  C          4.5920    1.1520    1.7260 C.2     1  UNL1        0.1300
      3  C          4.8930    2.1190    0.6370 C.3     1  UNL1        0.0870
      4  O          3.5950    1.3550    2.3990 O.2     1  UNL1       -0.3000
      5  C          6.8900    0.2360    1.5340 C.3     1  UNL1        0.0430
      6  C          7.3090   -0.7170    0.4910 C.2     1  UNL1       -0.0440
      7  C          7.1770   -0.4180   -0.8700 C.2     1  UNL1        0.0080
      8  C          7.8470   -1.9310    0.8520 C.2     1  UNL1        0.0540
      9  C          7.5890   -1.3510   -1.8050 C.2     1  UNL1        0.0510
     10  C          8.2630   -2.8700   -0.0970 C.2     1  UNL1        0.1660
     11  C          8.1320   -2.5780   -1.4360 C.2     1  UNL1        0.1650
     12  O          8.8190   -4.1280    0.0070 O.2     1  UNL1       -0.4540
     13  O          8.6170   -3.6730   -2.1340 O.2     1  UNL1       -0.4540
     14  C          9.1450   -4.6410   -1.2590 C.3     1  UNL1        0.4680
@<TRIPOS>BOND
     1    13    11    1
     2    13    14    1
     3     9    11    2
     4     9     7    1
     5    11    10    1
     6    14    12    1
     7     7     6    2
     8    10    12    1
     9    10     8    2
    10     6     8    1
    11     6     5    1
    12     3     2    1
    13     5     1    1
    14     2     1    1
    15     2     4    2
