MODEL 1
REMARK VINA RESULT:      -7.6      0.000      0.000
REMARK SMILES CC(=O)CCc1ccc2c(c1)OCO2
REMARK SMILES IDX 4 1 2 2 1 3 3 4 5 5 6 6 7 7 11 8 8 9 10 10 9 11 12 12 14 13
REMARK SMILES IDX 13 14
REMARK H PARENT
REMARK Flexibility Score: inf
ROOT
ATOM      1  C   UNL     1       5.539   1.931   1.259  1.00  0.00     0.080 C 
ENDROOT
BRANCH   1   2
ATOM      2  C   UNL     1       5.123   0.714   2.010  1.00  0.00     0.130 C 
ATOM      3  C   UNL     1       6.038  -0.445   2.187  1.00  0.00     0.087 C 
ATOM      4  O   UNL     1       4.010   0.632   2.504  1.00  0.00    -0.300 OA
ENDBRANCH   1   2
BRANCH   1   5
ATOM      5  C   UNL     1       5.407   1.727  -0.237  1.00  0.00     0.043 C 
BRANCH   5   6
ATOM      6  C   UNL     1       6.576   1.025  -0.798  1.00  0.00    -0.044 A 
ATOM      7  C   UNL     1       7.883   1.451  -0.536  1.00  0.00     0.008 A 
ATOM      8  C   UNL     1       6.389  -0.080  -1.597  1.00  0.00     0.054 A 
ATOM      9  C   UNL     1       8.940   0.752  -1.088  1.00  0.00     0.051 A 
ATOM     10  C   UNL     1       7.461  -0.784  -2.152  1.00  0.00     0.166 A 
ATOM     11  C   UNL     1       8.747  -0.364  -1.896  1.00  0.00     0.165 A 
ATOM     12  O   UNL     1       7.536  -1.895  -2.966  1.00  0.00    -0.454 OA
ATOM     13  O   UNL     1       9.594  -1.235  -2.564  1.00  0.00    -0.454 OA
ATOM     14  C   UNL     1       8.871  -2.274  -3.181  1.00  0.00     0.468 C 
ENDBRANCH   5   6
ENDBRANCH   1   5
TORSDOF 3
ENDMDL
MODEL 2
REMARK VINA RESULT:      -7.5      1.901      2.349
REMARK SMILES CC(=O)CCc1ccc2c(c1)OCO2
REMARK SMILES IDX 4 1 2 2 1 3 3 4 5 5 6 6 7 7 11 8 8 9 10 10 9 11 12 12 14 13
REMARK SMILES IDX 13 14
REMARK H PARENT
REMARK Flexibility Score: inf
ROOT
ATOM      1  C   UNL     1       5.699   1.382  -0.310  1.00  0.00     0.080 C 
ENDROOT
BRANCH   1   2
ATOM      2  C   UNL     1       5.088   1.282   1.045  1.00  0.00     0.130 C 
ATOM      3  C   UNL     1       5.366   0.131   1.944  1.00  0.00     0.087 C 
ATOM      4  O   UNL     1       4.335   2.149   1.458  1.00  0.00    -0.300 OA
ENDBRANCH   1   2
BRANCH   1   5
ATOM      5  C   UNL     1       7.197   1.157  -0.255  1.00  0.00     0.043 C 
BRANCH   5   6
ATOM      6  C   UNL     1       7.578  -0.130  -0.866  1.00  0.00    -0.044 A 
ATOM      7  C   UNL     1       7.661  -0.286  -2.254  1.00  0.00     0.008 A 
ATOM      8  C   UNL     1       7.865  -1.209  -0.061  1.00  0.00     0.054 A 
ATOM      9  C   UNL     1       8.025  -1.517  -2.770  1.00  0.00     0.051 A 
ATOM     10  C   UNL     1       8.233  -2.450  -0.587  1.00  0.00     0.166 A 
ATOM     11  C   UNL     1       8.313  -2.606  -1.953  1.00  0.00     0.165 A 
ATOM     12  O   UNL     1       8.560  -3.657  -0.007  1.00  0.00    -0.454 OA
ATOM     13  O   UNL     1       8.693  -3.918  -2.185  1.00  0.00    -0.454 OA
ATOM     14  C   UNL     1       8.949  -4.595  -0.978  1.00  0.00     0.468 C 
ENDBRANCH   5   6
ENDBRANCH   1   5
TORSDOF 3
ENDMDL
MODEL 3
REMARK VINA RESULT:      -7.2      2.080      2.642
REMARK SMILES CC(=O)CCc1ccc2c(c1)OCO2
REMARK SMILES IDX 4 1 2 2 1 3 3 4 5 5 6 6 7 7 11 8 8 9 10 10 9 11 12 12 14 13
REMARK SMILES IDX 13 14
REMARK H PARENT
REMARK Flexibility Score: inf
ROOT
ATOM      1  C   UNL     1       5.469  -0.023   1.993  1.00  0.00     0.080 C 
ENDROOT
BRANCH   1   2
ATOM      2  C   UNL     1       4.592   1.152   1.726  1.00  0.00     0.130 C 
ATOM      3  C   UNL     1       4.893   2.119   0.637  1.00  0.00     0.087 C 
ATOM      4  O   UNL     1       3.595   1.355   2.399  1.00  0.00    -0.300 OA
ENDBRANCH   1   2
BRANCH   1   5
ATOM      5  C   UNL     1       6.890   0.236   1.534  1.00  0.00     0.043 C 
BRANCH   5   6
ATOM      6  C   UNL     1       7.309  -0.717   0.491  1.00  0.00    -0.044 A 
ATOM      7  C   UNL     1       7.177  -0.418  -0.870  1.00  0.00     0.008 A 
ATOM      8  C   UNL     1       7.847  -1.931   0.852  1.00  0.00     0.054 A 
ATOM      9  C   UNL     1       7.589  -1.351  -1.805  1.00  0.00     0.051 A 
ATOM     10  C   UNL     1       8.263  -2.870  -0.097  1.00  0.00     0.166 A 
ATOM     11  C   UNL     1       8.132  -2.578  -1.436  1.00  0.00     0.165 A 
ATOM     12  O   UNL     1       8.819  -4.128   0.007  1.00  0.00    -0.454 OA
ATOM     13  O   UNL     1       8.617  -3.673  -2.134  1.00  0.00    -0.454 OA
ATOM     14  C   UNL     1       9.145  -4.641  -1.259  1.00  0.00     0.468 C 
ENDBRANCH   5   6
ENDBRANCH   1   5
TORSDOF 3
ENDMDL
MODEL 4
REMARK VINA RESULT:      -7.1      1.954      2.483
REMARK SMILES CC(=O)CCc1ccc2c(c1)OCO2
REMARK SMILES IDX 4 1 2 2 1 3 3 4 5 5 6 6 7 7 11 8 8 9 10 10 9 11 12 12 14 13
REMARK SMILES IDX 13 14
REMARK H PARENT
REMARK Flexibility Score: inf
ROOT
ATOM      1  C   UNL     1       6.743   0.921   1.394  1.00  0.00     0.080 C 
ENDROOT
BRANCH   1   2
ATOM      2  C   UNL     1       5.283   1.218   1.411  1.00  0.00     0.130 C 
ATOM      3  C   UNL     1       4.664   2.149   0.430  1.00  0.00     0.087 C 
ATOM      4  O   UNL     1       4.549   0.702   2.238  1.00  0.00    -0.300 OA
ENDBRANCH   1   2
BRANCH   1   5
ATOM      5  C   UNL     1       7.332   1.136   0.013  1.00  0.00     0.043 C 
BRANCH   5   6
ATOM      6  C   UNL     1       7.656  -0.140  -0.647  1.00  0.00    -0.044 A 
ATOM      7  C   UNL     1       7.653  -0.266  -2.041  1.00  0.00     0.008 A 
ATOM      8  C   UNL     1       7.974  -1.242   0.115  1.00  0.00     0.054 A 
ATOM      9  C   UNL     1       7.967  -1.489  -2.605  1.00  0.00     0.051 A 
ATOM     10  C   UNL     1       8.291  -2.476  -0.460  1.00  0.00     0.166 A 
ATOM     11  C   UNL     1       8.287  -2.601  -1.832  1.00  0.00     0.165 A 
ATOM     12  O   UNL     1       8.634  -3.700   0.072  1.00  0.00    -0.454 OA
ATOM     13  O   UNL     1       8.633  -3.912  -2.116  1.00  0.00    -0.454 OA
ATOM     14  C   UNL     1       8.950  -4.620  -0.941  1.00  0.00     0.468 C 
ENDBRANCH   5   6
ENDBRANCH   1   5
TORSDOF 3
ENDMDL
MODEL 5
REMARK VINA RESULT:      -7.1      1.258      1.479
REMARK SMILES CC(=O)CCc1ccc2c(c1)OCO2
REMARK SMILES IDX 4 1 2 2 1 3 3 4 5 5 6 6 7 7 11 8 8 9 10 10 9 11 12 12 14 13
REMARK SMILES IDX 13 14
REMARK H PARENT
REMARK Flexibility Score: inf
ROOT
ATOM      1  C   UNL     1       6.396   1.198   0.913  1.00  0.00     0.080 C 
ENDROOT
BRANCH   1   2
ATOM      2  C   UNL     1       5.671   0.387   1.932  1.00  0.00     0.130 C 
ATOM      3  C   UNL     1       6.265  -0.844   2.517  1.00  0.00     0.087 C 
ATOM      4  O   UNL     1       4.560   0.713   2.317  1.00  0.00    -0.300 OA
ENDBRANCH   1   2
BRANCH   1   5
ATOM      5  C   UNL     1       5.884   0.910  -0.484  1.00  0.00     0.043 C 
BRANCH   5   6
ATOM      6  C   UNL     1       6.833   0.085  -1.254  1.00  0.00    -0.044 A 
ATOM      7  C   UNL     1       7.520   0.597  -2.360  1.00  0.00     0.008 A 
ATOM      8  C   UNL     1       7.057  -1.221  -0.883  1.00  0.00     0.054 A 
ATOM      9  C   UNL     1       8.398  -0.224  -3.044  1.00  0.00     0.051 A 
ATOM     10  C   UNL     1       7.947  -2.047  -1.577  1.00  0.00     0.166 A 
ATOM     11  C   UNL     1       8.622  -1.544  -2.667  1.00  0.00     0.165 A 
ATOM     12  O   UNL     1       8.336  -3.359  -1.410  1.00  0.00    -0.454 OA
ATOM     13  O   UNL     1       9.422  -2.568  -3.150  1.00  0.00    -0.454 OA
ATOM     14  C   UNL     1       9.340  -3.708  -2.328  1.00  0.00     0.468 C 
ENDBRANCH   5   6
ENDBRANCH   1   5
TORSDOF 3
ENDMDL
