@<TRIPOS>MOLECULE
/home/cewinharhar/GITHUB/reincatalyze/data/processed/docking_pred/2023-May-31-1438_sub9_nm5_bs15_s42_ex16_mel10_mts1000_k50_ec05_g099_lra9e-4_lrc3e-3/37aabdb081a78d2f2d4d4e560ab17afff45a2586_ligand_9.pdbqt
 14 15 0 0 0
SMALL
GASTEIGER

@<TRIPOS>ATOM
      1  C          6.3960    1.1980    0.9130 C.3     1  UNL1        0.0800
      2  C          5.6710    0.3870    1.9320 C.2     1  UNL1        0.1300
      3  C          6.2650   -0.8440    2.5170 C.3     1  UNL1        0.0870
      4  O          4.5600    0.7130    2.3170 O.2     1  UNL1       -0.3000
      5  C          5.8840    0.9100   -0.4840 C.3     1  UNL1        0.0430
      6  C          6.8330    0.0850   -1.2540 C.2     1  UNL1       -0.0440
      7  C          7.5200    0.5970   -2.3600 C.2     1  UNL1        0.0080
      8  C          7.0570   -1.2210   -0.8830 C.2     1  UNL1        0.0540
      9  C          8.3980   -0.2240   -3.0440 C.2     1  UNL1        0.0510
     10  C          7.9470   -2.0470   -1.5770 C.2     1  UNL1        0.1660
     11  C          8.6220   -1.5440   -2.6670 C.2     1  UNL1        0.1650
     12  O          8.3360   -3.3590   -1.4100 O.2     1  UNL1       -0.4540
     13  O          9.4220   -2.5680   -3.1500 O.2     1  UNL1       -0.4540
     14  C          9.3400   -3.7080   -2.3280 C.3     1  UNL1        0.4680
@<TRIPOS>BOND
     1    13    11    1
     2    13    14    1
     3     9    11    2
     4     9     7    1
     5    11    10    1
     6     7     6    2
     7    14    12    1
     8    10    12    1
     9    10     8    2
    10     6     8    1
    11     6     5    1
    12     5     1    1
    13     1     2    1
    14     2     4    2
    15     2     3    1
