@<TRIPOS>MOLECULE
/home/cewinharhar/GITHUB/reincatalyze/data/processed/docking_pred/2023-May-31-1438_sub9_nm5_bs15_s42_ex16_mel10_mts1000_k50_ec05_g099_lra9e-4_lrc3e-3/37aabdb081a78d2f2d4d4e560ab17afff45a2586_ligand_9.pdbqt
 14 15 0 0 0
SMALL
GASTEIGER

@<TRIPOS>ATOM
      1  C          5.6990    1.3820   -0.3100 C.3     1  UNL1        0.0800
      2  C          5.0880    1.2820    1.0450 C.2     1  UNL1        0.1300
      3  C          5.3660    0.1310    1.9440 C.3     1  UNL1        0.0870
      4  O          4.3350    2.1490    1.4580 O.2     1  UNL1       -0.3000
      5  C          7.1970    1.1570   -0.2550 C.3     1  UNL1        0.0430
      6  C          7.5780   -0.1300   -0.8660 C.2     1  UNL1       -0.0440
      7  C          7.6610   -0.2860   -2.2540 C.2     1  UNL1        0.0080
      8  C          7.8650   -1.2090   -0.0610 C.2     1  UNL1        0.0540
      9  C          8.0250   -1.5170   -2.7700 C.2     1  UNL1        0.0510
     10  C          8.2330   -2.4500   -0.5870 C.2     1  UNL1        0.1660
     11  C          8.3130   -2.6060   -1.9530 C.2     1  UNL1        0.1650
     12  O          8.5600   -3.6570   -0.0070 O.2     1  UNL1       -0.4540
     13  O          8.6930   -3.9180   -2.1850 O.2     1  UNL1       -0.4540
     14  C          8.9490   -4.5950   -0.9780 C.3     1  UNL1        0.4680
@<TRIPOS>BOND
     1     9     7    1
     2     9    11    2
     3     7     6    2
     4    13    11    1
     5    13    14    1
     6    11    10    1
     7    14    12    1
     8     6     5    1
     9     6     8    1
    10    10     8    2
    11    10    12    1
    12     1     5    1
    13     1     2    1
    14     2     4    2
    15     2     3    1
