@<TRIPOS>MOLECULE
/home/cewinharhar/GITHUB/reincatalyze/data/processed/docking_pred/2023-May-31-1438_sub9_nm5_bs15_s42_ex16_mel10_mts1000_k50_ec05_g099_lra9e-4_lrc3e-3/37aabdb081a78d2f2d4d4e560ab17afff45a2586_ligand_9.pdbqt
 14 15 0 0 0
SMALL
GASTEIGER

@<TRIPOS>ATOM
      1  C          6.7430    0.9210    1.3940 C.3     1  UNL1        0.0800
      2  C          5.2830    1.2180    1.4110 C.2     1  UNL1        0.1300
      3  C          4.6640    2.1490    0.4300 C.3     1  UNL1        0.0870
      4  O          4.5490    0.7020    2.2380 O.2     1  UNL1       -0.3000
      5  C          7.3320    1.1360    0.0130 C.3     1  UNL1        0.0430
      6  C          7.6560   -0.1400   -0.6470 C.2     1  UNL1       -0.0440
      7  C          7.6530   -0.2660   -2.0410 C.2     1  UNL1        0.0080
      8  C          7.9740   -1.2420    0.1150 C.2     1  UNL1        0.0540
      9  C          7.9670   -1.4890   -2.6050 C.2     1  UNL1        0.0510
     10  C          8.2910   -2.4760   -0.4600 C.2     1  UNL1        0.1660
     11  C          8.2870   -2.6010   -1.8320 C.2     1  UNL1        0.1650
     12  O          8.6340   -3.7000    0.0720 O.2     1  UNL1       -0.4540
     13  O          8.6330   -3.9120   -2.1160 O.2     1  UNL1       -0.4540
     14  C          8.9500   -4.6200   -0.9410 C.3     1  UNL1        0.4680
@<TRIPOS>BOND
     1     9     7    1
     2     9    11    2
     3    13    11    1
     4    13    14    1
     5     7     6    2
     6    11    10    1
     7    14    12    1
     8     6     5    1
     9     6     8    1
    10    10    12    1
    11    10     8    2
    12     5     1    1
    13     3     2    1
    14     1     2    1
    15     2     4    2
