@<TRIPOS>MOLECULE
/home/cewinharhar/GITHUB/reincatalyze/data/processed/docking_pred/2023-May-31-1438_sub9_nm5_bs15_s42_ex16_mel10_mts1000_k50_ec05_g099_lra9e-4_lrc3e-3/3b11ad51370e6150fddf32b3aa65dd5e24197163_ligand_9.pdbqt
 14 15 0 0 0
SMALL
GASTEIGER

@<TRIPOS>ATOM
      1  C          6.3210    0.6580    2.1370 C.3     1  UNL1        0.0800
      2  C          5.0970    1.3870    1.7030 C.2     1  UNL1        0.1300
      3  C          5.0530    2.1500    0.4270 C.3     1  UNL1        0.0870
      4  O          4.0870    1.3800    2.3890 O.2     1  UNL1       -0.3000
      5  C          6.4220   -0.6970    1.4640 C.3     1  UNL1        0.0430
      6  C          7.1110   -0.6110    0.1640 C.2     1  UNL1       -0.0440
      7  C          6.5450   -1.1390   -1.0010 C.2     1  UNL1        0.0080
      8  C          8.3400    0.0020    0.0830 C.2     1  UNL1        0.0540
      9  C          7.2370   -1.0290   -2.1930 C.2     1  UNL1        0.0510
     10  C          9.0360    0.1120   -1.1250 C.2     1  UNL1        0.1660
     11  C          8.4800   -0.4090   -2.2720 C.2     1  UNL1        0.1650
     12  O         10.2530    0.6660   -1.4610 O.2     1  UNL1       -0.4540
     13  O          9.3760   -0.1600   -3.3000 O.2     1  UNL1       -0.4540
     14  C         10.4710    0.5990   -2.8470 C.3     1  UNL1        0.4680
@<TRIPOS>BOND
     1    13    14    1
     2    13    11    1
     3    14    12    1
     4    11     9    2
     5    11    10    1
     6     9     7    1
     7    12    10    1
     8    10     8    2
     9     7     6    2
    10     8     6    1
    11     6     5    1
    12     3     2    1
    13     5     1    1
    14     2     1    1
    15     2     4    2
