@<TRIPOS>MOLECULE
/home/cewinharhar/GITHUB/reincatalyze/data/processed/docking_pred/2023-May-31-1438_sub9_nm5_bs15_s42_ex16_mel10_mts1000_k50_ec05_g099_lra9e-4_lrc3e-3/3b11ad51370e6150fddf32b3aa65dd5e24197163_ligand_9.pdbqt
 14 15 0 0 0
SMALL
GASTEIGER

@<TRIPOS>ATOM
      1  C          5.9110    1.1590   -0.4100 C.3     1  UNL1        0.0800
      2  C          5.3300    1.1240    0.9610 C.2     1  UNL1        0.1300
      3  C          5.5880   -0.0090    1.8890 C.3     1  UNL1        0.0870
      4  O          4.6190    2.0300    1.3630 O.2     1  UNL1       -0.3000
      5  C          7.4240    1.0830   -0.3690 C.3     1  UNL1        0.0430
      6  C          7.9540    0.1570   -1.3860 C.2     1  UNL1       -0.0440
      7  C          8.6550    0.6200   -2.5050 C.2     1  UNL1        0.0080
      8  C          7.7620   -1.1980   -1.2400 C.2     1  UNL1        0.0540
      9  C          9.1290   -0.2960   -3.4260 C.2     1  UNL1        0.0510
     10  C          8.2440   -2.1200   -2.1740 C.2     1  UNL1        0.1660
     11  C          8.9330   -1.6650   -3.2760 C.2     1  UNL1        0.1650
     12  O          8.1830   -3.4950   -2.2540 O.2     1  UNL1       -0.4540
     13  O          9.2860   -2.7820   -4.0170 O.2     1  UNL1       -0.4540
     14  C          8.9090   -3.9680   -3.3590 C.3     1  UNL1        0.4680
@<TRIPOS>BOND
     1    13    14    1
     2    13    11    1
     3     9    11    2
     4     9     7    1
     5    14    12    1
     6    11    10    1
     7     7     6    2
     8    12    10    1
     9    10     8    2
    10     6     8    1
    11     6     5    1
    12     1     5    1
    13     1     2    1
    14     2     4    2
    15     2     3    1
