MODEL 1
REMARK VINA RESULT:      -7.7      0.000      0.000
REMARK SMILES CC(=O)CCc1ccc2c(c1)OCO2
REMARK SMILES IDX 4 1 2 2 1 3 3 4 5 5 6 6 7 7 11 8 8 9 10 10 9 11 12 12 14 13
REMARK SMILES IDX 13 14
REMARK H PARENT
REMARK Flexibility Score: inf
ROOT
ATOM      1  C   UNL     1       6.008   1.632   1.190  1.00  0.00     0.080 C 
ENDROOT
BRANCH   1   2
ATOM      2  C   UNL     1       5.492   0.530   2.050  1.00  0.00     0.130 C 
ATOM      3  C   UNL     1       6.331  -0.648   2.396  1.00  0.00     0.087 C 
ATOM      4  O   UNL     1       4.357   0.563   2.497  1.00  0.00    -0.300 OA
ENDBRANCH   1   2
BRANCH   1   5
ATOM      5  C   UNL     1       5.704   1.377  -0.273  1.00  0.00     0.043 C 
BRANCH   5   6
ATOM      6  C   UNL     1       6.817   0.689  -0.951  1.00  0.00    -0.044 A 
ATOM      7  C   UNL     1       8.140   1.126  -0.817  1.00  0.00     0.008 A 
ATOM      8  C   UNL     1       6.561  -0.413  -1.735  1.00  0.00     0.054 A 
ATOM      9  C   UNL     1       9.143   0.440  -1.476  1.00  0.00     0.051 A 
ATOM     10  C   UNL     1       7.580  -1.103  -2.399  1.00  0.00     0.166 A 
ATOM     11  C   UNL     1       8.881  -0.673  -2.269  1.00  0.00     0.165 A 
ATOM     12  O   UNL     1       7.583  -2.207  -3.225  1.00  0.00    -0.454 OA
ATOM     13  O   UNL     1       9.665  -1.531  -3.024  1.00  0.00    -0.454 OA
ATOM     14  C   UNL     1       8.894  -2.573  -3.573  1.00  0.00     0.468 C 
ENDBRANCH   5   6
ENDBRANCH   1   5
TORSDOF 3
ENDMDL
MODEL 2
REMARK VINA RESULT:      -7.2      1.227      1.583
REMARK SMILES CC(=O)CCc1ccc2c(c1)OCO2
REMARK SMILES IDX 4 1 2 2 1 3 3 4 5 5 6 6 7 7 11 8 8 9 10 10 9 11 12 12 14 13
REMARK SMILES IDX 13 14
REMARK H PARENT
REMARK Flexibility Score: inf
ROOT
ATOM      1  C   UNL     1       5.911   1.159  -0.410  1.00  0.00     0.080 C 
ENDROOT
BRANCH   1   2
ATOM      2  C   UNL     1       5.330   1.124   0.961  1.00  0.00     0.130 C 
ATOM      3  C   UNL     1       5.588  -0.009   1.889  1.00  0.00     0.087 C 
ATOM      4  O   UNL     1       4.619   2.030   1.363  1.00  0.00    -0.300 OA
ENDBRANCH   1   2
BRANCH   1   5
ATOM      5  C   UNL     1       7.424   1.083  -0.369  1.00  0.00     0.043 C 
BRANCH   5   6
ATOM      6  C   UNL     1       7.954   0.157  -1.386  1.00  0.00    -0.044 A 
ATOM      7  C   UNL     1       8.655   0.620  -2.505  1.00  0.00     0.008 A 
ATOM      8  C   UNL     1       7.762  -1.198  -1.240  1.00  0.00     0.054 A 
ATOM      9  C   UNL     1       9.129  -0.296  -3.426  1.00  0.00     0.051 A 
ATOM     10  C   UNL     1       8.244  -2.120  -2.174  1.00  0.00     0.166 A 
ATOM     11  C   UNL     1       8.933  -1.665  -3.276  1.00  0.00     0.165 A 
ATOM     12  O   UNL     1       8.183  -3.495  -2.254  1.00  0.00    -0.454 OA
ATOM     13  O   UNL     1       9.286  -2.782  -4.017  1.00  0.00    -0.454 OA
ATOM     14  C   UNL     1       8.909  -3.968  -3.359  1.00  0.00     0.468 C 
ENDBRANCH   5   6
ENDBRANCH   1   5
TORSDOF 3
ENDMDL
MODEL 3
REMARK VINA RESULT:      -7.1      1.405      2.502
REMARK SMILES CC(=O)CCc1ccc2c(c1)OCO2
REMARK SMILES IDX 4 1 2 2 1 3 3 4 5 5 6 6 7 7 11 8 8 9 10 10 9 11 12 12 14 13
REMARK SMILES IDX 13 14
REMARK H PARENT
REMARK Flexibility Score: inf
ROOT
ATOM      1  C   UNL     1       6.321   0.658   2.137  1.00  0.00     0.080 C 
ENDROOT
BRANCH   1   2
ATOM      2  C   UNL     1       5.097   1.387   1.703  1.00  0.00     0.130 C 
ATOM      3  C   UNL     1       5.053   2.150   0.427  1.00  0.00     0.087 C 
ATOM      4  O   UNL     1       4.087   1.380   2.389  1.00  0.00    -0.300 OA
ENDBRANCH   1   2
BRANCH   1   5
ATOM      5  C   UNL     1       6.422  -0.697   1.464  1.00  0.00     0.043 C 
BRANCH   5   6
ATOM      6  C   UNL     1       7.111  -0.611   0.164  1.00  0.00    -0.044 A 
ATOM      7  C   UNL     1       6.545  -1.139  -1.001  1.00  0.00     0.008 A 
ATOM      8  C   UNL     1       8.340   0.002   0.083  1.00  0.00     0.054 A 
ATOM      9  C   UNL     1       7.237  -1.029  -2.193  1.00  0.00     0.051 A 
ATOM     10  C   UNL     1       9.036   0.112  -1.125  1.00  0.00     0.166 A 
ATOM     11  C   UNL     1       8.480  -0.409  -2.272  1.00  0.00     0.165 A 
ATOM     12  O   UNL     1      10.253   0.666  -1.461  1.00  0.00    -0.454 OA
ATOM     13  O   UNL     1       9.376  -0.160  -3.300  1.00  0.00    -0.454 OA
ATOM     14  C   UNL     1      10.471   0.599  -2.847  1.00  0.00     0.468 C 
ENDBRANCH   5   6
ENDBRANCH   1   5
TORSDOF 3
ENDMDL
MODEL 4
REMARK VINA RESULT:      -7.0      1.349      1.938
REMARK SMILES CC(=O)CCc1ccc2c(c1)OCO2
REMARK SMILES IDX 4 1 2 2 1 3 3 4 5 5 6 6 7 7 11 8 8 9 10 10 9 11 12 12 14 13
REMARK SMILES IDX 13 14
REMARK H PARENT
REMARK Flexibility Score: inf
ROOT
ATOM      1  C   UNL     1       5.554  -0.052   1.973  1.00  0.00     0.080 C 
ENDROOT
BRANCH   1   2
ATOM      2  C   UNL     1       4.640   1.119   1.864  1.00  0.00     0.130 C 
ATOM      3  C   UNL     1       4.815   2.150   0.806  1.00  0.00     0.087 C 
ATOM      4  O   UNL     1       3.715   1.267   2.646  1.00  0.00    -0.300 OA
ENDBRANCH   1   2
BRANCH   1   5
ATOM      5  C   UNL     1       6.951   0.293   1.495  1.00  0.00     0.043 C 
BRANCH   5   6
ATOM      6  C   UNL     1       7.232  -0.284   0.168  1.00  0.00    -0.044 A 
ATOM      7  C   UNL     1       7.035   0.449  -1.007  1.00  0.00     0.008 A 
ATOM      8  C   UNL     1       7.703  -1.574   0.072  1.00  0.00     0.054 A 
ATOM      9  C   UNL     1       7.317  -0.145  -2.224  1.00  0.00     0.051 A 
ATOM     10  C   UNL     1       7.987  -2.170  -1.160  1.00  0.00     0.166 A 
ATOM     11  C   UNL     1       7.793  -1.450  -2.318  1.00  0.00     0.165 A 
ATOM     12  O   UNL     1       8.456  -3.417  -1.515  1.00  0.00    -0.454 OA
ATOM     13  O   UNL     1       8.151  -2.278  -3.370  1.00  0.00    -0.454 OA
ATOM     14  C   UNL     1       8.663  -3.502  -2.902  1.00  0.00     0.468 C 
ENDBRANCH   5   6
ENDBRANCH   1   5
TORSDOF 3
ENDMDL
MODEL 5
REMARK VINA RESULT:      -7.0      1.179      2.033
REMARK SMILES CC(=O)CCc1ccc2c(c1)OCO2
REMARK SMILES IDX 4 1 2 2 1 3 3 4 5 5 6 6 7 7 11 8 8 9 10 10 9 11 12 12 14 13
REMARK SMILES IDX 13 14
REMARK H PARENT
REMARK Flexibility Score: inf
ROOT
ATOM      1  C   UNL     1       5.037   1.798   0.585  1.00  0.00     0.080 C 
ENDROOT
BRANCH   1   2
ATOM      2  C   UNL     1       4.724   1.082   1.852  1.00  0.00     0.130 C 
ATOM      3  C   UNL     1       5.502  -0.108   2.289  1.00  0.00     0.087 C 
ATOM      4  O   UNL     1       3.812   1.453   2.573  1.00  0.00    -0.300 OA
ENDBRANCH   1   2
BRANCH   1   5
ATOM      5  C   UNL     1       6.513   2.129   0.490  1.00  0.00     0.043 C 
BRANCH   5   6
ATOM      6  C   UNL     1       7.203   1.274  -0.493  1.00  0.00    -0.044 A 
ATOM      7  C   UNL     1       6.505   0.343  -1.271  1.00  0.00     0.008 A 
ATOM      8  C   UNL     1       8.564   1.387  -0.659  1.00  0.00     0.054 A 
ATOM      9  C   UNL     1       7.206  -0.432  -2.178  1.00  0.00     0.051 A 
ATOM     10  C   UNL     1       9.267   0.602  -1.578  1.00  0.00     0.166 A 
ATOM     11  C   UNL     1       8.582  -0.316  -2.343  1.00  0.00     0.165 A 
ATOM     12  O   UNL     1      10.600   0.526  -1.923  1.00  0.00    -0.454 OA
ATOM     13  O   UNL     1       9.518  -0.941  -3.152  1.00  0.00    -0.454 OA
ATOM     14  C   UNL     1      10.796  -0.375  -2.983  1.00  0.00     0.468 C 
ENDBRANCH   5   6
ENDBRANCH   1   5
TORSDOF 3
ENDMDL
