@<TRIPOS>MOLECULE
/home/cewinharhar/GITHUB/reincatalyze/data/processed/docking_pred/2023-May-31-1438_sub9_nm5_bs15_s42_ex16_mel10_mts1000_k50_ec05_g099_lra9e-4_lrc3e-3/3b11ad51370e6150fddf32b3aa65dd5e24197163_ligand_9.pdbqt
 14 15 0 0 0
SMALL
GASTEIGER

@<TRIPOS>ATOM
      1  C          6.0080    1.6320    1.1900 C.3     1  UNL1        0.0800
      2  C          5.4920    0.5300    2.0500 C.2     1  UNL1        0.1300
      3  C          6.3310   -0.6480    2.3960 C.3     1  UNL1        0.0870
      4  O          4.3570    0.5630    2.4970 O.2     1  UNL1       -0.3000
      5  C          5.7040    1.3770   -0.2730 C.3     1  UNL1        0.0430
      6  C          6.8170    0.6890   -0.9510 C.2     1  UNL1       -0.0440
      7  C          8.1400    1.1260   -0.8170 C.2     1  UNL1        0.0080
      8  C          6.5610   -0.4130   -1.7350 C.2     1  UNL1        0.0540
      9  C          9.1430    0.4400   -1.4760 C.2     1  UNL1        0.0510
     10  C          7.5800   -1.1030   -2.3990 C.2     1  UNL1        0.1660
     11  C          8.8810   -0.6730   -2.2690 C.2     1  UNL1        0.1650
     12  O          7.5830   -2.2070   -3.2250 O.2     1  UNL1       -0.4540
     13  O          9.6650   -1.5310   -3.0240 O.2     1  UNL1       -0.4540
     14  C          8.8940   -2.5730   -3.5730 C.3     1  UNL1        0.4680
@<TRIPOS>BOND
     1    14    12    1
     2    14    13    1
     3    12    10    1
     4    13    11    1
     5    10    11    2
     6    10     8    1
     7    11     9    1
     8     8     6    2
     9     9     7    2
    10     6     7    1
    11     6     5    1
    12     5     1    1
    13     1     2    1
    14     2     3    1
    15     2     4    2
