@<TRIPOS>MOLECULE
/home/cewinharhar/GITHUB/reincatalyze/data/processed/docking_pred/2023-May-31-1438_sub9_nm5_bs15_s42_ex16_mel10_mts1000_k50_ec05_g099_lra9e-4_lrc3e-3/3b11ad51370e6150fddf32b3aa65dd5e24197163_ligand_9.pdbqt
 14 15 0 0 0
SMALL
GASTEIGER

@<TRIPOS>ATOM
      1  C          5.5540   -0.0520    1.9730 C.3     1  UNL1        0.0800
      2  C          4.6400    1.1190    1.8640 C.2     1  UNL1        0.1300
      3  C          4.8150    2.1500    0.8060 C.3     1  UNL1        0.0870
      4  O          3.7150    1.2670    2.6460 O.2     1  UNL1       -0.3000
      5  C          6.9510    0.2930    1.4950 C.3     1  UNL1        0.0430
      6  C          7.2320   -0.2840    0.1680 C.2     1  UNL1       -0.0440
      7  C          7.0350    0.4490   -1.0070 C.2     1  UNL1        0.0080
      8  C          7.7030   -1.5740    0.0720 C.2     1  UNL1        0.0540
      9  C          7.3170   -0.1450   -2.2240 C.2     1  UNL1        0.0510
     10  C          7.9870   -2.1700   -1.1600 C.2     1  UNL1        0.1660
     11  C          7.7930   -1.4500   -2.3180 C.2     1  UNL1        0.1650
     12  O          8.4560   -3.4170   -1.5150 O.2     1  UNL1       -0.4540
     13  O          8.1510   -2.2780   -3.3700 O.2     1  UNL1       -0.4540
     14  C          8.6630   -3.5020   -2.9020 C.3     1  UNL1        0.4680
@<TRIPOS>BOND
     1    13    14    1
     2    13    11    1
     3    14    12    1
     4    11     9    2
     5    11    10    1
     6     9     7    1
     7    12    10    1
     8    10     8    2
     9     7     6    2
    10     8     6    1
    11     6     5    1
    12     3     2    1
    13     5     1    1
    14     2     1    1
    15     2     4    2
