@<TRIPOS>MOLECULE
/home/cewinharhar/GITHUB/reincatalyze/data/processed/docking_pred/2023-May-31-1438_sub9_nm5_bs15_s42_ex16_mel10_mts1000_k50_ec05_g099_lra9e-4_lrc3e-3/3b11ad51370e6150fddf32b3aa65dd5e24197163_ligand_9.pdbqt
 14 15 0 0 0
SMALL
GASTEIGER

@<TRIPOS>ATOM
      1  C          5.0370    1.7980    0.5850 C.3     1  UNL1        0.0800
      2  C          4.7240    1.0820    1.8520 C.2     1  UNL1        0.1300
      3  C          5.5020   -0.1080    2.2890 C.3     1  UNL1        0.0870
      4  O          3.8120    1.4530    2.5730 O.2     1  UNL1       -0.3000
      5  C          6.5130    2.1290    0.4900 C.3     1  UNL1        0.0430
      6  C          7.2030    1.2740   -0.4930 C.2     1  UNL1       -0.0440
      7  C          6.5050    0.3430   -1.2710 C.2     1  UNL1        0.0080
      8  C          8.5640    1.3870   -0.6590 C.2     1  UNL1        0.0540
      9  C          7.2060   -0.4320   -2.1780 C.2     1  UNL1        0.0510
     10  C          9.2670    0.6020   -1.5780 C.2     1  UNL1        0.1660
     11  C          8.5820   -0.3160   -2.3430 C.2     1  UNL1        0.1650
     12  O         10.6000    0.5260   -1.9230 O.2     1  UNL1       -0.4540
     13  O          9.5180   -0.9410   -3.1520 O.2     1  UNL1       -0.4540
     14  C         10.7960   -0.3750   -2.9830 C.3     1  UNL1        0.4680
@<TRIPOS>BOND
     1    13    14    1
     2    13    11    1
     3    14    12    1
     4    11     9    2
     5    11    10    1
     6     9     7    1
     7    12    10    1
     8    10     8    2
     9     7     6    2
    10     8     6    1
    11     6     5    1
    12     5     1    1
    13     1     2    1
    14     2     3    1
    15     2     4    2
