@<TRIPOS>MOLECULE
/home/cewinharhar/GITHUB/reincatalyze/data/processed/docking_pred/2023-May-31-1438_sub9_nm5_bs15_s42_ex16_mel10_mts1000_k50_ec05_g099_lra9e-4_lrc3e-3/3b29dc4ebb7ee5049f43ecb42d98a580ffb6b5da_ligand_9.pdbqt
 14 15 0 0 0
SMALL
GASTEIGER

@<TRIPOS>ATOM
      1  C          5.8060    1.2180    2.0800 C.3     1  UNL1        0.0800
      2  C          4.7680    1.7680    1.1630 C.2     1  UNL1        0.1300
      3  C          5.0870    2.1490   -0.2380 C.3     1  UNL1        0.0870
      4  O          3.6170    1.9220    1.5400 O.2     1  UNL1       -0.3000
      5  C          5.6710   -0.2850    2.2260 C.3     1  UNL1        0.0430
      6  C          6.9160   -0.9830    1.8620 C.2     1  UNL1       -0.0440
      7  C          8.1660   -0.3660    1.9890 C.2     1  UNL1        0.0080
      8  C          6.8610   -2.2740    1.3890 C.2     1  UNL1        0.0540
      9  C          9.3020   -1.0710    1.6330 C.2     1  UNL1        0.0510
     10  C          8.0120   -2.9830    1.0310 C.2     1  UNL1        0.1660
     11  C          9.2420   -2.3760    1.1530 C.2     1  UNL1        0.1650
     12  O          8.2180   -4.2550    0.5410 O.2     1  UNL1       -0.4540
     13  O         10.1880   -3.2990    0.7330 O.2     1  UNL1       -0.4540
     14  C          9.5890   -4.5350    0.4230 C.3     1  UNL1        0.4680
@<TRIPOS>BOND
     1     3     2    1
     2    14    12    1
     3    14    13    1
     4    12    10    1
     5    13    11    1
     6    10    11    2
     7    10     8    1
     8    11     9    1
     9     2     4    2
    10     2     1    1
    11     8     6    2
    12     9     7    2
    13     6     7    1
    14     6     5    1
    15     1     5    1
