MODEL 1
REMARK VINA RESULT:       1.2      0.000      0.000
REMARK SMILES CC(=O)CCc1ccc2c(c1)OCO2
REMARK SMILES IDX 4 1 2 2 1 3 3 4 5 5 6 6 7 7 11 8 8 9 10 10 9 11 12 12 14 13
REMARK SMILES IDX 13 14
REMARK H PARENT
REMARK Flexibility Score: inf
ROOT
ATOM      1  C   UNL     1       6.585   2.150   1.562  1.00  0.00     0.080 C 
ENDROOT
BRANCH   1   2
ATOM      2  C   UNL     1       5.264   2.052   0.879  1.00  0.00     0.130 C 
ATOM      3  C   UNL     1       5.141   2.150  -0.600  1.00  0.00     0.087 C 
ATOM      4  O   UNL     1       4.239   1.887   1.520  1.00  0.00    -0.300 OA
ENDBRANCH   1   2
BRANCH   1   5
ATOM      5  C   UNL     1       6.703   1.134   2.681  1.00  0.00     0.043 C 
BRANCH   5   6
ATOM      6  C   UNL     1       6.960  -0.222   2.163  1.00  0.00    -0.044 A 
ATOM      7  C   UNL     1       5.920  -1.134   1.951  1.00  0.00     0.008 A 
ATOM      8  C   UNL     1       8.248  -0.609   1.875  1.00  0.00     0.054 A 
ATOM      9  C   UNL     1       6.221  -2.393   1.462  1.00  0.00     0.051 A 
ATOM     10  C   UNL     1       8.547  -1.882   1.381  1.00  0.00     0.166 A 
ATOM     11  C   UNL     1       7.525  -2.782   1.173  1.00  0.00     0.165 A 
ATOM     12  O   UNL     1       9.728  -2.499   1.024  1.00  0.00    -0.454 OA
ATOM     13  O   UNL     1       8.105  -3.943   0.687  1.00  0.00    -0.454 OA
ATOM     14  C   UNL     1       9.489  -3.776   0.491  1.00  0.00     0.468 C 
ENDBRANCH   5   6
ENDBRANCH   1   5
TORSDOF 3
ENDMDL
MODEL 2
REMARK VINA RESULT:       1.3      2.138      5.747
REMARK SMILES CC(=O)CCc1ccc2c(c1)OCO2
REMARK SMILES IDX 4 1 2 2 1 3 3 4 5 5 6 6 7 7 11 8 8 9 10 10 9 11 12 12 14 13
REMARK SMILES IDX 13 14
REMARK H PARENT
REMARK Flexibility Score: inf
ROOT
ATOM      1  C   UNL     1       8.796  -4.773  -0.375  1.00  0.00     0.080 C 
ENDROOT
BRANCH   1   2
ATOM      2  C   UNL     1       9.533  -4.680  -1.666  1.00  0.00     0.130 C 
ATOM      3  C   UNL     1      10.356  -5.808  -2.179  1.00  0.00     0.087 C 
ATOM      4  O   UNL     1       9.482  -3.667  -2.345  1.00  0.00    -0.300 OA
ENDBRANCH   1   2
BRANCH   1   5
ATOM      5  C   UNL     1       9.539  -4.057   0.735  1.00  0.00     0.043 C 
BRANCH   5   6
ATOM      6  C   UNL     1       8.880  -2.792   1.106  1.00  0.00    -0.044 A 
ATOM      7  C   UNL     1       9.600  -1.597   1.225  1.00  0.00     0.008 A 
ATOM      8  C   UNL     1       7.524  -2.772   1.341  1.00  0.00     0.054 A 
ATOM      9  C   UNL     1       8.928  -0.441   1.575  1.00  0.00     0.051 A 
ATOM     10  C   UNL     1       6.849  -1.600   1.694  1.00  0.00     0.166 A 
ATOM     11  C   UNL     1       7.557  -0.425   1.812  1.00  0.00     0.165 A 
ATOM     12  O   UNL     1       5.528  -1.325   1.976  1.00  0.00    -0.454 OA
ATOM     13  O   UNL     1       6.646   0.558   2.167  1.00  0.00    -0.454 OA
ATOM     14  C   UNL     1       5.334   0.049   2.193  1.00  0.00     0.468 C 
ENDBRANCH   5   6
ENDBRANCH   1   5
TORSDOF 3
ENDMDL
MODEL 3
REMARK VINA RESULT:       1.4      3.256      4.178
REMARK SMILES CC(=O)CCc1ccc2c(c1)OCO2
REMARK SMILES IDX 4 1 2 2 1 3 3 4 5 5 6 6 7 7 11 8 8 9 10 10 9 11 12 12 14 13
REMARK SMILES IDX 13 14
REMARK H PARENT
REMARK Flexibility Score: inf
ROOT
ATOM      1  C   UNL     1       1.955  -0.068   3.084  1.00  0.00     0.080 C 
ENDROOT
BRANCH   1   2
ATOM      2  C   UNL     1       0.478   0.123   3.102  1.00  0.00     0.130 C 
ATOM      3  C   UNL     1      -0.172   1.254   2.387  1.00  0.00     0.087 C 
ATOM      4  O   UNL     1      -0.246  -0.649   3.709  1.00  0.00    -0.300 OA
ENDBRANCH   1   2
BRANCH   1   5
ATOM      5  C   UNL     1       2.649   1.076   2.372  1.00  0.00     0.043 C 
BRANCH   5   6
ATOM      6  C   UNL     1       4.076   0.789   2.139  1.00  0.00    -0.044 A 
ATOM      7  C   UNL     1       4.989   1.807   1.840  1.00  0.00     0.008 A 
ATOM      8  C   UNL     1       4.533  -0.507   2.216  1.00  0.00     0.054 A 
ATOM      9  C   UNL     1       6.316   1.478   1.632  1.00  0.00     0.051 A 
ATOM     10  C   UNL     1       5.876  -0.834   2.006  1.00  0.00     0.166 A 
ATOM     11  C   UNL     1       6.775   0.166   1.711  1.00  0.00     0.165 A 
ATOM     12  O   UNL     1       6.566  -2.028   2.025  1.00  0.00    -0.454 OA
ATOM     13  O   UNL     1       8.012  -0.439   1.555  1.00  0.00    -0.454 OA
ATOM     14  C   UNL     1       7.942  -1.817   1.835  1.00  0.00     0.468 C 
ENDBRANCH   5   6
ENDBRANCH   1   5
TORSDOF 3
ENDMDL
MODEL 4
REMARK VINA RESULT:       1.6      1.439      5.742
REMARK SMILES CC(=O)CCc1ccc2c(c1)OCO2
REMARK SMILES IDX 4 1 2 2 1 3 3 4 5 5 6 6 7 7 11 8 8 9 10 10 9 11 12 12 14 13
REMARK SMILES IDX 13 14
REMARK H PARENT
REMARK Flexibility Score: inf
ROOT
ATOM      1  C   UNL     1       9.074  -2.638   0.884  1.00  0.00     0.080 C 
ENDROOT
BRANCH   1   2
ATOM      2  C   UNL     1       9.535  -4.025   0.598  1.00  0.00     0.130 C 
ATOM      3  C   UNL     1       9.040  -4.787  -0.580  1.00  0.00     0.087 C 
ATOM      4  O   UNL     1      10.340  -4.581   1.329  1.00  0.00    -0.300 OA
ENDBRANCH   1   2
BRANCH   1   5
ATOM      5  C   UNL     1       7.908  -2.635   1.853  1.00  0.00     0.043 C 
BRANCH   5   6
ATOM      6  C   UNL     1       7.211  -1.337   1.864  1.00  0.00    -0.044 A 
ATOM      7  C   UNL     1       7.904  -0.130   1.711  1.00  0.00     0.008 A 
ATOM      8  C   UNL     1       5.844  -1.298   2.026  1.00  0.00     0.054 A 
ATOM      9  C   UNL     1       7.196   1.058   1.729  1.00  0.00     0.051 A 
ATOM     10  C   UNL     1       5.133  -0.094   2.042  1.00  0.00     0.166 A 
ATOM     11  C   UNL     1       5.815   1.093   1.893  1.00  0.00     0.165 A 
ATOM     12  O   UNL     1       3.795   0.205   2.187  1.00  0.00    -0.454 OA
ATOM     13  O   UNL     1       4.871   2.107   1.948  1.00  0.00    -0.454 OA
ATOM     14  C   UNL     1       3.568   1.584   2.043  1.00  0.00     0.468 C 
ENDBRANCH   5   6
ENDBRANCH   1   5
TORSDOF 3
ENDMDL
MODEL 5
REMARK VINA RESULT:       2.3      0.785      1.776
REMARK SMILES CC(=O)CCc1ccc2c(c1)OCO2
REMARK SMILES IDX 4 1 2 2 1 3 3 4 5 5 6 6 7 7 11 8 8 9 10 10 9 11 12 12 14 13
REMARK SMILES IDX 13 14
REMARK H PARENT
REMARK Flexibility Score: inf
ROOT
ATOM      1  C   UNL     1       5.806   1.218   2.080  1.00  0.00     0.080 C 
ENDROOT
BRANCH   1   2
ATOM      2  C   UNL     1       4.768   1.768   1.163  1.00  0.00     0.130 C 
ATOM      3  C   UNL     1       5.087   2.149  -0.238  1.00  0.00     0.087 C 
ATOM      4  O   UNL     1       3.617   1.922   1.540  1.00  0.00    -0.300 OA
ENDBRANCH   1   2
BRANCH   1   5
ATOM      5  C   UNL     1       5.671  -0.285   2.226  1.00  0.00     0.043 C 
BRANCH   5   6
ATOM      6  C   UNL     1       6.916  -0.983   1.862  1.00  0.00    -0.044 A 
ATOM      7  C   UNL     1       8.166  -0.366   1.989  1.00  0.00     0.008 A 
ATOM      8  C   UNL     1       6.861  -2.274   1.389  1.00  0.00     0.054 A 
ATOM      9  C   UNL     1       9.302  -1.071   1.633  1.00  0.00     0.051 A 
ATOM     10  C   UNL     1       8.012  -2.983   1.031  1.00  0.00     0.166 A 
ATOM     11  C   UNL     1       9.242  -2.376   1.153  1.00  0.00     0.165 A 
ATOM     12  O   UNL     1       8.218  -4.255   0.541  1.00  0.00    -0.454 OA
ATOM     13  O   UNL     1      10.188  -3.299   0.733  1.00  0.00    -0.454 OA
ATOM     14  C   UNL     1       9.589  -4.535   0.423  1.00  0.00     0.468 C 
ENDBRANCH   5   6
ENDBRANCH   1   5
TORSDOF 3
ENDMDL
