MODEL 1
REMARK VINA RESULT:      -7.6      0.000      0.000
REMARK SMILES CC(=O)CCc1ccc2c(c1)OCO2
REMARK SMILES IDX 4 1 2 2 1 3 3 4 5 5 6 6 7 7 11 8 8 9 10 10 9 11 12 12 14 13
REMARK SMILES IDX 13 14
REMARK H PARENT
REMARK Flexibility Score: inf
ROOT
ATOM      1  C   UNL     1       5.524   1.937   1.254  1.00  0.00     0.080 C 
ENDROOT
BRANCH   1   2
ATOM      2  C   UNL     1       5.098   0.723   2.003  1.00  0.00     0.130 C 
ATOM      3  C   UNL     1       6.008  -0.440   2.188  1.00  0.00     0.087 C 
ATOM      4  O   UNL     1       3.982   0.646   2.490  1.00  0.00    -0.300 OA
ENDBRANCH   1   2
BRANCH   1   5
ATOM      5  C   UNL     1       5.393   1.735  -0.243  1.00  0.00     0.043 C 
BRANCH   5   6
ATOM      6  C   UNL     1       6.562   1.034  -0.804  1.00  0.00    -0.044 A 
ATOM      7  C   UNL     1       7.868   1.470  -0.554  1.00  0.00     0.008 A 
ATOM      8  C   UNL     1       6.376  -0.079  -1.592  1.00  0.00     0.054 A 
ATOM      9  C   UNL     1       8.926   0.772  -1.106  1.00  0.00     0.051 A 
ATOM     10  C   UNL     1       7.449  -0.781  -2.148  1.00  0.00     0.166 A 
ATOM     11  C   UNL     1       8.735  -0.352  -1.904  1.00  0.00     0.165 A 
ATOM     12  O   UNL     1       7.525  -1.898  -2.954  1.00  0.00    -0.454 OA
ATOM     13  O   UNL     1       9.582  -1.224  -2.570  1.00  0.00    -0.454 OA
ATOM     14  C   UNL     1       8.861  -2.271  -3.173  1.00  0.00     0.468 C 
ENDBRANCH   5   6
ENDBRANCH   1   5
TORSDOF 3
ENDMDL
MODEL 2
REMARK VINA RESULT:      -7.5      1.938      2.393
REMARK SMILES CC(=O)CCc1ccc2c(c1)OCO2
REMARK SMILES IDX 4 1 2 2 1 3 3 4 5 5 6 6 7 7 11 8 8 9 10 10 9 11 12 12 14 13
REMARK SMILES IDX 13 14
REMARK H PARENT
REMARK Flexibility Score: inf
ROOT
ATOM      1  C   UNL     1       5.689   1.278  -0.292  1.00  0.00     0.080 C 
ENDROOT
BRANCH   1   2
ATOM      2  C   UNL     1       5.114   1.247   1.082  1.00  0.00     0.130 C 
ATOM      3  C   UNL     1       5.407   0.135   2.025  1.00  0.00     0.087 C 
ATOM      4  O   UNL     1       4.381   2.140   1.474  1.00  0.00    -0.300 OA
ENDBRANCH   1   2
BRANCH   1   5
ATOM      5  C   UNL     1       7.192   1.082  -0.265  1.00  0.00     0.043 C 
BRANCH   5   6
ATOM      6  C   UNL     1       7.586  -0.205  -0.864  1.00  0.00    -0.044 A 
ATOM      7  C   UNL     1       7.685  -0.369  -2.250  1.00  0.00     0.008 A 
ATOM      8  C   UNL     1       7.869  -1.278  -0.050  1.00  0.00     0.054 A 
ATOM      9  C   UNL     1       8.061  -1.600  -2.755  1.00  0.00     0.051 A 
ATOM     10  C   UNL     1       8.250  -2.521  -0.565  1.00  0.00     0.166 A 
ATOM     11  C   UNL     1       8.346  -2.683  -1.929  1.00  0.00     0.165 A 
ATOM     12  O   UNL     1       8.577  -3.723   0.025  1.00  0.00    -0.454 OA
ATOM     13  O   UNL     1       8.736  -3.995  -2.150  1.00  0.00    -0.454 OA
ATOM     14  C   UNL     1       8.981  -4.663  -0.936  1.00  0.00     0.468 C 
ENDBRANCH   5   6
ENDBRANCH   1   5
TORSDOF 3
ENDMDL
MODEL 3
REMARK VINA RESULT:      -7.2      2.076      2.618
REMARK SMILES CC(=O)CCc1ccc2c(c1)OCO2
REMARK SMILES IDX 4 1 2 2 1 3 3 4 5 5 6 6 7 7 11 8 8 9 10 10 9 11 12 12 14 13
REMARK SMILES IDX 13 14
REMARK H PARENT
REMARK Flexibility Score: inf
ROOT
ATOM      1  C   UNL     1       5.547   0.018   1.966  1.00  0.00     0.080 C 
ENDROOT
BRANCH   1   2
ATOM      2  C   UNL     1       4.652   1.165   1.649  1.00  0.00     0.130 C 
ATOM      3  C   UNL     1       4.948   2.101   0.532  1.00  0.00     0.087 C 
ATOM      4  O   UNL     1       3.642   1.371   2.303  1.00  0.00    -0.300 OA
ENDBRANCH   1   2
BRANCH   1   5
ATOM      5  C   UNL     1       6.962   0.275   1.485  1.00  0.00     0.043 C 
BRANCH   5   6
ATOM      6  C   UNL     1       7.367  -0.685   0.442  1.00  0.00    -0.044 A 
ATOM      7  C   UNL     1       7.258  -0.377  -0.919  1.00  0.00     0.008 A 
ATOM      8  C   UNL     1       7.868  -1.915   0.804  1.00  0.00     0.054 A 
ATOM      9  C   UNL     1       7.655  -1.317  -1.853  1.00  0.00     0.051 A 
ATOM     10  C   UNL     1       8.268  -2.861  -0.145  1.00  0.00     0.166 A 
ATOM     11  C   UNL     1       8.160  -2.559  -1.484  1.00  0.00     0.165 A 
ATOM     12  O   UNL     1       8.788  -4.133  -0.041  1.00  0.00    -0.454 OA
ATOM     13  O   UNL     1       8.623  -3.664  -2.182  1.00  0.00    -0.454 OA
ATOM     14  C   UNL     1       9.115  -4.649  -1.305  1.00  0.00     0.468 C 
ENDBRANCH   5   6
ENDBRANCH   1   5
TORSDOF 3
ENDMDL
MODEL 4
REMARK VINA RESULT:      -7.1      1.244      1.452
REMARK SMILES CC(=O)CCc1ccc2c(c1)OCO2
REMARK SMILES IDX 4 1 2 2 1 3 3 4 5 5 6 6 7 7 11 8 8 9 10 10 9 11 12 12 14 13
REMARK SMILES IDX 13 14
REMARK H PARENT
REMARK Flexibility Score: inf
ROOT
ATOM      1  C   UNL     1       6.349   1.246   0.867  1.00  0.00     0.080 C 
ENDROOT
BRANCH   1   2
ATOM      2  C   UNL     1       5.661   0.434   1.909  1.00  0.00     0.130 C 
ATOM      3  C   UNL     1       6.279  -0.794   2.476  1.00  0.00     0.087 C 
ATOM      4  O   UNL     1       4.562   0.757   2.330  1.00  0.00    -0.300 OA
ENDBRANCH   1   2
BRANCH   1   5
ATOM      5  C   UNL     1       5.836   0.911  -0.520  1.00  0.00     0.043 C 
BRANCH   5   6
ATOM      6  C   UNL     1       6.803   0.097  -1.278  1.00  0.00    -0.044 A 
ATOM      7  C   UNL     1       7.520   0.628  -2.357  1.00  0.00     0.008 A 
ATOM      8  C   UNL     1       7.016  -1.215  -0.924  1.00  0.00     0.054 A 
ATOM      9  C   UNL     1       8.415  -0.183  -3.031  1.00  0.00     0.051 A 
ATOM     10  C   UNL     1       7.923  -2.031  -1.608  1.00  0.00     0.166 A 
ATOM     11  C   UNL     1       8.627  -1.510  -2.671  1.00  0.00     0.165 A 
ATOM     12  O   UNL     1       8.306  -3.346  -1.453  1.00  0.00    -0.454 OA
ATOM     13  O   UNL     1       9.438  -2.527  -3.151  1.00  0.00    -0.454 OA
ATOM     14  C   UNL     1       9.333  -3.681  -2.351  1.00  0.00     0.468 C 
ENDBRANCH   5   6
ENDBRANCH   1   5
TORSDOF 3
ENDMDL
MODEL 5
REMARK VINA RESULT:      -6.9      1.916      2.628
REMARK SMILES CC(=O)CCc1ccc2c(c1)OCO2
REMARK SMILES IDX 4 1 2 2 1 3 3 4 5 5 6 6 7 7 11 8 8 9 10 10 9 11 12 12 14 13
REMARK SMILES IDX 13 14
REMARK H PARENT
REMARK Flexibility Score: inf
ROOT
ATOM      1  C   UNL     1       7.011   1.093   0.937  1.00  0.00     0.080 C 
ENDROOT
BRANCH   1   2
ATOM      2  C   UNL     1       5.564   1.445   0.961  1.00  0.00     0.130 C 
ATOM      3  C   UNL     1       4.912   2.146  -0.178  1.00  0.00     0.087 C 
ATOM      4  O   UNL     1       4.867   1.166   1.923  1.00  0.00    -0.300 OA
ENDBRANCH   1   2
BRANCH   1   5
ATOM      5  C   UNL     1       7.571   1.163  -0.470  1.00  0.00     0.043 C 
BRANCH   5   6
ATOM      6  C   UNL     1       7.833  -0.178  -1.022  1.00  0.00    -0.044 A 
ATOM      7  C   UNL     1       7.840  -0.415  -2.401  1.00  0.00     0.008 A 
ATOM      8  C   UNL     1       8.079  -1.230  -0.169  1.00  0.00     0.054 A 
ATOM      9  C   UNL     1       8.093  -1.695  -2.861  1.00  0.00     0.051 A 
ATOM     10  C   UNL     1       8.334  -2.522  -0.639  1.00  0.00     0.166 A 
ATOM     11  C   UNL     1       8.340  -2.756  -1.996  1.00  0.00     0.165 A 
ATOM     12  O   UNL     1       8.602  -3.717  -0.005  1.00  0.00    -0.454 OA
ATOM     13  O   UNL     1       8.616  -4.104  -2.169  1.00  0.00    -0.454 OA
ATOM     14  C   UNL     1       8.879  -4.731  -0.936  1.00  0.00     0.468 C 
ENDBRANCH   5   6
ENDBRANCH   1   5
TORSDOF 3
ENDMDL
