@<TRIPOS>MOLECULE
/home/cewinharhar/GITHUB/reincatalyze/data/processed/docking_pred/2023-May-31-1438_sub9_nm5_bs15_s42_ex16_mel10_mts1000_k50_ec05_g099_lra9e-4_lrc3e-3/40246e00fe273733fff606c0d5025fbb5a6aafa7_ligand_9.pdbqt
 14 15 0 0 0
SMALL
GASTEIGER

@<TRIPOS>ATOM
      1  C          6.7350    0.7350    1.4990 C.3     1  UNL1        0.0800
      2  C          5.3080    1.1620    1.5030 C.2     1  UNL1        0.1300
      3  C          4.7850    2.1440    0.5170 C.3     1  UNL1        0.0870
      4  O          4.5230    0.7160    2.3230 O.2     1  UNL1       -0.3000
      5  C          7.3870    1.0030    0.1570 C.3     1  UNL1        0.0430
      6  C          7.7030   -0.2470   -0.5570 C.2     1  UNL1       -0.0440
      7  C          7.7170   -0.3090   -1.9550 C.2     1  UNL1        0.0080
      8  C          7.9950   -1.3860    0.1590 C.2     1  UNL1        0.0540
      9  C          8.0220   -1.5100   -2.5700 C.2     1  UNL1        0.0510
     10  C          8.3030   -2.5970   -0.4670 C.2     1  UNL1        0.1660
     11  C          8.3160   -2.6600   -1.8430 C.2     1  UNL1        0.1650
     12  O          8.6220   -3.8490    0.0130 O.2     1  UNL1       -0.4540
     13  O          8.6480   -3.9620   -2.1820 O.2     1  UNL1       -0.4540
     14  C          8.9390   -4.7270   -1.0360 C.3     1  UNL1        0.4680
@<TRIPOS>BOND
     1     9     7    1
     2     9    11    2
     3    13    11    1
     4    13    14    1
     5     7     6    2
     6    11    10    1
     7    14    12    1
     8     6     5    1
     9     6     8    1
    10    10    12    1
    11    10     8    2
    12     5     1    1
    13     3     2    1
    14     1     2    1
    15     2     4    2
