@<TRIPOS>MOLECULE
/home/cewinharhar/GITHUB/reincatalyze/data/processed/docking_pred/2023-May-31-1438_sub9_nm5_bs15_s42_ex16_mel10_mts1000_k50_ec05_g099_lra9e-4_lrc3e-3/40246e00fe273733fff606c0d5025fbb5a6aafa7_ligand_9.pdbqt
 14 15 0 0 0
SMALL
GASTEIGER

@<TRIPOS>ATOM
      1  C          5.3770   -0.1010    2.0050 C.3     1  UNL1        0.0800
      2  C          4.5590    1.1230    1.7750 C.2     1  UNL1        0.1300
      3  C          4.9260    2.1240    0.7370 C.3     1  UNL1        0.0870
      4  O          3.5570    1.3410    2.4370 O.2     1  UNL1       -0.3000
      5  C          6.8290    0.1300    1.6340 C.3     1  UNL1        0.0430
      6  C          7.2680   -0.7750    0.5570 C.2     1  UNL1       -0.0440
      7  C          7.1460   -0.4230   -0.7920 C.2     1  UNL1        0.0080
      8  C          7.8150   -1.9980    0.8740 C.2     1  UNL1        0.0540
      9  C          7.5760   -1.3130   -1.7590 C.2     1  UNL1        0.0510
     10  C          8.2490   -2.8940   -0.1080 C.2     1  UNL1        0.1660
     11  C          8.1280   -2.5480   -1.4350 C.2     1  UNL1        0.1650
     12  O          8.8160   -4.1490   -0.0500 O.2     1  UNL1       -0.4540
     13  O          8.6300   -3.6090   -2.1730 O.2     1  UNL1       -0.4540
     14  C          9.1600   -4.6060   -1.3320 C.3     1  UNL1        0.4680
@<TRIPOS>BOND
     1    13    11    1
     2    13    14    1
     3     9    11    2
     4     9     7    1
     5    11    10    1
     6    14    12    1
     7     7     6    2
     8    10    12    1
     9    10     8    2
    10     6     8    1
    11     6     5    1
    12     3     2    1
    13     5     1    1
    14     2     1    1
    15     2     4    2
