@<TRIPOS>MOLECULE
/home/cewinharhar/GITHUB/reincatalyze/data/processed/docking_pred/2023-May-31-1438_sub9_nm5_bs15_s42_ex16_mel10_mts1000_k50_ec05_g099_lra9e-4_lrc3e-3/404021d27c656f8fbd9408a440432f577c9906d0_ligand_9.pdbqt
 14 15 0 0 0
SMALL
GASTEIGER

@<TRIPOS>ATOM
      1  C          5.9210    1.5390    1.2150 C.3     1  UNL1        0.0800
      2  C          5.4220    0.3970    2.0310 C.2     1  UNL1        0.1300
      3  C          6.2670   -0.7970    2.3030 C.3     1  UNL1        0.0870
      4  O          4.2960    0.4080    2.5030 O.2     1  UNL1       -0.3000
      5  C          5.6840    1.3030   -0.2640 C.3     1  UNL1        0.0430
      6  C          6.8310    0.6310   -0.9000 C.2     1  UNL1       -0.0440
      7  C          8.1070    1.2070   -0.9080 C.2     1  UNL1        0.0080
      8  C          6.6560   -0.5950   -1.5010 C.2     1  UNL1        0.0540
      9  C          9.1450    0.5290   -1.5200 C.2     1  UNL1        0.0510
     10  C          7.7090   -1.2760   -2.1180 C.2     1  UNL1        0.1660
     11  C          8.9640   -0.7100   -2.1280 C.2     1  UNL1        0.1650
     12  O          7.7890   -2.4860   -2.7740 O.2     1  UNL1       -0.4540
     13  O          9.7980   -1.5930   -2.7960 O.2     1  UNL1       -0.4540
     14  C          9.1140   -2.7730   -3.1430 C.3     1  UNL1        0.4680
@<TRIPOS>BOND
     1    14    13    1
     2    14    12    1
     3    13    11    1
     4    12    10    1
     5    11    10    2
     6    11     9    1
     7    10     8    1
     8     9     7    2
     9     8     6    2
    10     7     6    1
    11     6     5    1
    12     5     1    1
    13     1     2    1
    14     2     3    1
    15     2     4    2
