@<TRIPOS>MOLECULE
/home/cewinharhar/GITHUB/reincatalyze/data/processed/docking_pred/2023-May-31-1438_sub9_nm5_bs15_s42_ex16_mel10_mts1000_k50_ec05_g099_lra9e-4_lrc3e-3/404021d27c656f8fbd9408a440432f577c9906d0_ligand_9.pdbqt
 14 15 0 0 0
SMALL
GASTEIGER

@<TRIPOS>ATOM
      1  C          5.9030    1.1020   -0.2110 C.3     1  UNL1        0.0800
      2  C          5.8800    1.1100    1.2780 C.2     1  UNL1        0.1300
      3  C          5.3470   -0.0400    2.0570 C.3     1  UNL1        0.0870
      4  O          6.3000    2.0680    1.9060 O.2     1  UNL1       -0.3000
      5  C          7.3240    1.0990   -0.7400 C.3     1  UNL1        0.0430
      6  C          7.7250   -0.2360   -1.2190 C.2     1  UNL1       -0.0440
      7  C          7.9230   -0.4970   -2.5800 C.2     1  UNL1        0.0080
      8  C          7.9150   -1.2570   -0.3160 C.2     1  UNL1        0.0540
      9  C          8.3010   -1.7680   -2.9710 C.2     1  UNL1        0.0510
     10  C          8.2970   -2.5410   -0.7170 C.2     1  UNL1        0.1660
     11  C          8.4910   -2.7980   -2.0560 C.2     1  UNL1        0.1650
     12  O          8.5440   -3.7070   -0.0240 O.2     1  UNL1       -0.4540
     13  O          8.8580   -4.1310   -2.1580 O.2     1  UNL1       -0.4540
     14  C          8.9920   -4.7200   -0.8870 C.3     1  UNL1        0.4680
@<TRIPOS>BOND
     1     9     7    1
     2     9    11    2
     3     7     6    2
     4    13    11    1
     5    13    14    1
     6    11    10    1
     7     6     5    1
     8     6     8    1
     9    14    12    1
    10     5     1    1
    11    10     8    2
    12    10    12    1
    13     1     2    1
    14     2     4    2
    15     2     3    1
