@<TRIPOS>MOLECULE
/home/cewinharhar/GITHUB/reincatalyze/data/processed/docking_pred/2023-May-31-1438_sub9_nm5_bs15_s42_ex16_mel10_mts1000_k50_ec05_g099_lra9e-4_lrc3e-3/404021d27c656f8fbd9408a440432f577c9906d0_ligand_9.pdbqt
 14 15 0 0 0
SMALL
GASTEIGER

@<TRIPOS>ATOM
      1  C          5.1170    0.4450    1.5150 C.3     1  UNL1        0.0800
      2  C          6.2700   -0.2120    2.1910 C.2     1  UNL1        0.1300
      3  C          6.4800   -1.6830    2.1240 C.3     1  UNL1        0.0870
      4  O          7.0820    0.4440    2.8240 O.2     1  UNL1       -0.3000
      5  C          5.5820    1.3830    0.4180 C.3     1  UNL1        0.0430
      6  C          6.6820    0.7990   -0.3700 C.2     1  UNL1       -0.0440
      7  C          7.9510    1.3890   -0.4070 C.2     1  UNL1        0.0080
      8  C          6.4690   -0.3560   -1.0870 C.2     1  UNL1        0.0540
      9  C          8.9450    0.7950   -1.1640 C.2     1  UNL1        0.0510
     10  C          7.4780   -0.9530   -1.8500 C.2     1  UNL1        0.1660
     11  C          8.7260   -0.3720   -1.8890 C.2     1  UNL1        0.1650
     12  O          7.5150   -2.0830   -2.6390 O.2     1  UNL1       -0.4540
     13  O          9.5120   -1.1660   -2.7090 O.2     1  UNL1       -0.4540
     14  C          8.8100   -2.3100   -3.1330 C.3     1  UNL1        0.4680
@<TRIPOS>BOND
     1    14    13    1
     2    14    12    1
     3    13    11    1
     4    12    10    1
     5    11    10    2
     6    11     9    1
     7    10     8    1
     8     9     7    2
     9     8     6    2
    10     7     6    1
    11     6     5    1
    12     5     1    1
    13     1     2    1
    14     3     2    1
    15     2     4    2
