MODEL 1
REMARK VINA RESULT:      -7.2      0.000      0.000
REMARK SMILES CC(=O)CCc1ccc2c(c1)OCO2
REMARK SMILES IDX 4 1 2 2 1 3 3 4 5 5 6 6 7 7 11 8 8 9 10 10 9 11 12 12 14 13
REMARK SMILES IDX 13 14
REMARK H PARENT
REMARK Flexibility Score: inf
ROOT
ATOM      1  C   UNL     1       5.921   1.539   1.215  1.00  0.00     0.080 C 
ENDROOT
BRANCH   1   2
ATOM      2  C   UNL     1       5.422   0.397   2.031  1.00  0.00     0.130 C 
ATOM      3  C   UNL     1       6.267  -0.797   2.303  1.00  0.00     0.087 C 
ATOM      4  O   UNL     1       4.296   0.408   2.503  1.00  0.00    -0.300 OA
ENDBRANCH   1   2
BRANCH   1   5
ATOM      5  C   UNL     1       5.684   1.303  -0.264  1.00  0.00     0.043 C 
BRANCH   5   6
ATOM      6  C   UNL     1       6.831   0.631  -0.900  1.00  0.00    -0.044 A 
ATOM      7  C   UNL     1       8.107   1.207  -0.908  1.00  0.00     0.008 A 
ATOM      8  C   UNL     1       6.656  -0.595  -1.501  1.00  0.00     0.054 A 
ATOM      9  C   UNL     1       9.145   0.529  -1.520  1.00  0.00     0.051 A 
ATOM     10  C   UNL     1       7.709  -1.276  -2.118  1.00  0.00     0.166 A 
ATOM     11  C   UNL     1       8.964  -0.710  -2.128  1.00  0.00     0.165 A 
ATOM     12  O   UNL     1       7.789  -2.486  -2.774  1.00  0.00    -0.454 OA
ATOM     13  O   UNL     1       9.798  -1.593  -2.796  1.00  0.00    -0.454 OA
ATOM     14  C   UNL     1       9.114  -2.773  -3.143  1.00  0.00     0.468 C 
ENDBRANCH   5   6
ENDBRANCH   1   5
TORSDOF 3
ENDMDL
MODEL 2
REMARK VINA RESULT:      -7.1      1.045      1.058
REMARK SMILES CC(=O)CCc1ccc2c(c1)OCO2
REMARK SMILES IDX 4 1 2 2 1 3 3 4 5 5 6 6 7 7 11 8 8 9 10 10 9 11 12 12 14 13
REMARK SMILES IDX 13 14
REMARK H PARENT
REMARK Flexibility Score: inf
ROOT
ATOM      1  C   UNL     1       6.372   1.212   0.933  1.00  0.00     0.080 C 
ENDROOT
BRANCH   1   2
ATOM      2  C   UNL     1       5.658   0.375   1.937  1.00  0.00     0.130 C 
ATOM      3  C   UNL     1       6.272  -0.852   2.510  1.00  0.00     0.087 C 
ATOM      4  O   UNL     1       4.539   0.675   2.320  1.00  0.00    -0.300 OA
ENDBRANCH   1   2
BRANCH   1   5
ATOM      5  C   UNL     1       5.867   0.941  -0.470  1.00  0.00     0.043 C 
BRANCH   5   6
ATOM      6  C   UNL     1       6.814   0.118  -1.243  1.00  0.00    -0.044 A 
ATOM      7  C   UNL     1       7.507   0.636  -2.343  1.00  0.00     0.008 A 
ATOM      8  C   UNL     1       7.032  -1.192  -0.881  1.00  0.00     0.054 A 
ATOM      9  C   UNL     1       8.385  -0.184  -3.029  1.00  0.00     0.051 A 
ATOM     10  C   UNL     1       7.920  -2.017  -1.578  1.00  0.00     0.166 A 
ATOM     11  C   UNL     1       8.602  -1.508  -2.662  1.00  0.00     0.165 A 
ATOM     12  O   UNL     1       8.303  -3.331  -1.420  1.00  0.00    -0.454 OA
ATOM     13  O   UNL     1       9.399  -2.532  -3.150  1.00  0.00    -0.454 OA
ATOM     14  C   UNL     1       9.309  -3.678  -2.338  1.00  0.00     0.468 C 
ENDBRANCH   5   6
ENDBRANCH   1   5
TORSDOF 3
ENDMDL
MODEL 3
REMARK VINA RESULT:      -7.0      1.756      2.216
REMARK SMILES CC(=O)CCc1ccc2c(c1)OCO2
REMARK SMILES IDX 4 1 2 2 1 3 3 4 5 5 6 6 7 7 11 8 8 9 10 10 9 11 12 12 14 13
REMARK SMILES IDX 13 14
REMARK H PARENT
REMARK Flexibility Score: inf
ROOT
ATOM      1  C   UNL     1       5.903   1.102  -0.211  1.00  0.00     0.080 C 
ENDROOT
BRANCH   1   2
ATOM      2  C   UNL     1       5.880   1.110   1.278  1.00  0.00     0.130 C 
ATOM      3  C   UNL     1       5.347  -0.040   2.057  1.00  0.00     0.087 C 
ATOM      4  O   UNL     1       6.300   2.068   1.906  1.00  0.00    -0.300 OA
ENDBRANCH   1   2
BRANCH   1   5
ATOM      5  C   UNL     1       7.324   1.099  -0.740  1.00  0.00     0.043 C 
BRANCH   5   6
ATOM      6  C   UNL     1       7.725  -0.236  -1.219  1.00  0.00    -0.044 A 
ATOM      7  C   UNL     1       7.923  -0.497  -2.580  1.00  0.00     0.008 A 
ATOM      8  C   UNL     1       7.915  -1.257  -0.316  1.00  0.00     0.054 A 
ATOM      9  C   UNL     1       8.301  -1.768  -2.971  1.00  0.00     0.051 A 
ATOM     10  C   UNL     1       8.297  -2.541  -0.717  1.00  0.00     0.166 A 
ATOM     11  C   UNL     1       8.491  -2.798  -2.056  1.00  0.00     0.165 A 
ATOM     12  O   UNL     1       8.544  -3.707  -0.024  1.00  0.00    -0.454 OA
ATOM     13  O   UNL     1       8.858  -4.131  -2.158  1.00  0.00    -0.454 OA
ATOM     14  C   UNL     1       8.992  -4.720  -0.887  1.00  0.00     0.468 C 
ENDBRANCH   5   6
ENDBRANCH   1   5
TORSDOF 3
ENDMDL
MODEL 4
REMARK VINA RESULT:      -6.6      1.964      2.538
REMARK SMILES CC(=O)CCc1ccc2c(c1)OCO2
REMARK SMILES IDX 4 1 2 2 1 3 3 4 5 5 6 6 7 7 11 8 8 9 10 10 9 11 12 12 14 13
REMARK SMILES IDX 13 14
REMARK H PARENT
REMARK Flexibility Score: inf
ROOT
ATOM      1  C   UNL     1       6.096  -0.414   2.278  1.00  0.00     0.080 C 
ENDROOT
BRANCH   1   2
ATOM      2  C   UNL     1       5.083   0.598   1.868  1.00  0.00     0.130 C 
ATOM      3  C   UNL     1       5.262   1.434   0.651  1.00  0.00     0.087 C 
ATOM      4  O   UNL     1       4.068   0.770   2.524  1.00  0.00    -0.300 OA
ENDBRANCH   1   2
BRANCH   1   5
ATOM      5  C   UNL     1       7.449  -0.121   1.659  1.00  0.00     0.043 C 
BRANCH   5   6
ATOM      6  C   UNL     1       7.757  -1.047   0.555  1.00  0.00    -0.044 A 
ATOM      7  C   UNL     1       7.636  -0.658  -0.784  1.00  0.00     0.008 A 
ATOM      8  C   UNL     1       8.177  -2.327   0.836  1.00  0.00     0.054 A 
ATOM      9  C   UNL     1       7.940  -1.571  -1.778  1.00  0.00     0.051 A 
ATOM     10  C   UNL     1       8.484  -3.246  -0.172  1.00  0.00     0.166 A 
ATOM     11  C   UNL     1       8.363  -2.864  -1.490  1.00  0.00     0.165 A 
ATOM     12  O   UNL     1       8.914  -4.556  -0.151  1.00  0.00    -0.454 OA
ATOM     13  O   UNL     1       8.727  -3.959  -2.259  1.00  0.00    -0.454 OA
ATOM     14  C   UNL     1       9.170  -5.023  -1.451  1.00  0.00     0.468 C 
ENDBRANCH   5   6
ENDBRANCH   1   5
TORSDOF 3
ENDMDL
MODEL 5
REMARK VINA RESULT:      -6.3      0.940      1.024
REMARK SMILES CC(=O)CCc1ccc2c(c1)OCO2
REMARK SMILES IDX 4 1 2 2 1 3 3 4 5 5 6 6 7 7 11 8 8 9 10 10 9 11 12 12 14 13
REMARK SMILES IDX 13 14
REMARK H PARENT
REMARK Flexibility Score: inf
ROOT
ATOM      1  C   UNL     1       5.117   0.445   1.515  1.00  0.00     0.080 C 
ENDROOT
BRANCH   1   2
ATOM      2  C   UNL     1       6.270  -0.212   2.191  1.00  0.00     0.130 C 
ATOM      3  C   UNL     1       6.480  -1.683   2.124  1.00  0.00     0.087 C 
ATOM      4  O   UNL     1       7.082   0.444   2.824  1.00  0.00    -0.300 OA
ENDBRANCH   1   2
BRANCH   1   5
ATOM      5  C   UNL     1       5.582   1.383   0.418  1.00  0.00     0.043 C 
BRANCH   5   6
ATOM      6  C   UNL     1       6.682   0.799  -0.370  1.00  0.00    -0.044 A 
ATOM      7  C   UNL     1       7.951   1.389  -0.407  1.00  0.00     0.008 A 
ATOM      8  C   UNL     1       6.469  -0.356  -1.087  1.00  0.00     0.054 A 
ATOM      9  C   UNL     1       8.945   0.795  -1.164  1.00  0.00     0.051 A 
ATOM     10  C   UNL     1       7.478  -0.953  -1.850  1.00  0.00     0.166 A 
ATOM     11  C   UNL     1       8.726  -0.372  -1.889  1.00  0.00     0.165 A 
ATOM     12  O   UNL     1       7.515  -2.083  -2.639  1.00  0.00    -0.454 OA
ATOM     13  O   UNL     1       9.512  -1.166  -2.709  1.00  0.00    -0.454 OA
ATOM     14  C   UNL     1       8.810  -2.310  -3.133  1.00  0.00     0.468 C 
ENDBRANCH   5   6
ENDBRANCH   1   5
TORSDOF 3
ENDMDL
