@<TRIPOS>MOLECULE
/home/cewinharhar/GITHUB/reincatalyze/data/processed/docking_pred/2023-May-31-1438_sub9_nm5_bs15_s42_ex16_mel10_mts1000_k50_ec05_g099_lra9e-4_lrc3e-3/41d0b72e0d67d5e9a3b384f9954b5fa92cfe5642_ligand_9.pdbqt
 14 15 0 0 0
SMALL
GASTEIGER

@<TRIPOS>ATOM
      1  C         12.3060   -3.7040   -1.7630 C.3     1  UNL1        0.0800
      2  C         11.0440   -4.0500   -2.4750 C.2     1  UNL1        0.1300
      3  C         10.4070   -5.3870   -2.3300 C.3     1  UNL1        0.0870
      4  O         10.4930   -3.2410   -3.2040 O.2     1  UNL1       -0.3000
      5  C         12.1480   -3.8480   -0.2620 C.3     1  UNL1        0.0430
      6  C         11.1070   -2.9480    0.2660 C.2     1  UNL1       -0.0440
      7  C         11.3350   -1.5760    0.4230 C.2     1  UNL1        0.0080
      8  C          9.8770   -3.4580    0.6150 C.2     1  UNL1        0.0540
      9  C         10.3200   -0.7800    0.9230 C.2     1  UNL1        0.0510
     10  C          8.8550   -2.6490    1.1200 C.2     1  UNL1        0.1660
     11  C          9.0780   -1.2990    1.2750 C.2     1  UNL1        0.1650
     12  O          7.5660   -2.9120    1.5330 O.2     1  UNL1       -0.4540
     13  O          7.9100   -0.7560    1.7850 O.2     1  UNL1       -0.4540
     14  C          6.8960   -1.7280    1.8790 C.3     1  UNL1        0.4680
@<TRIPOS>BOND
     1     4     2    2
     2     2     3    1
     3     2     1    1
     4     1     5    1
     5     5     6    1
     6     6     7    2
     7     6     8    1
     8     7     9    1
     9     8    10    2
    10     9    11    2
    11    10    11    1
    12    10    12    1
    13    11    13    1
    14    12    14    1
    15    13    14    1
