@<TRIPOS>MOLECULE
/home/cewinharhar/GITHUB/reincatalyze/data/processed/docking_pred/2023-May-31-1438_sub9_nm5_bs15_s42_ex16_mel10_mts1000_k50_ec05_g099_lra9e-4_lrc3e-3/41d0b72e0d67d5e9a3b384f9954b5fa92cfe5642_ligand_9.pdbqt
 14 15 0 0 0
SMALL
GASTEIGER

@<TRIPOS>ATOM
      1  C         11.9080   -1.2780    1.1940 C.3     1  UNL1        0.0800
      2  C         10.7460   -0.6290    0.5250 C.2     1  UNL1        0.1300
      3  C         10.9270    0.3340   -0.5940 C.3     1  UNL1        0.0870
      4  O          9.6030   -0.8710    0.8790 O.2     1  UNL1       -0.3000
      5  C         12.8220   -1.9440    0.1850 C.3     1  UNL1        0.0430
      6  C         12.1290   -3.0080   -0.5630 C.2     1  UNL1       -0.0440
      7  C         12.7330   -3.6560   -1.6460 C.2     1  UNL1        0.0080
      8  C         10.8570   -3.3830   -0.1940 C.2     1  UNL1        0.0540
      9  C         12.0340   -4.6470   -2.3100 C.2     1  UNL1        0.0510
     10  C         10.1550   -4.3870   -0.8670 C.2     1  UNL1        0.1660
     11  C         10.7480   -5.0240   -1.9340 C.2     1  UNL1        0.1650
     12  O          8.9000   -4.9320   -0.6970 O.2     1  UNL1       -0.4540
     13  O          9.8360   -5.9580   -2.4010 O.2     1  UNL1       -0.4540
     14  C          8.6870   -5.9960   -1.5890 C.3     1  UNL1        0.4680
@<TRIPOS>BOND
     1    13    11    1
     2    13    14    1
     3     9    11    2
     4     9     7    1
     5    11    10    1
     6     7     6    2
     7    14    12    1
     8    10    12    1
     9    10     8    2
    10     3     2    1
    11     6     8    1
    12     6     5    1
    13     5     1    1
    14     2     4    2
    15     2     1    1
