@<TRIPOS>MOLECULE
/home/cewinharhar/GITHUB/reincatalyze/data/processed/docking_pred/2023-May-31-1438_sub9_nm5_bs15_s42_ex16_mel10_mts1000_k50_ec05_g099_lra9e-4_lrc3e-3/41d0b72e0d67d5e9a3b384f9954b5fa92cfe5642_ligand_9.pdbqt
 14 15 0 0 0
SMALL
GASTEIGER

@<TRIPOS>ATOM
      1  C          7.5270   -0.8730    2.1240 C.3     1  UNL1        0.0800
      2  C          6.1190   -0.6080    1.7150 C.2     1  UNL1        0.1300
      3  C          5.4690    0.7060    1.9610 C.3     1  UNL1        0.0870
      4  O          5.4550   -1.4700    1.1630 O.2     1  UNL1       -0.3000
      5  C          7.9690   -2.2620    1.7080 C.3     1  UNL1        0.0430
      6  C          9.2700   -2.2370    1.0160 C.2     1  UNL1       -0.0440
      7  C         10.0740   -1.0910    1.0070 C.2     1  UNL1        0.0080
      8  C          9.7170   -3.3630    0.3620 C.2     1  UNL1        0.0540
      9  C         11.2860   -1.1270    0.3420 C.2     1  UNL1        0.0510
     10  C         10.9430   -3.3940   -0.3080 C.2     1  UNL1        0.1660
     11  C         11.7340   -2.2670   -0.3180 C.2     1  UNL1        0.1650
     12  O         11.5990   -4.3740   -1.0220 O.2     1  UNL1       -0.4540
     13  O         12.8720   -2.5820   -1.0450 O.2     1  UNL1       -0.4540
     14  C         12.8690   -3.9350   -1.4320 C.3     1  UNL1        0.4680
@<TRIPOS>BOND
     1    14    13    1
     2    14    12    1
     3    13    11    1
     4    12    10    1
     5    11    10    2
     6    11     9    1
     7    10     8    1
     8     9     7    2
     9     8     6    2
    10     7     6    1
    11     6     5    1
    12     4     2    2
    13     5     1    1
    14     2     3    1
    15     2     1    1
