MODEL 1
REMARK VINA RESULT:      -3.8      0.000      0.000
REMARK SMILES CC(=O)CCc1ccc2c(c1)OCO2
REMARK SMILES IDX 4 1 2 2 1 3 3 4 5 5 6 6 7 7 11 8 8 9 10 10 9 11 12 12 14 13
REMARK SMILES IDX 13 14
REMARK H PARENT
REMARK Flexibility Score: inf
ROOT
ATOM      1  C   UNL     1      12.306  -3.704  -1.763  1.00  0.00     0.080 C 
ENDROOT
BRANCH   1   2
ATOM      2  C   UNL     1      11.044  -4.050  -2.475  1.00  0.00     0.130 C 
ATOM      3  C   UNL     1      10.407  -5.387  -2.330  1.00  0.00     0.087 C 
ATOM      4  O   UNL     1      10.493  -3.241  -3.204  1.00  0.00    -0.300 OA
ENDBRANCH   1   2
BRANCH   1   5
ATOM      5  C   UNL     1      12.148  -3.848  -0.262  1.00  0.00     0.043 C 
BRANCH   5   6
ATOM      6  C   UNL     1      11.107  -2.948   0.266  1.00  0.00    -0.044 A 
ATOM      7  C   UNL     1      11.335  -1.576   0.423  1.00  0.00     0.008 A 
ATOM      8  C   UNL     1       9.877  -3.458   0.615  1.00  0.00     0.054 A 
ATOM      9  C   UNL     1      10.320  -0.780   0.923  1.00  0.00     0.051 A 
ATOM     10  C   UNL     1       8.855  -2.649   1.120  1.00  0.00     0.166 A 
ATOM     11  C   UNL     1       9.078  -1.299   1.275  1.00  0.00     0.165 A 
ATOM     12  O   UNL     1       7.566  -2.912   1.533  1.00  0.00    -0.454 OA
ATOM     13  O   UNL     1       7.910  -0.756   1.785  1.00  0.00    -0.454 OA
ATOM     14  C   UNL     1       6.896  -1.728   1.879  1.00  0.00     0.468 C 
ENDBRANCH   5   6
ENDBRANCH   1   5
TORSDOF 3
ENDMDL
MODEL 2
REMARK VINA RESULT:      -3.7      1.982      4.387
REMARK SMILES CC(=O)CCc1ccc2c(c1)OCO2
REMARK SMILES IDX 4 1 2 2 1 3 3 4 5 5 6 6 7 7 11 8 8 9 10 10 9 11 12 12 14 13
REMARK SMILES IDX 13 14
REMARK H PARENT
REMARK Flexibility Score: inf
ROOT
ATOM      1  C   UNL     1      11.908  -1.278   1.194  1.00  0.00     0.080 C 
ENDROOT
BRANCH   1   2
ATOM      2  C   UNL     1      10.746  -0.629   0.525  1.00  0.00     0.130 C 
ATOM      3  C   UNL     1      10.927   0.334  -0.594  1.00  0.00     0.087 C 
ATOM      4  O   UNL     1       9.603  -0.871   0.879  1.00  0.00    -0.300 OA
ENDBRANCH   1   2
BRANCH   1   5
ATOM      5  C   UNL     1      12.822  -1.944   0.185  1.00  0.00     0.043 C 
BRANCH   5   6
ATOM      6  C   UNL     1      12.129  -3.008  -0.563  1.00  0.00    -0.044 A 
ATOM      7  C   UNL     1      12.733  -3.656  -1.646  1.00  0.00     0.008 A 
ATOM      8  C   UNL     1      10.857  -3.383  -0.194  1.00  0.00     0.054 A 
ATOM      9  C   UNL     1      12.034  -4.647  -2.310  1.00  0.00     0.051 A 
ATOM     10  C   UNL     1      10.155  -4.387  -0.867  1.00  0.00     0.166 A 
ATOM     11  C   UNL     1      10.748  -5.024  -1.934  1.00  0.00     0.165 A 
ATOM     12  O   UNL     1       8.900  -4.932  -0.697  1.00  0.00    -0.454 OA
ATOM     13  O   UNL     1       9.836  -5.958  -2.401  1.00  0.00    -0.454 OA
ATOM     14  C   UNL     1       8.687  -5.996  -1.589  1.00  0.00     0.468 C 
ENDBRANCH   5   6
ENDBRANCH   1   5
TORSDOF 3
ENDMDL
MODEL 3
REMARK VINA RESULT:      -3.6      2.051      5.711
REMARK SMILES CC(=O)CCc1ccc2c(c1)OCO2
REMARK SMILES IDX 4 1 2 2 1 3 3 4 5 5 6 6 7 7 11 8 8 9 10 10 9 11 12 12 14 13
REMARK SMILES IDX 13 14
REMARK H PARENT
REMARK Flexibility Score: inf
ROOT
ATOM      1  C   UNL     1       6.782  -1.023   2.024  1.00  0.00     0.080 C 
ENDROOT
BRANCH   1   2
ATOM      2  C   UNL     1       5.818   0.113   2.023  1.00  0.00     0.130 C 
ATOM      3  C   UNL     1       6.215   1.473   1.569  1.00  0.00     0.087 C 
ATOM      4  O   UNL     1       4.667  -0.041   2.397  1.00  0.00    -0.300 OA
ENDBRANCH   1   2
BRANCH   1   5
ATOM      5  C   UNL     1       8.214  -0.529   1.966  1.00  0.00     0.043 C 
BRANCH   5   6
ATOM      6  C   UNL     1       9.099  -1.499   1.296  1.00  0.00    -0.044 A 
ATOM      7  C   UNL     1       8.736  -2.842   1.148  1.00  0.00     0.008 A 
ATOM      8  C   UNL     1      10.314  -1.084   0.799  1.00  0.00     0.054 A 
ATOM      9  C   UNL     1       9.607  -3.707   0.510  1.00  0.00     0.051 A 
ATOM     10  C   UNL     1      11.191  -1.962   0.155  1.00  0.00     0.166 A 
ATOM     11  C   UNL     1      10.834  -3.284   0.009  1.00  0.00     0.165 A 
ATOM     12  O   UNL     1      12.434  -1.796  -0.417  1.00  0.00    -0.454 OA
ATOM     13  O   UNL     1      11.877  -3.909  -0.656  1.00  0.00    -0.454 OA
ATOM     14  C   UNL     1      12.872  -2.984  -1.025  1.00  0.00     0.468 C 
ENDBRANCH   5   6
ENDBRANCH   1   5
TORSDOF 3
ENDMDL
MODEL 4
REMARK VINA RESULT:      -3.6      1.692      5.271
REMARK SMILES CC(=O)CCc1ccc2c(c1)OCO2
REMARK SMILES IDX 4 1 2 2 1 3 3 4 5 5 6 6 7 7 11 8 8 9 10 10 9 11 12 12 14 13
REMARK SMILES IDX 13 14
REMARK H PARENT
REMARK Flexibility Score: inf
ROOT
ATOM      1  C   UNL     1       7.527  -0.873   2.124  1.00  0.00     0.080 C 
ENDROOT
BRANCH   1   2
ATOM      2  C   UNL     1       6.119  -0.608   1.715  1.00  0.00     0.130 C 
ATOM      3  C   UNL     1       5.469   0.706   1.961  1.00  0.00     0.087 C 
ATOM      4  O   UNL     1       5.455  -1.470   1.163  1.00  0.00    -0.300 OA
ENDBRANCH   1   2
BRANCH   1   5
ATOM      5  C   UNL     1       7.969  -2.262   1.708  1.00  0.00     0.043 C 
BRANCH   5   6
ATOM      6  C   UNL     1       9.270  -2.237   1.016  1.00  0.00    -0.044 A 
ATOM      7  C   UNL     1      10.074  -1.091   1.007  1.00  0.00     0.008 A 
ATOM      8  C   UNL     1       9.717  -3.363   0.362  1.00  0.00     0.054 A 
ATOM      9  C   UNL     1      11.286  -1.127   0.342  1.00  0.00     0.051 A 
ATOM     10  C   UNL     1      10.943  -3.394  -0.308  1.00  0.00     0.166 A 
ATOM     11  C   UNL     1      11.734  -2.267  -0.318  1.00  0.00     0.165 A 
ATOM     12  O   UNL     1      11.599  -4.374  -1.022  1.00  0.00    -0.454 OA
ATOM     13  O   UNL     1      12.872  -2.582  -1.045  1.00  0.00    -0.454 OA
ATOM     14  C   UNL     1      12.869  -3.935  -1.432  1.00  0.00     0.468 C 
ENDBRANCH   5   6
ENDBRANCH   1   5
TORSDOF 3
ENDMDL
MODEL 5
REMARK VINA RESULT:      -3.6      2.696      3.378
REMARK SMILES CC(=O)CCc1ccc2c(c1)OCO2
REMARK SMILES IDX 4 1 2 2 1 3 3 4 5 5 6 6 7 7 11 8 8 9 10 10 9 11 12 12 14 13
REMARK SMILES IDX 13 14
REMARK H PARENT
REMARK Flexibility Score: inf
ROOT
ATOM      1  C   UNL     1       9.969  -5.335  -2.523  1.00  0.00     0.080 C 
ENDROOT
BRANCH   1   2
ATOM      2  C   UNL     1       9.100  -5.791  -1.403  1.00  0.00     0.130 C 
ATOM      3  C   UNL     1       8.764  -7.227  -1.211  1.00  0.00     0.087 C 
ATOM      4  O   UNL     1       8.637  -4.993  -0.604  1.00  0.00    -0.300 OA
ENDBRANCH   1   2
BRANCH   1   5
ATOM      5  C   UNL     1      11.407  -5.168  -2.073  1.00  0.00     0.043 C 
BRANCH   5   6
ATOM      6  C   UNL     1      11.614  -3.890  -1.369  1.00  0.00    -0.044 A 
ATOM      7  C   UNL     1      12.548  -3.766  -0.334  1.00  0.00     0.008 A 
ATOM      8  C   UNL     1      10.879  -2.784  -1.731  1.00  0.00     0.054 A 
ATOM      9  C   UNL     1      12.700  -2.542   0.290  1.00  0.00     0.051 A 
ATOM     10  C   UNL     1      11.037  -1.548  -1.098  1.00  0.00     0.166 A 
ATOM     11  C   UNL     1      11.955  -1.426  -0.079  1.00  0.00     0.165 A 
ATOM     12  O   UNL     1      10.436  -0.320  -1.272  1.00  0.00    -0.454 OA
ATOM     13  O   UNL     1      11.898  -0.111   0.356  1.00  0.00    -0.454 OA
ATOM     14  C   UNL     1      11.013   0.648  -0.433  1.00  0.00     0.468 C 
ENDBRANCH   5   6
ENDBRANCH   1   5
TORSDOF 3
ENDMDL
