@<TRIPOS>MOLECULE
/home/cewinharhar/GITHUB/reincatalyze/data/processed/docking_pred/2023-May-31-1438_sub9_nm5_bs15_s42_ex16_mel10_mts1000_k50_ec05_g099_lra9e-4_lrc3e-3/41d0b72e0d67d5e9a3b384f9954b5fa92cfe5642_ligand_9.pdbqt
 14 15 0 0 0
SMALL
GASTEIGER

@<TRIPOS>ATOM
      1  C          6.7820   -1.0230    2.0240 C.3     1  UNL1        0.0800
      2  C          5.8180    0.1130    2.0230 C.2     1  UNL1        0.1300
      3  C          6.2150    1.4730    1.5690 C.3     1  UNL1        0.0870
      4  O          4.6670   -0.0410    2.3970 O.2     1  UNL1       -0.3000
      5  C          8.2140   -0.5290    1.9660 C.3     1  UNL1        0.0430
      6  C          9.0990   -1.4990    1.2960 C.2     1  UNL1       -0.0440
      7  C          8.7360   -2.8420    1.1480 C.2     1  UNL1        0.0080
      8  C         10.3140   -1.0840    0.7990 C.2     1  UNL1        0.0540
      9  C          9.6070   -3.7070    0.5100 C.2     1  UNL1        0.0510
     10  C         11.1910   -1.9620    0.1550 C.2     1  UNL1        0.1660
     11  C         10.8340   -3.2840    0.0090 C.2     1  UNL1        0.1650
     12  O         12.4340   -1.7960   -0.4170 O.2     1  UNL1       -0.4540
     13  O         11.8770   -3.9090   -0.6560 O.2     1  UNL1       -0.4540
     14  C         12.8720   -2.9840   -1.0250 C.3     1  UNL1        0.4680
@<TRIPOS>BOND
     1    14    13    1
     2    14    12    1
     3    13    11    1
     4    12    10    1
     5    11    10    2
     6    11     9    1
     7    10     8    1
     8     9     7    2
     9     8     6    2
    10     7     6    1
    11     6     5    1
    12     3     2    1
    13     5     1    1
    14     2     1    1
    15     2     4    2
