MODEL 1
REMARK VINA RESULT:      -7.2      0.000      0.000
REMARK SMILES CC(=O)CCc1ccc2c(c1)OCO2
REMARK SMILES IDX 4 1 2 2 1 3 3 4 5 5 6 6 7 7 11 8 8 9 10 10 9 11 12 12 14 13
REMARK SMILES IDX 13 14
REMARK H PARENT
REMARK Flexibility Score: inf
ROOT
ATOM      1  C   UNL     1       5.854   1.547   1.171  1.00  0.00     0.080 C 
ENDROOT
BRANCH   1   2
ATOM      2  C   UNL     1       5.380   0.410   2.008  1.00  0.00     0.130 C 
ATOM      3  C   UNL     1       6.239  -0.774   2.275  1.00  0.00     0.087 C 
ATOM      4  O   UNL     1       4.264   0.418   2.503  1.00  0.00    -0.300 OA
ENDBRANCH   1   2
BRANCH   1   5
ATOM      5  C   UNL     1       5.630   1.275  -0.303  1.00  0.00     0.043 C 
BRANCH   5   6
ATOM      6  C   UNL     1       6.795   0.616  -0.920  1.00  0.00    -0.044 A 
ATOM      7  C   UNL     1       8.070   1.191  -0.878  1.00  0.00     0.008 A 
ATOM      8  C   UNL     1       6.637  -0.596  -1.553  1.00  0.00     0.054 A 
ATOM      9  C   UNL     1       9.126   0.525  -1.474  1.00  0.00     0.051 A 
ATOM     10  C   UNL     1       7.708  -1.265  -2.153  1.00  0.00     0.166 A 
ATOM     11  C   UNL     1       8.963  -0.699  -2.113  1.00  0.00     0.165 A 
ATOM     12  O   UNL     1       7.807  -2.460  -2.833  1.00  0.00    -0.454 OA
ATOM     13  O   UNL     1       9.815  -1.569  -2.776  1.00  0.00    -0.454 OA
ATOM     14  C   UNL     1       9.141  -2.740  -3.169  1.00  0.00     0.468 C 
ENDBRANCH   5   6
ENDBRANCH   1   5
TORSDOF 3
ENDMDL
MODEL 2
REMARK VINA RESULT:      -7.2      1.056      1.082
REMARK SMILES CC(=O)CCc1ccc2c(c1)OCO2
REMARK SMILES IDX 4 1 2 2 1 3 3 4 5 5 6 6 7 7 11 8 8 9 10 10 9 11 12 12 14 13
REMARK SMILES IDX 13 14
REMARK H PARENT
REMARK Flexibility Score: inf
ROOT
ATOM      1  C   UNL     1       6.372   1.212   0.933  1.00  0.00     0.080 C 
ENDROOT
BRANCH   1   2
ATOM      2  C   UNL     1       5.658   0.375   1.937  1.00  0.00     0.130 C 
ATOM      3  C   UNL     1       6.272  -0.852   2.510  1.00  0.00     0.087 C 
ATOM      4  O   UNL     1       4.539   0.675   2.320  1.00  0.00    -0.300 OA
ENDBRANCH   1   2
BRANCH   1   5
ATOM      5  C   UNL     1       5.867   0.941  -0.470  1.00  0.00     0.043 C 
BRANCH   5   6
ATOM      6  C   UNL     1       6.814   0.118  -1.243  1.00  0.00    -0.044 A 
ATOM      7  C   UNL     1       7.507   0.636  -2.343  1.00  0.00     0.008 A 
ATOM      8  C   UNL     1       7.032  -1.192  -0.881  1.00  0.00     0.054 A 
ATOM      9  C   UNL     1       8.385  -0.184  -3.029  1.00  0.00     0.051 A 
ATOM     10  C   UNL     1       7.920  -2.017  -1.578  1.00  0.00     0.166 A 
ATOM     11  C   UNL     1       8.602  -1.508  -2.662  1.00  0.00     0.165 A 
ATOM     12  O   UNL     1       8.303  -3.331  -1.420  1.00  0.00    -0.454 OA
ATOM     13  O   UNL     1       9.399  -2.532  -3.150  1.00  0.00    -0.454 OA
ATOM     14  C   UNL     1       9.309  -3.678  -2.338  1.00  0.00     0.468 C 
ENDBRANCH   5   6
ENDBRANCH   1   5
TORSDOF 3
ENDMDL
MODEL 3
REMARK VINA RESULT:      -7.0      1.794      2.244
REMARK SMILES CC(=O)CCc1ccc2c(c1)OCO2
REMARK SMILES IDX 4 1 2 2 1 3 3 4 5 5 6 6 7 7 11 8 8 9 10 10 9 11 12 12 14 13
REMARK SMILES IDX 13 14
REMARK H PARENT
REMARK Flexibility Score: inf
ROOT
ATOM      1  C   UNL     1       5.958   1.131  -0.208  1.00  0.00     0.080 C 
ENDROOT
BRANCH   1   2
ATOM      2  C   UNL     1       5.915   1.136   1.281  1.00  0.00     0.130 C 
ATOM      3  C   UNL     1       5.360  -0.010   2.050  1.00  0.00     0.087 C 
ATOM      4  O   UNL     1       6.337   2.089   1.916  1.00  0.00    -0.300 OA
ENDBRANCH   1   2
BRANCH   1   5
ATOM      5  C   UNL     1       7.385   1.110  -0.718  1.00  0.00     0.043 C 
BRANCH   5   6
ATOM      6  C   UNL     1       7.774  -0.227  -1.200  1.00  0.00    -0.044 A 
ATOM      7  C   UNL     1       7.983  -0.484  -2.560  1.00  0.00     0.008 A 
ATOM      8  C   UNL     1       7.940  -1.255  -0.300  1.00  0.00     0.054 A 
ATOM      9  C   UNL     1       8.347  -1.759  -2.954  1.00  0.00     0.051 A 
ATOM     10  C   UNL     1       8.310  -2.542  -0.704  1.00  0.00     0.166 A 
ATOM     11  C   UNL     1       8.514  -2.796  -2.042  1.00  0.00     0.165 A 
ATOM     12  O   UNL     1       8.534  -3.715  -0.014  1.00  0.00    -0.454 OA
ATOM     13  O   UNL     1       8.865  -4.133  -2.147  1.00  0.00    -0.454 OA
ATOM     14  C   UNL     1       8.978  -4.730  -0.878  1.00  0.00     0.468 C 
ENDBRANCH   5   6
ENDBRANCH   1   5
TORSDOF 3
ENDMDL
MODEL 4
REMARK VINA RESULT:      -6.6      1.998      2.562
REMARK SMILES CC(=O)CCc1ccc2c(c1)OCO2
REMARK SMILES IDX 4 1 2 2 1 3 3 4 5 5 6 6 7 7 11 8 8 9 10 10 9 11 12 12 14 13
REMARK SMILES IDX 13 14
REMARK H PARENT
REMARK Flexibility Score: inf
ROOT
ATOM      1  C   UNL     1       6.142  -0.411   2.278  1.00  0.00     0.080 C 
ENDROOT
BRANCH   1   2
ATOM      2  C   UNL     1       5.099   0.568   1.863  1.00  0.00     0.130 C 
ATOM      3  C   UNL     1       5.252   1.400   0.639  1.00  0.00     0.087 C 
ATOM      4  O   UNL     1       4.082   0.716   2.521  1.00  0.00    -0.300 OA
ENDBRANCH   1   2
BRANCH   1   5
ATOM      5  C   UNL     1       7.476  -0.104   1.626  1.00  0.00     0.043 C 
BRANCH   5   6
ATOM      6  C   UNL     1       7.779  -1.044   0.532  1.00  0.00    -0.044 A 
ATOM      7  C   UNL     1       7.659  -0.669  -0.811  1.00  0.00     0.008 A 
ATOM      8  C   UNL     1       8.194  -2.323   0.827  1.00  0.00     0.054 A 
ATOM      9  C   UNL     1       7.958  -1.593  -1.795  1.00  0.00     0.051 A 
ATOM     10  C   UNL     1       8.496  -3.253  -0.172  1.00  0.00     0.166 A 
ATOM     11  C   UNL     1       8.377  -2.885  -1.494  1.00  0.00     0.165 A 
ATOM     12  O   UNL     1       8.920  -4.565  -0.137  1.00  0.00    -0.454 OA
ATOM     13  O   UNL     1       8.735  -3.990  -2.251  1.00  0.00    -0.454 OA
ATOM     14  C   UNL     1       9.173  -5.047  -1.432  1.00  0.00     0.468 C 
ENDBRANCH   5   6
ENDBRANCH   1   5
TORSDOF 3
ENDMDL
MODEL 5
REMARK VINA RESULT:      -6.4      0.952      1.037
REMARK SMILES CC(=O)CCc1ccc2c(c1)OCO2
REMARK SMILES IDX 4 1 2 2 1 3 3 4 5 5 6 6 7 7 11 8 8 9 10 10 9 11 12 12 14 13
REMARK SMILES IDX 13 14
REMARK H PARENT
REMARK Flexibility Score: inf
ROOT
ATOM      1  C   UNL     1       5.119   0.470   1.515  1.00  0.00     0.080 C 
ENDROOT
BRANCH   1   2
ATOM      2  C   UNL     1       6.266  -0.202   2.188  1.00  0.00     0.130 C 
ATOM      3  C   UNL     1       6.469  -1.673   2.103  1.00  0.00     0.087 C 
ATOM      4  O   UNL     1       7.077   0.441   2.834  1.00  0.00    -0.300 OA
ENDBRANCH   1   2
BRANCH   1   5
ATOM      5  C   UNL     1       5.594   1.410   0.426  1.00  0.00     0.043 C 
BRANCH   5   6
ATOM      6  C   UNL     1       6.693   0.824  -0.361  1.00  0.00    -0.044 A 
ATOM      7  C   UNL     1       7.966   1.405  -0.387  1.00  0.00     0.008 A 
ATOM      8  C   UNL     1       6.474  -0.323  -1.090  1.00  0.00     0.054 A 
ATOM      9  C   UNL     1       8.960   0.810  -1.143  1.00  0.00     0.051 A 
ATOM     10  C   UNL     1       7.482  -0.921  -1.853  1.00  0.00     0.166 A 
ATOM     11  C   UNL     1       8.735  -0.350  -1.880  1.00  0.00     0.165 A 
ATOM     12  O   UNL     1       7.515  -2.044  -2.652  1.00  0.00    -0.454 OA
ATOM     13  O   UNL     1       9.520  -1.143  -2.702  1.00  0.00    -0.454 OA
ATOM     14  C   UNL     1       8.811  -2.278  -3.140  1.00  0.00     0.468 C 
ENDBRANCH   5   6
ENDBRANCH   1   5
TORSDOF 3
ENDMDL
