@<TRIPOS>MOLECULE
/home/cewinharhar/GITHUB/reincatalyze/data/processed/docking_pred/2023-May-31-1438_sub9_nm5_bs15_s42_ex16_mel10_mts1000_k50_ec05_g099_lra9e-4_lrc3e-3/42234a6127519c7502e2f6bf4b16ee47cf11c698_ligand_9.pdbqt
 14 15 0 0 0
SMALL
GASTEIGER

@<TRIPOS>ATOM
      1  C          5.1190    0.4700    1.5150 C.3     1  UNL1        0.0800
      2  C          6.2660   -0.2020    2.1880 C.2     1  UNL1        0.1300
      3  C          6.4690   -1.6730    2.1030 C.3     1  UNL1        0.0870
      4  O          7.0770    0.4410    2.8340 O.2     1  UNL1       -0.3000
      5  C          5.5940    1.4100    0.4260 C.3     1  UNL1        0.0430
      6  C          6.6930    0.8240   -0.3610 C.2     1  UNL1       -0.0440
      7  C          7.9660    1.4050   -0.3870 C.2     1  UNL1        0.0080
      8  C          6.4740   -0.3230   -1.0900 C.2     1  UNL1        0.0540
      9  C          8.9600    0.8100   -1.1430 C.2     1  UNL1        0.0510
     10  C          7.4820   -0.9210   -1.8530 C.2     1  UNL1        0.1660
     11  C          8.7350   -0.3500   -1.8800 C.2     1  UNL1        0.1650
     12  O          7.5150   -2.0440   -2.6520 O.2     1  UNL1       -0.4540
     13  O          9.5200   -1.1430   -2.7020 O.2     1  UNL1       -0.4540
     14  C          8.8110   -2.2780   -3.1400 C.3     1  UNL1        0.4680
@<TRIPOS>BOND
     1    14    13    1
     2    14    12    1
     3    13    11    1
     4    12    10    1
     5    11    10    2
     6    11     9    1
     7    10     8    1
     8     9     7    2
     9     8     6    2
    10     7     6    1
    11     6     5    1
    12     5     1    1
    13     1     2    1
    14     3     2    1
    15     2     4    2
