@<TRIPOS>MOLECULE
/home/cewinharhar/GITHUB/reincatalyze/data/processed/docking_pred/2023-May-31-1438_sub9_nm5_bs15_s42_ex16_mel10_mts1000_k50_ec05_g099_lra9e-4_lrc3e-3/42234a6127519c7502e2f6bf4b16ee47cf11c698_ligand_9.pdbqt
 14 15 0 0 0
SMALL
GASTEIGER

@<TRIPOS>ATOM
      1  C          5.8540    1.5470    1.1710 C.3     1  UNL1        0.0800
      2  C          5.3800    0.4100    2.0080 C.2     1  UNL1        0.1300
      3  C          6.2390   -0.7740    2.2750 C.3     1  UNL1        0.0870
      4  O          4.2640    0.4180    2.5030 O.2     1  UNL1       -0.3000
      5  C          5.6300    1.2750   -0.3030 C.3     1  UNL1        0.0430
      6  C          6.7950    0.6160   -0.9200 C.2     1  UNL1       -0.0440
      7  C          8.0700    1.1910   -0.8780 C.2     1  UNL1        0.0080
      8  C          6.6370   -0.5960   -1.5530 C.2     1  UNL1        0.0540
      9  C          9.1260    0.5250   -1.4740 C.2     1  UNL1        0.0510
     10  C          7.7080   -1.2650   -2.1530 C.2     1  UNL1        0.1660
     11  C          8.9630   -0.6990   -2.1130 C.2     1  UNL1        0.1650
     12  O          7.8070   -2.4600   -2.8330 O.2     1  UNL1       -0.4540
     13  O          9.8150   -1.5690   -2.7760 O.2     1  UNL1       -0.4540
     14  C          9.1410   -2.7400   -3.1690 C.3     1  UNL1        0.4680
@<TRIPOS>BOND
     1    14    12    1
     2    14    13    1
     3    12    10    1
     4    13    11    1
     5    10    11    2
     6    10     8    1
     7    11     9    1
     8     8     6    2
     9     9     7    2
    10     6     7    1
    11     6     5    1
    12     5     1    1
    13     1     2    1
    14     2     3    1
    15     2     4    2
