@<TRIPOS>MOLECULE
/home/cewinharhar/GITHUB/reincatalyze/data/processed/docking_pred/2023-May-31-1438_sub9_nm5_bs15_s42_ex16_mel10_mts1000_k50_ec05_g099_lra9e-4_lrc3e-3/42234a6127519c7502e2f6bf4b16ee47cf11c698_ligand_9.pdbqt
 14 15 0 0 0
SMALL
GASTEIGER

@<TRIPOS>ATOM
      1  C          5.9580    1.1310   -0.2080 C.3     1  UNL1        0.0800
      2  C          5.9150    1.1360    1.2810 C.2     1  UNL1        0.1300
      3  C          5.3600   -0.0100    2.0500 C.3     1  UNL1        0.0870
      4  O          6.3370    2.0890    1.9160 O.2     1  UNL1       -0.3000
      5  C          7.3850    1.1100   -0.7180 C.3     1  UNL1        0.0430
      6  C          7.7740   -0.2270   -1.2000 C.2     1  UNL1       -0.0440
      7  C          7.9830   -0.4840   -2.5600 C.2     1  UNL1        0.0080
      8  C          7.9400   -1.2550   -0.3000 C.2     1  UNL1        0.0540
      9  C          8.3470   -1.7590   -2.9540 C.2     1  UNL1        0.0510
     10  C          8.3100   -2.5420   -0.7040 C.2     1  UNL1        0.1660
     11  C          8.5140   -2.7960   -2.0420 C.2     1  UNL1        0.1650
     12  O          8.5340   -3.7150   -0.0140 O.2     1  UNL1       -0.4540
     13  O          8.8650   -4.1330   -2.1470 O.2     1  UNL1       -0.4540
     14  C          8.9780   -4.7300   -0.8780 C.3     1  UNL1        0.4680
@<TRIPOS>BOND
     1     9     7    1
     2     9    11    2
     3     7     6    2
     4    13    11    1
     5    13    14    1
     6    11    10    1
     7     6     5    1
     8     6     8    1
     9    14    12    1
    10     5     1    1
    11    10     8    2
    12    10    12    1
    13     1     2    1
    14     2     4    2
    15     2     3    1
