@<TRIPOS>MOLECULE
/home/cewinharhar/GITHUB/reincatalyze/data/processed/docking_pred/2023-May-31-1438_sub9_nm5_bs15_s42_ex16_mel10_mts1000_k50_ec05_g099_lra9e-4_lrc3e-3/42234a6127519c7502e2f6bf4b16ee47cf11c698_ligand_9.pdbqt
 14 15 0 0 0
SMALL
GASTEIGER

@<TRIPOS>ATOM
      1  C          6.3720    1.2120    0.9330 C.3     1  UNL1        0.0800
      2  C          5.6580    0.3750    1.9370 C.2     1  UNL1        0.1300
      3  C          6.2720   -0.8520    2.5100 C.3     1  UNL1        0.0870
      4  O          4.5390    0.6750    2.3200 O.2     1  UNL1       -0.3000
      5  C          5.8670    0.9410   -0.4700 C.3     1  UNL1        0.0430
      6  C          6.8140    0.1180   -1.2430 C.2     1  UNL1       -0.0440
      7  C          7.5070    0.6360   -2.3430 C.2     1  UNL1        0.0080
      8  C          7.0320   -1.1920   -0.8810 C.2     1  UNL1        0.0540
      9  C          8.3850   -0.1840   -3.0290 C.2     1  UNL1        0.0510
     10  C          7.9200   -2.0170   -1.5780 C.2     1  UNL1        0.1660
     11  C          8.6020   -1.5080   -2.6620 C.2     1  UNL1        0.1650
     12  O          8.3030   -3.3310   -1.4200 O.2     1  UNL1       -0.4540
     13  O          9.3990   -2.5320   -3.1500 O.2     1  UNL1       -0.4540
     14  C          9.3090   -3.6780   -2.3380 C.3     1  UNL1        0.4680
@<TRIPOS>BOND
     1    13    11    1
     2    13    14    1
     3     9    11    2
     4     9     7    1
     5    11    10    1
     6     7     6    2
     7    14    12    1
     8    10    12    1
     9    10     8    2
    10     6     8    1
    11     6     5    1
    12     5     1    1
    13     1     2    1
    14     2     4    2
    15     2     3    1
