@<TRIPOS>MOLECULE
/home/cewinharhar/GITHUB/reincatalyze/data/processed/docking_pred/2023-May-31-1438_sub9_nm5_bs15_s42_ex16_mel10_mts1000_k50_ec05_g099_lra9e-4_lrc3e-3/42234a6127519c7502e2f6bf4b16ee47cf11c698_ligand_9.pdbqt
 14 15 0 0 0
SMALL
GASTEIGER

@<TRIPOS>ATOM
      1  C          6.1420   -0.4110    2.2780 C.3     1  UNL1        0.0800
      2  C          5.0990    0.5680    1.8630 C.2     1  UNL1        0.1300
      3  C          5.2520    1.4000    0.6390 C.3     1  UNL1        0.0870
      4  O          4.0820    0.7160    2.5210 O.2     1  UNL1       -0.3000
      5  C          7.4760   -0.1040    1.6260 C.3     1  UNL1        0.0430
      6  C          7.7790   -1.0440    0.5320 C.2     1  UNL1       -0.0440
      7  C          7.6590   -0.6690   -0.8110 C.2     1  UNL1        0.0080
      8  C          8.1940   -2.3230    0.8270 C.2     1  UNL1        0.0540
      9  C          7.9580   -1.5930   -1.7950 C.2     1  UNL1        0.0510
     10  C          8.4960   -3.2530   -0.1720 C.2     1  UNL1        0.1660
     11  C          8.3770   -2.8850   -1.4940 C.2     1  UNL1        0.1650
     12  O          8.9200   -4.5650   -0.1370 O.2     1  UNL1       -0.4540
     13  O          8.7350   -3.9900   -2.2510 O.2     1  UNL1       -0.4540
     14  C          9.1730   -5.0470   -1.4320 C.3     1  UNL1        0.4680
@<TRIPOS>BOND
     1    13    11    1
     2    13    14    1
     3     9    11    2
     4     9     7    1
     5    11    10    1
     6    14    12    1
     7     7     6    2
     8    10    12    1
     9    10     8    2
    10     6     8    1
    11     6     5    1
    12     3     2    1
    13     5     1    1
    14     2     1    1
    15     2     4    2
