@<TRIPOS>MOLECULE
/home/cewinharhar/GITHUB/reincatalyze/data/processed/docking_pred/2023-May-31-1438_sub9_nm5_bs15_s42_ex16_mel10_mts1000_k50_ec05_g099_lra9e-4_lrc3e-3/4295960a5818388fac6ce93a10a8a6662c8ec52f_ligand_9.pdbqt
 14 15 0 0 0
SMALL
GASTEIGER

@<TRIPOS>ATOM
      1  C          6.9440    0.9270    1.1760 C.3     1  UNL1        0.0800
      2  C          5.4970    1.1230    1.4690 C.2     1  UNL1        0.1300
      3  C          4.6870    2.1470    0.7560 C.3     1  UNL1        0.0870
      4  O          4.9310    0.4430    2.3100 O.2     1  UNL1       -0.3000
      5  C          7.2260    1.0440   -0.3090 C.3     1  UNL1        0.0430
      6  C          7.5880   -0.2560   -0.9010 C.2     1  UNL1       -0.0440
      7  C          7.6250   -0.4460   -2.2870 C.2     1  UNL1        0.0080
      8  C          7.9020   -1.3150   -0.0800 C.2     1  UNL1        0.0540
      9  C          7.9730   -1.6890   -2.7850 C.2     1  UNL1        0.0510
     10  C          8.2540   -2.5690   -0.5880 C.2     1  UNL1        0.1660
     11  C          8.2890   -2.7570   -1.9520 C.2     1  UNL1        0.1650
     12  O          8.6020   -3.7620    0.0100 O.2     1  UNL1       -0.4540
     13  O          8.6630   -4.0750   -2.1650 O.2     1  UNL1       -0.4540
     14  C          8.9600   -4.7220   -0.9510 C.3     1  UNL1        0.4680
@<TRIPOS>BOND
     1     9     7    1
     2     9    11    2
     3     7     6    2
     4    13    11    1
     5    13    14    1
     6    11    10    1
     7    14    12    1
     8     6     5    1
     9     6     8    1
    10    10     8    2
    11    10    12    1
    12     5     1    1
    13     3     2    1
    14     1     2    1
    15     2     4    2
