MODEL 1
REMARK VINA RESULT:      -7.7      0.000      0.000
REMARK SMILES CC(=O)CCc1ccc2c(c1)OCO2
REMARK SMILES IDX 4 1 2 2 1 3 3 4 5 5 6 6 7 7 11 8 8 9 10 10 9 11 12 12 14 13
REMARK SMILES IDX 13 14
REMARK H PARENT
REMARK Flexibility Score: inf
ROOT
ATOM      1  C   UNL     1       5.531   1.928   1.259  1.00  0.00     0.080 C 
ENDROOT
BRANCH   1   2
ATOM      2  C   UNL     1       5.100   0.709   1.999  1.00  0.00     0.130 C 
ATOM      3  C   UNL     1       6.007  -0.456   2.180  1.00  0.00     0.087 C 
ATOM      4  O   UNL     1       3.982   0.631   2.481  1.00  0.00    -0.300 OA
ENDBRANCH   1   2
BRANCH   1   5
ATOM      5  C   UNL     1       5.405   1.735  -0.239  1.00  0.00     0.043 C 
BRANCH   5   6
ATOM      6  C   UNL     1       6.573   1.033  -0.800  1.00  0.00    -0.044 A 
ATOM      7  C   UNL     1       7.880   1.463  -0.545  1.00  0.00     0.008 A 
ATOM      8  C   UNL     1       6.385  -0.076  -1.594  1.00  0.00     0.054 A 
ATOM      9  C   UNL     1       8.937   0.764  -1.098  1.00  0.00     0.051 A 
ATOM     10  C   UNL     1       7.457  -0.780  -2.150  1.00  0.00     0.166 A 
ATOM     11  C   UNL     1       8.744  -0.356  -1.900  1.00  0.00     0.165 A 
ATOM     12  O   UNL     1       7.531  -1.893  -2.960  1.00  0.00    -0.454 OA
ATOM     13  O   UNL     1       9.590  -1.228  -2.568  1.00  0.00    -0.454 OA
ATOM     14  C   UNL     1       8.867  -2.271  -3.178  1.00  0.00     0.468 C 
ENDBRANCH   5   6
ENDBRANCH   1   5
TORSDOF 3
ENDMDL
MODEL 2
REMARK VINA RESULT:      -7.3      1.819      2.237
REMARK SMILES CC(=O)CCc1ccc2c(c1)OCO2
REMARK SMILES IDX 4 1 2 2 1 3 3 4 5 5 6 6 7 7 11 8 8 9 10 10 9 11 12 12 14 13
REMARK SMILES IDX 13 14
REMARK H PARENT
REMARK Flexibility Score: inf
ROOT
ATOM      1  C   UNL     1       5.530   1.417  -0.119  1.00  0.00     0.080 C 
ENDROOT
BRANCH   1   2
ATOM      2  C   UNL     1       4.990   1.199   1.252  1.00  0.00     0.130 C 
ATOM      3  C   UNL     1       5.473   0.087   2.114  1.00  0.00     0.087 C 
ATOM      4  O   UNL     1       4.128   1.932   1.710  1.00  0.00    -0.300 OA
ENDBRANCH   1   2
BRANCH   1   5
ATOM      5  C   UNL     1       7.034   1.237  -0.153  1.00  0.00     0.043 C 
BRANCH   5   6
ATOM      6  C   UNL     1       7.419  -0.031  -0.797  1.00  0.00    -0.044 A 
ATOM      7  C   UNL     1       7.383  -0.188  -2.188  1.00  0.00     0.008 A 
ATOM      8  C   UNL     1       7.827  -1.094  -0.023  1.00  0.00     0.054 A 
ATOM      9  C   UNL     1       7.757  -1.401  -2.736  1.00  0.00     0.051 A 
ATOM     10  C   UNL     1       8.204  -2.318  -0.583  1.00  0.00     0.166 A 
ATOM     11  C   UNL     1       8.168  -2.473  -1.950  1.00  0.00     0.165 A 
ATOM     12  O   UNL     1       8.638  -3.507  -0.036  1.00  0.00    -0.454 OA
ATOM     13  O   UNL     1       8.587  -3.767  -2.218  1.00  0.00    -0.454 OA
ATOM     14  C   UNL     1       8.982  -4.428  -1.040  1.00  0.00     0.468 C 
ENDBRANCH   5   6
ENDBRANCH   1   5
TORSDOF 3
ENDMDL
MODEL 3
REMARK VINA RESULT:      -7.3      2.051      2.616
REMARK SMILES CC(=O)CCc1ccc2c(c1)OCO2
REMARK SMILES IDX 4 1 2 2 1 3 3 4 5 5 6 6 7 7 11 8 8 9 10 10 9 11 12 12 14 13
REMARK SMILES IDX 13 14
REMARK H PARENT
REMARK Flexibility Score: inf
ROOT
ATOM      1  C   UNL     1       5.442  -0.023   2.030  1.00  0.00     0.080 C 
ENDROOT
BRANCH   1   2
ATOM      2  C   UNL     1       4.562   1.149   1.768  1.00  0.00     0.130 C 
ATOM      3  C   UNL     1       4.875   2.138   0.702  1.00  0.00     0.087 C 
ATOM      4  O   UNL     1       3.551   1.334   2.427  1.00  0.00    -0.300 OA
ENDBRANCH   1   2
BRANCH   1   5
ATOM      5  C   UNL     1       6.865   0.245   1.579  1.00  0.00     0.043 C 
BRANCH   5   6
ATOM      6  C   UNL     1       7.288  -0.690   0.522  1.00  0.00    -0.044 A 
ATOM      7  C   UNL     1       7.170  -0.364  -0.835  1.00  0.00     0.008 A 
ATOM      8  C   UNL     1       7.815  -1.915   0.864  1.00  0.00     0.054 A 
ATOM      9  C   UNL     1       7.585  -1.281  -1.783  1.00  0.00     0.051 A 
ATOM     10  C   UNL     1       8.233  -2.838  -0.099  1.00  0.00     0.166 A 
ATOM     11  C   UNL     1       8.116  -2.518  -1.434  1.00  0.00     0.165 A 
ATOM     12  O   UNL     1       8.780  -4.101  -0.015  1.00  0.00    -0.454 OA
ATOM     13  O   UNL     1       8.600  -3.603  -2.149  1.00  0.00    -0.454 OA
ATOM     14  C   UNL     1       9.115  -4.591  -1.288  1.00  0.00     0.468 C 
ENDBRANCH   5   6
ENDBRANCH   1   5
TORSDOF 3
ENDMDL
MODEL 4
REMARK VINA RESULT:      -7.1      1.254      1.473
REMARK SMILES CC(=O)CCc1ccc2c(c1)OCO2
REMARK SMILES IDX 4 1 2 2 1 3 3 4 5 5 6 6 7 7 11 8 8 9 10 10 9 11 12 12 14 13
REMARK SMILES IDX 13 14
REMARK H PARENT
REMARK Flexibility Score: inf
ROOT
ATOM      1  C   UNL     1       6.374   1.202   0.910  1.00  0.00     0.080 C 
ENDROOT
BRANCH   1   2
ATOM      2  C   UNL     1       5.660   0.390   1.934  1.00  0.00     0.130 C 
ATOM      3  C   UNL     1       6.265  -0.837   2.518  1.00  0.00     0.087 C 
ATOM      4  O   UNL     1       4.549   0.711   2.326  1.00  0.00    -0.300 OA
ENDBRANCH   1   2
BRANCH   1   5
ATOM      5  C   UNL     1       5.859   0.905  -0.485  1.00  0.00     0.043 C 
BRANCH   5   6
ATOM      6  C   UNL     1       6.812   0.086  -1.255  1.00  0.00    -0.044 A 
ATOM      7  C   UNL     1       7.499   0.604  -2.359  1.00  0.00     0.008 A 
ATOM      8  C   UNL     1       7.041  -1.220  -0.888  1.00  0.00     0.054 A 
ATOM      9  C   UNL     1       8.381  -0.211  -3.043  1.00  0.00     0.051 A 
ATOM     10  C   UNL     1       7.934  -2.041  -1.583  1.00  0.00     0.166 A 
ATOM     11  C   UNL     1       8.610  -1.532  -2.670  1.00  0.00     0.165 A 
ATOM     12  O   UNL     1       8.329  -3.352  -1.419  1.00  0.00    -0.454 OA
ATOM     13  O   UNL     1       9.414  -2.552  -3.155  1.00  0.00    -0.454 OA
ATOM     14  C   UNL     1       9.335  -3.694  -2.337  1.00  0.00     0.468 C 
ENDBRANCH   5   6
ENDBRANCH   1   5
TORSDOF 3
ENDMDL
MODEL 5
REMARK VINA RESULT:      -7.0      1.960      2.537
REMARK SMILES CC(=O)CCc1ccc2c(c1)OCO2
REMARK SMILES IDX 4 1 2 2 1 3 3 4 5 5 6 6 7 7 11 8 8 9 10 10 9 11 12 12 14 13
REMARK SMILES IDX 13 14
REMARK H PARENT
REMARK Flexibility Score: inf
ROOT
ATOM      1  C   UNL     1       6.944   0.927   1.176  1.00  0.00     0.080 C 
ENDROOT
BRANCH   1   2
ATOM      2  C   UNL     1       5.497   1.123   1.469  1.00  0.00     0.130 C 
ATOM      3  C   UNL     1       4.687   2.147   0.756  1.00  0.00     0.087 C 
ATOM      4  O   UNL     1       4.931   0.443   2.310  1.00  0.00    -0.300 OA
ENDBRANCH   1   2
BRANCH   1   5
ATOM      5  C   UNL     1       7.226   1.044  -0.309  1.00  0.00     0.043 C 
BRANCH   5   6
ATOM      6  C   UNL     1       7.588  -0.256  -0.901  1.00  0.00    -0.044 A 
ATOM      7  C   UNL     1       7.625  -0.446  -2.287  1.00  0.00     0.008 A 
ATOM      8  C   UNL     1       7.902  -1.315  -0.080  1.00  0.00     0.054 A 
ATOM      9  C   UNL     1       7.973  -1.689  -2.785  1.00  0.00     0.051 A 
ATOM     10  C   UNL     1       8.254  -2.569  -0.588  1.00  0.00     0.166 A 
ATOM     11  C   UNL     1       8.289  -2.757  -1.952  1.00  0.00     0.165 A 
ATOM     12  O   UNL     1       8.602  -3.762   0.010  1.00  0.00    -0.454 OA
ATOM     13  O   UNL     1       8.663  -4.075  -2.165  1.00  0.00    -0.454 OA
ATOM     14  C   UNL     1       8.960  -4.722  -0.951  1.00  0.00     0.468 C 
ENDBRANCH   5   6
ENDBRANCH   1   5
TORSDOF 3
ENDMDL
