@<TRIPOS>MOLECULE
/home/cewinharhar/GITHUB/reincatalyze/data/processed/docking_pred/2023-May-31-1438_sub9_nm5_bs15_s42_ex16_mel10_mts1000_k50_ec05_g099_lra9e-4_lrc3e-3/4295960a5818388fac6ce93a10a8a6662c8ec52f_ligand_9.pdbqt
 14 15 0 0 0
SMALL
GASTEIGER

@<TRIPOS>ATOM
      1  C          5.5300    1.4170   -0.1190 C.3     1  UNL1        0.0800
      2  C          4.9900    1.1990    1.2520 C.2     1  UNL1        0.1300
      3  C          5.4730    0.0870    2.1140 C.3     1  UNL1        0.0870
      4  O          4.1280    1.9320    1.7100 O.2     1  UNL1       -0.3000
      5  C          7.0340    1.2370   -0.1530 C.3     1  UNL1        0.0430
      6  C          7.4190   -0.0310   -0.7970 C.2     1  UNL1       -0.0440
      7  C          7.3830   -0.1880   -2.1880 C.2     1  UNL1        0.0080
      8  C          7.8270   -1.0940   -0.0230 C.2     1  UNL1        0.0540
      9  C          7.7570   -1.4010   -2.7360 C.2     1  UNL1        0.0510
     10  C          8.2040   -2.3180   -0.5830 C.2     1  UNL1        0.1660
     11  C          8.1680   -2.4730   -1.9500 C.2     1  UNL1        0.1650
     12  O          8.6380   -3.5070   -0.0360 O.2     1  UNL1       -0.4540
     13  O          8.5870   -3.7670   -2.2180 O.2     1  UNL1       -0.4540
     14  C          8.9820   -4.4280   -1.0400 C.3     1  UNL1        0.4680
@<TRIPOS>BOND
     1     9     7    1
     2     9    11    2
     3    13    11    1
     4    13    14    1
     5     7     6    2
     6    11    10    1
     7    14    12    1
     8     6     5    1
     9     6     8    1
    10    10    12    1
    11    10     8    2
    12     5     1    1
    13     1     2    1
    14     2     4    2
    15     2     3    1
