@<TRIPOS>MOLECULE
/home/cewinharhar/GITHUB/reincatalyze/data/processed/docking_pred/2023-May-31-1438_sub9_nm5_bs15_s42_ex16_mel10_mts1000_k50_ec05_g099_lra9e-4_lrc3e-3/4295960a5818388fac6ce93a10a8a6662c8ec52f_ligand_9.pdbqt
 14 15 0 0 0
SMALL
GASTEIGER

@<TRIPOS>ATOM
      1  C          6.3740    1.2020    0.9100 C.3     1  UNL1        0.0800
      2  C          5.6600    0.3900    1.9340 C.2     1  UNL1        0.1300
      3  C          6.2650   -0.8370    2.5180 C.3     1  UNL1        0.0870
      4  O          4.5490    0.7110    2.3260 O.2     1  UNL1       -0.3000
      5  C          5.8590    0.9050   -0.4850 C.3     1  UNL1        0.0430
      6  C          6.8120    0.0860   -1.2550 C.2     1  UNL1       -0.0440
      7  C          7.4990    0.6040   -2.3590 C.2     1  UNL1        0.0080
      8  C          7.0410   -1.2200   -0.8880 C.2     1  UNL1        0.0540
      9  C          8.3810   -0.2110   -3.0430 C.2     1  UNL1        0.0510
     10  C          7.9340   -2.0410   -1.5830 C.2     1  UNL1        0.1660
     11  C          8.6100   -1.5320   -2.6700 C.2     1  UNL1        0.1650
     12  O          8.3290   -3.3520   -1.4190 O.2     1  UNL1       -0.4540
     13  O          9.4140   -2.5520   -3.1550 O.2     1  UNL1       -0.4540
     14  C          9.3350   -3.6940   -2.3370 C.3     1  UNL1        0.4680
@<TRIPOS>BOND
     1    13    11    1
     2    13    14    1
     3     9    11    2
     4     9     7    1
     5    11    10    1
     6     7     6    2
     7    14    12    1
     8    10    12    1
     9    10     8    2
    10     6     8    1
    11     6     5    1
    12     5     1    1
    13     1     2    1
    14     2     4    2
    15     2     3    1
