@<TRIPOS>MOLECULE
/home/cewinharhar/GITHUB/reincatalyze/data/processed/docking_pred/2023-May-31-1438_sub9_nm5_bs15_s42_ex16_mel10_mts1000_k50_ec05_g099_lra9e-4_lrc3e-3/44bf36be1ccee3462d679cf400989bbed31f99fd_ligand_9.pdbqt
 14 15 0 0 0
SMALL
GASTEIGER

@<TRIPOS>ATOM
      1  C          6.3690    1.2340    0.9210 C.3     1  UNL1        0.0800
      2  C          5.6590    0.4010    1.9320 C.2     1  UNL1        0.1300
      3  C          6.2840   -0.8140    2.5200 C.3     1  UNL1        0.0870
      4  O          4.5360    0.6940    2.3080 O.2     1  UNL1       -0.3000
      5  C          5.8650    0.9480   -0.4800 C.3     1  UNL1        0.0430
      6  C          6.8150    0.1190   -1.2440 C.2     1  UNL1       -0.0440
      7  C          7.5100    0.6280   -2.3460 C.2     1  UNL1        0.0080
      8  C          7.0330   -1.1880   -0.8710 C.2     1  UNL1        0.0540
      9  C          8.3890   -0.1960   -3.0240 C.2     1  UNL1        0.0510
     10  C          7.9240   -2.0170   -1.5590 C.2     1  UNL1        0.1660
     11  C          8.6070   -1.5170   -2.6450 C.2     1  UNL1        0.1650
     12  O          8.3090   -3.3300   -1.3890 O.2     1  UNL1       -0.4540
     13  O          9.4070   -2.5430   -3.1230 O.2     1  UNL1       -0.4540
     14  C          9.3160   -3.6830   -2.3010 C.3     1  UNL1        0.4680
@<TRIPOS>BOND
     1    13    11    1
     2    13    14    1
     3     9    11    2
     4     9     7    1
     5    11    10    1
     6     7     6    2
     7    14    12    1
     8    10    12    1
     9    10     8    2
    10     6     8    1
    11     6     5    1
    12     5     1    1
    13     1     2    1
    14     2     4    2
    15     2     3    1
