@<TRIPOS>MOLECULE
/home/cewinharhar/GITHUB/reincatalyze/data/processed/docking_pred/2023-May-31-1438_sub9_nm5_bs15_s42_ex16_mel10_mts1000_k50_ec05_g099_lra9e-4_lrc3e-3/44bf36be1ccee3462d679cf400989bbed31f99fd_ligand_9.pdbqt
 14 15 0 0 0
SMALL
GASTEIGER

@<TRIPOS>ATOM
      1  C          5.3810   -0.0860    2.0260 C.3     1  UNL1        0.0800
      2  C          4.5400    1.1170    1.7770 C.2     1  UNL1        0.1300
      3  C          4.8920    2.1130    0.7300 C.3     1  UNL1        0.0870
      4  O          3.5300    1.3220    2.4300 O.2     1  UNL1       -0.3000
      5  C          6.8230    0.1590    1.6300 C.3     1  UNL1        0.0430
      6  C          7.2590   -0.7560    0.5600 C.2     1  UNL1       -0.0440
      7  C          7.1300   -0.4180   -0.7920 C.2     1  UNL1        0.0080
      8  C          7.8100   -1.9750    0.8860 C.2     1  UNL1        0.0540
      9  C          7.5580   -1.3160   -1.7530 C.2     1  UNL1        0.0510
     10  C          8.2410   -2.8790   -0.0880 C.2     1  UNL1        0.1660
     11  C          8.1130   -2.5480   -1.4190 C.2     1  UNL1        0.1650
     12  O          8.8120   -4.1330   -0.0210 O.2     1  UNL1       -0.4540
     13  O          8.6140   -3.6150   -2.1480 O.2     1  UNL1       -0.4540
     14  C          9.1510   -4.6020   -1.3000 C.3     1  UNL1        0.4680
@<TRIPOS>BOND
     1    13    11    1
     2    13    14    1
     3     9    11    2
     4     9     7    1
     5    11    10    1
     6    14    12    1
     7     7     6    2
     8    10    12    1
     9    10     8    2
    10     6     8    1
    11     6     5    1
    12     3     2    1
    13     5     1    1
    14     2     1    1
    15     2     4    2
