@<TRIPOS>MOLECULE
/home/cewinharhar/GITHUB/reincatalyze/data/processed/docking_pred/2023-May-31-1438_sub9_nm5_bs15_s42_ex16_mel10_mts1000_k50_ec05_g099_lra9e-4_lrc3e-3/46824fcf52dc560be674bfd6df7e039c48ea1670_ligand_9.pdbqt
 14 15 0 0 0
SMALL
GASTEIGER

@<TRIPOS>ATOM
      1  C          6.6660    0.3070    1.7180 C.3     1  UNL1        0.0800
      2  C          5.3540    0.9920    1.5570 C.2     1  UNL1        0.1300
      3  C          5.1060    1.9550    0.4500 C.3     1  UNL1        0.0870
      4  O          4.4370    0.7820    2.3340 O.2     1  UNL1       -0.3000
      5  C          6.5590   -1.1710    1.3970 C.3     1  UNL1        0.0430
      6  C          7.2820   -1.5150    0.1600 C.2     1  UNL1       -0.0440
      7  C          6.8380   -1.0800   -1.0940 C.2     1  UNL1        0.0080
      8  C          8.4250   -2.2790    0.2280 C.2     1  UNL1        0.0540
      9  C          7.5590   -1.4340   -2.2200 C.2     1  UNL1        0.0510
     10  C          9.1500   -2.6330   -0.9130 C.2     1  UNL1        0.1660
     11  C          8.7130   -2.2070   -2.1480 C.2     1  UNL1        0.1650
     12  O         10.2980   -3.3730   -1.1060 O.2     1  UNL1       -0.4540
     13  O          9.6110   -2.6980   -3.0820 O.2     1  UNL1       -0.4540
     14  C         10.6810   -3.3660   -2.4570 C.3     1  UNL1        0.4680
@<TRIPOS>BOND
     1    13    14    1
     2    13    11    1
     3    14    12    1
     4     9    11    2
     5     9     7    1
     6    11    10    1
     7    12    10    1
     8     7     6    2
     9    10     8    2
    10     6     8    1
    11     6     5    1
    12     3     2    1
    13     5     1    1
    14     2     1    1
    15     2     4    2
