@<TRIPOS>MOLECULE
/home/cewinharhar/GITHUB/reincatalyze/data/processed/docking_pred/2023-May-31-1438_sub9_nm5_bs15_s42_ex16_mel10_mts1000_k50_ec05_g099_lra9e-4_lrc3e-3/46861e00ed193d15618049a480e2ca269f83ce14_ligand_9.pdbqt
 14 15 0 0 0
SMALL
GASTEIGER

@<TRIPOS>ATOM
      1  C          5.7150    1.3410   -0.3320 C.3     1  UNL1        0.0800
      2  C          5.1230    1.2670    1.0330 C.2     1  UNL1        0.1300
      3  C          5.4020    0.1260    1.9440 C.3     1  UNL1        0.0870
      4  O          4.3860    2.1480    1.4450 O.2     1  UNL1       -0.3000
      5  C          7.2130    1.1090   -0.2960 C.3     1  UNL1        0.0430
      6  C          7.5810   -0.1790   -0.9100 C.2     1  UNL1       -0.0440
      7  C          7.6110   -0.3460   -2.3000 C.2     1  UNL1        0.0080
      8  C          7.9070   -1.2490   -0.1090 C.2     1  UNL1        0.0540
      9  C          7.9650   -1.5770   -2.8200 C.2     1  UNL1        0.0510
     10  C          8.2650   -2.4920   -0.6400 C.2     1  UNL1        0.1660
     11  C          8.2940   -2.6570   -2.0070 C.2     1  UNL1        0.1650
     12  O          8.6250   -3.6920   -0.0640 O.2     1  UNL1       -0.4540
     13  O          8.6760   -3.9680   -2.2440 O.2     1  UNL1       -0.4540
     14  C          8.9830   -4.6330   -1.0420 C.3     1  UNL1        0.4680
@<TRIPOS>BOND
     1     9     7    1
     2     9    11    2
     3     7     6    2
     4    13    11    1
     5    13    14    1
     6    11    10    1
     7    14    12    1
     8     6     5    1
     9     6     8    1
    10    10     8    2
    11    10    12    1
    12     1     5    1
    13     1     2    1
    14     2     4    2
    15     2     3    1
