@<TRIPOS>MOLECULE
/home/cewinharhar/GITHUB/reincatalyze/data/processed/docking_pred/2023-May-31-1438_sub9_nm5_bs15_s42_ex16_mel10_mts1000_k50_ec05_g099_lra9e-4_lrc3e-3/46861e00ed193d15618049a480e2ca269f83ce14_ligand_9.pdbqt
 14 15 0 0 0
SMALL
GASTEIGER

@<TRIPOS>ATOM
      1  C          5.5630    0.0450    1.9720 C.3     1  UNL1        0.0800
      2  C          4.6580    1.1790    1.6370 C.2     1  UNL1        0.1300
      3  C          4.9610    2.1170    0.5230 C.3     1  UNL1        0.0870
      4  O          3.6340    1.3730    2.2730 O.2     1  UNL1       -0.3000
      5  C          6.9720    0.3000    1.4760 C.3     1  UNL1        0.0430
      6  C          7.3700   -0.6680    0.4380 C.2     1  UNL1       -0.0440
      7  C          7.2480   -0.3730   -0.9250 C.2     1  UNL1        0.0080
      8  C          7.8770   -1.8930    0.8070 C.2     1  UNL1        0.0540
      9  C          7.6380   -1.3210   -1.8530 C.2     1  UNL1        0.0510
     10  C          8.2710   -2.8470   -0.1360 C.2     1  UNL1        0.1660
     11  C          8.1500   -2.5590   -1.4770 C.2     1  UNL1        0.1650
     12  O          8.7950   -4.1170   -0.0250 O.2     1  UNL1       -0.4540
     13  O          8.6080   -3.6690   -2.1690 O.2     1  UNL1       -0.4540
     14  C          9.1120   -4.6450   -1.2880 C.3     1  UNL1        0.4680
@<TRIPOS>BOND
     1    13    11    1
     2    13    14    1
     3     9    11    2
     4     9     7    1
     5    11    10    1
     6    14    12    1
     7     7     6    2
     8    10    12    1
     9    10     8    2
    10     6     8    1
    11     6     5    1
    12     3     2    1
    13     5     1    1
    14     2     1    1
    15     2     4    2
