@<TRIPOS>MOLECULE
/home/cewinharhar/GITHUB/reincatalyze/data/processed/docking_pred/2023-May-31-1438_sub9_nm5_bs15_s42_ex16_mel10_mts1000_k50_ec05_g099_lra9e-4_lrc3e-3/46861e00ed193d15618049a480e2ca269f83ce14_ligand_9.pdbqt
 14 15 0 0 0
SMALL
GASTEIGER

@<TRIPOS>ATOM
      1  C          6.3520    1.2640    0.8910 C.3     1  UNL1        0.0800
      2  C          5.6850    0.4140    1.9160 C.2     1  UNL1        0.1300
      3  C          6.3540   -0.7830    2.4930 C.3     1  UNL1        0.0870
      4  O          4.5620    0.6760    2.3130 O.2     1  UNL1       -0.3000
      5  C          5.8440    0.9490   -0.5020 C.3     1  UNL1        0.0430
      6  C          6.7960    0.1140   -1.2550 C.2     1  UNL1       -0.0440
      7  C          7.4910    0.6120   -2.3630 C.2     1  UNL1        0.0080
      8  C          7.0170   -1.1880   -0.8670 C.2     1  UNL1        0.0540
      9  C          8.3730   -0.2180   -3.0310 C.2     1  UNL1        0.0510
     10  C          7.9110   -2.0230   -1.5450 C.2     1  UNL1        0.1660
     11  C          8.5940   -1.5330   -2.6360 C.2     1  UNL1        0.1650
     12  O          8.2980   -3.3330   -1.3590 O.2     1  UNL1       -0.4540
     13  O          9.3950   -2.5640   -3.1020 O.2     1  UNL1       -0.4540
     14  C          9.3070   -3.6940   -2.2670 C.3     1  UNL1        0.4680
@<TRIPOS>BOND
     1    13    11    1
     2    13    14    1
     3     9    11    2
     4     9     7    1
     5    11    10    1
     6     7     6    2
     7    14    12    1
     8    10    12    1
     9    10     8    2
    10     6     8    1
    11     6     5    1
    12     5     1    1
    13     1     2    1
    14     2     4    2
    15     2     3    1
