MODEL 1
REMARK VINA RESULT:      -7.6      0.000      0.000
REMARK SMILES CC(=O)CCc1ccc2c(c1)OCO2
REMARK SMILES IDX 4 1 2 2 1 3 3 4 5 5 6 6 7 7 11 8 8 9 10 10 9 11 12 12 14 13
REMARK SMILES IDX 13 14
REMARK H PARENT
REMARK Flexibility Score: inf
ROOT
ATOM      1  C   UNL     1       5.537   1.910   1.252  1.00  0.00     0.080 C 
ENDROOT
BRANCH   1   2
ATOM      2  C   UNL     1       5.092   0.706   2.006  1.00  0.00     0.130 C 
ATOM      3  C   UNL     1       5.981  -0.473   2.190  1.00  0.00     0.087 C 
ATOM      4  O   UNL     1       3.976   0.651   2.498  1.00  0.00    -0.300 OA
ENDBRANCH   1   2
BRANCH   1   5
ATOM      5  C   UNL     1       5.402   1.704  -0.244  1.00  0.00     0.043 C 
BRANCH   5   6
ATOM      6  C   UNL     1       6.572   1.008  -0.808  1.00  0.00    -0.044 A 
ATOM      7  C   UNL     1       7.877   1.450  -0.560  1.00  0.00     0.008 A 
ATOM      8  C   UNL     1       6.389  -0.106  -1.595  1.00  0.00     0.054 A 
ATOM      9  C   UNL     1       8.937   0.756  -1.115  1.00  0.00     0.051 A 
ATOM     10  C   UNL     1       7.464  -0.804  -2.154  1.00  0.00     0.166 A 
ATOM     11  C   UNL     1       8.748  -0.370  -1.912  1.00  0.00     0.165 A 
ATOM     12  O   UNL     1       7.542  -1.921  -2.959  1.00  0.00    -0.454 OA
ATOM     13  O   UNL     1       9.597  -1.238  -2.580  1.00  0.00    -0.454 OA
ATOM     14  C   UNL     1       8.879  -2.289  -3.181  1.00  0.00     0.468 C 
ENDBRANCH   5   6
ENDBRANCH   1   5
TORSDOF 3
ENDMDL
MODEL 2
REMARK VINA RESULT:      -7.4      1.888      2.365
REMARK SMILES CC(=O)CCc1ccc2c(c1)OCO2
REMARK SMILES IDX 4 1 2 2 1 3 3 4 5 5 6 6 7 7 11 8 8 9 10 10 9 11 12 12 14 13
REMARK SMILES IDX 13 14
REMARK H PARENT
REMARK Flexibility Score: inf
ROOT
ATOM      1  C   UNL     1       5.715   1.341  -0.332  1.00  0.00     0.080 C 
ENDROOT
BRANCH   1   2
ATOM      2  C   UNL     1       5.123   1.267   1.033  1.00  0.00     0.130 C 
ATOM      3  C   UNL     1       5.402   0.126   1.944  1.00  0.00     0.087 C 
ATOM      4  O   UNL     1       4.386   2.148   1.445  1.00  0.00    -0.300 OA
ENDBRANCH   1   2
BRANCH   1   5
ATOM      5  C   UNL     1       7.213   1.109  -0.296  1.00  0.00     0.043 C 
BRANCH   5   6
ATOM      6  C   UNL     1       7.581  -0.179  -0.910  1.00  0.00    -0.044 A 
ATOM      7  C   UNL     1       7.611  -0.346  -2.300  1.00  0.00     0.008 A 
ATOM      8  C   UNL     1       7.907  -1.249  -0.109  1.00  0.00     0.054 A 
ATOM      9  C   UNL     1       7.965  -1.577  -2.820  1.00  0.00     0.051 A 
ATOM     10  C   UNL     1       8.265  -2.492  -0.640  1.00  0.00     0.166 A 
ATOM     11  C   UNL     1       8.294  -2.657  -2.007  1.00  0.00     0.165 A 
ATOM     12  O   UNL     1       8.625  -3.692  -0.064  1.00  0.00    -0.454 OA
ATOM     13  O   UNL     1       8.676  -3.968  -2.244  1.00  0.00    -0.454 OA
ATOM     14  C   UNL     1       8.983  -4.633  -1.042  1.00  0.00     0.468 C 
ENDBRANCH   5   6
ENDBRANCH   1   5
TORSDOF 3
ENDMDL
MODEL 3
REMARK VINA RESULT:      -7.2      2.076      2.608
REMARK SMILES CC(=O)CCc1ccc2c(c1)OCO2
REMARK SMILES IDX 4 1 2 2 1 3 3 4 5 5 6 6 7 7 11 8 8 9 10 10 9 11 12 12 14 13
REMARK SMILES IDX 13 14
REMARK H PARENT
REMARK Flexibility Score: inf
ROOT
ATOM      1  C   UNL     1       5.563   0.045   1.972  1.00  0.00     0.080 C 
ENDROOT
BRANCH   1   2
ATOM      2  C   UNL     1       4.658   1.179   1.637  1.00  0.00     0.130 C 
ATOM      3  C   UNL     1       4.961   2.117   0.523  1.00  0.00     0.087 C 
ATOM      4  O   UNL     1       3.634   1.373   2.273  1.00  0.00    -0.300 OA
ENDBRANCH   1   2
BRANCH   1   5
ATOM      5  C   UNL     1       6.972   0.300   1.476  1.00  0.00     0.043 C 
BRANCH   5   6
ATOM      6  C   UNL     1       7.370  -0.668   0.438  1.00  0.00    -0.044 A 
ATOM      7  C   UNL     1       7.248  -0.373  -0.925  1.00  0.00     0.008 A 
ATOM      8  C   UNL     1       7.877  -1.893   0.807  1.00  0.00     0.054 A 
ATOM      9  C   UNL     1       7.638  -1.321  -1.853  1.00  0.00     0.051 A 
ATOM     10  C   UNL     1       8.271  -2.847  -0.136  1.00  0.00     0.166 A 
ATOM     11  C   UNL     1       8.150  -2.559  -1.477  1.00  0.00     0.165 A 
ATOM     12  O   UNL     1       8.795  -4.117  -0.025  1.00  0.00    -0.454 OA
ATOM     13  O   UNL     1       8.608  -3.669  -2.169  1.00  0.00    -0.454 OA
ATOM     14  C   UNL     1       9.112  -4.645  -1.288  1.00  0.00     0.468 C 
ENDBRANCH   5   6
ENDBRANCH   1   5
TORSDOF 3
ENDMDL
MODEL 4
REMARK VINA RESULT:      -7.1      1.253      1.452
REMARK SMILES CC(=O)CCc1ccc2c(c1)OCO2
REMARK SMILES IDX 4 1 2 2 1 3 3 4 5 5 6 6 7 7 11 8 8 9 10 10 9 11 12 12 14 13
REMARK SMILES IDX 13 14
REMARK H PARENT
REMARK Flexibility Score: inf
ROOT
ATOM      1  C   UNL     1       6.352   1.264   0.891  1.00  0.00     0.080 C 
ENDROOT
BRANCH   1   2
ATOM      2  C   UNL     1       5.685   0.414   1.916  1.00  0.00     0.130 C 
ATOM      3  C   UNL     1       6.354  -0.783   2.493  1.00  0.00     0.087 C 
ATOM      4  O   UNL     1       4.562   0.676   2.313  1.00  0.00    -0.300 OA
ENDBRANCH   1   2
BRANCH   1   5
ATOM      5  C   UNL     1       5.844   0.949  -0.502  1.00  0.00     0.043 C 
BRANCH   5   6
ATOM      6  C   UNL     1       6.796   0.114  -1.255  1.00  0.00    -0.044 A 
ATOM      7  C   UNL     1       7.491   0.612  -2.363  1.00  0.00     0.008 A 
ATOM      8  C   UNL     1       7.017  -1.188  -0.867  1.00  0.00     0.054 A 
ATOM      9  C   UNL     1       8.373  -0.218  -3.031  1.00  0.00     0.051 A 
ATOM     10  C   UNL     1       7.911  -2.023  -1.545  1.00  0.00     0.166 A 
ATOM     11  C   UNL     1       8.594  -1.533  -2.636  1.00  0.00     0.165 A 
ATOM     12  O   UNL     1       8.298  -3.333  -1.359  1.00  0.00    -0.454 OA
ATOM     13  O   UNL     1       9.395  -2.564  -3.102  1.00  0.00    -0.454 OA
ATOM     14  C   UNL     1       9.307  -3.694  -2.267  1.00  0.00     0.468 C 
ENDBRANCH   5   6
ENDBRANCH   1   5
TORSDOF 3
ENDMDL
MODEL 5
REMARK VINA RESULT:      -7.0      1.942      2.555
REMARK SMILES CC(=O)CCc1ccc2c(c1)OCO2
REMARK SMILES IDX 4 1 2 2 1 3 3 4 5 5 6 6 7 7 11 8 8 9 10 10 9 11 12 12 14 13
REMARK SMILES IDX 13 14
REMARK H PARENT
REMARK Flexibility Score: inf
ROOT
ATOM      1  C   UNL     1       6.654   1.142   1.244  1.00  0.00     0.080 C 
ENDROOT
BRANCH   1   2
ATOM      2  C   UNL     1       5.264   1.601   0.968  1.00  0.00     0.130 C 
ATOM      3  C   UNL     1       4.872   2.150  -0.357  1.00  0.00     0.087 C 
ATOM      4  O   UNL     1       4.402   1.541   1.830  1.00  0.00    -0.300 OA
ENDBRANCH   1   2
BRANCH   1   5
ATOM      5  C   UNL     1       7.531   1.271   0.014  1.00  0.00     0.043 C 
BRANCH   5   6
ATOM      6  C   UNL     1       7.783  -0.037  -0.617  1.00  0.00    -0.044 A 
ATOM      7  C   UNL     1       7.733  -0.202  -2.006  1.00  0.00     0.008 A 
ATOM      8  C   UNL     1       8.079  -1.127   0.168  1.00  0.00     0.054 A 
ATOM      9  C   UNL     1       7.980  -1.453  -2.542  1.00  0.00     0.051 A 
ATOM     10  C   UNL     1       8.328  -2.390  -0.379  1.00  0.00     0.166 A 
ATOM     11  C   UNL     1       8.278  -2.554  -1.745  1.00  0.00     0.165 A 
ATOM     12  O   UNL     1       8.637  -3.612   0.180  1.00  0.00    -0.454 OA
ATOM     13  O   UNL     1       8.561  -3.886  -1.999  1.00  0.00    -0.454 OA
ATOM     14  C   UNL     1       8.885  -4.573  -0.814  1.00  0.00     0.468 C 
ENDBRANCH   5   6
ENDBRANCH   1   5
TORSDOF 3
ENDMDL
