@<TRIPOS>MOLECULE
/home/cewinharhar/GITHUB/reincatalyze/data/processed/docking_pred/2023-May-31-1438_sub9_nm5_bs15_s42_ex16_mel10_mts1000_k50_ec05_g099_lra9e-4_lrc3e-3/46aa5159a95d0d08c04f597503a56ad94e9ef6ed_ligand_9.pdbqt
 14 15 0 0 0
SMALL
GASTEIGER

@<TRIPOS>ATOM
      1  C          6.8640    0.7510    1.2450 C.3     1  UNL1        0.0800
      2  C          5.4330    1.1060    1.4590 C.2     1  UNL1        0.1300
      3  C          4.7570    2.1500    0.6440 C.3     1  UNL1        0.0870
      4  O          4.7700    0.5450    2.3170 O.2     1  UNL1       -0.3000
      5  C          7.2640    0.9320   -0.2060 C.3     1  UNL1        0.0430
      6  C          7.6390   -0.3480   -0.8330 C.2     1  UNL1       -0.0440
      7  C          7.6960   -0.4940   -2.2240 C.2     1  UNL1        0.0080
      8  C          7.9460   -1.4310   -0.0420 C.2     1  UNL1        0.0540
      9  C          8.0550   -1.7190   -2.7560 C.2     1  UNL1        0.0510
     10  C          8.3090   -2.6680   -0.5850 C.2     1  UNL1        0.1660
     11  C          8.3640   -2.8120   -1.9530 C.2     1  UNL1        0.1650
     12  O          8.6530   -3.8770   -0.0200 O.2     1  UNL1       -0.4540
     13  O          8.7450   -4.1210   -2.2030 O.2     1  UNL1       -0.4540
     14  C          9.0270   -4.8060   -1.0050 C.3     1  UNL1        0.4680
@<TRIPOS>BOND
     1     9     7    1
     2     9    11    2
     3     7     6    2
     4    13    11    1
     5    13    14    1
     6    11    10    1
     7    14    12    1
     8     6     5    1
     9     6     8    1
    10    10     8    2
    11    10    12    1
    12     5     1    1
    13     3     2    1
    14     1     2    1
    15     2     4    2
