@<TRIPOS>MOLECULE
/home/cewinharhar/GITHUB/reincatalyze/data/processed/docking_pred/2023-May-31-1438_sub9_nm5_bs15_s42_ex16_mel10_mts1000_k50_ec05_g099_lra9e-4_lrc3e-3/49b3117837231080fe644fe44c00424f4b8d2b91_ligand_9.pdbqt
 14 15 0 0 0
SMALL
GASTEIGER

@<TRIPOS>ATOM
      1  C          8.3160    0.2100   -2.6730 C.3     1  UNL1        0.0800
      2  C          8.0190   -1.2480   -2.7460 C.2     1  UNL1        0.1300
      3  C          9.0830   -2.2480   -3.0320 C.3     1  UNL1        0.0870
      4  O          6.8860   -1.6670   -2.5730 O.2     1  UNL1       -0.3000
      5  C          8.8380    0.5970   -1.3030 C.3     1  UNL1        0.0430
      6  C          7.8050    0.4490   -0.2630 C.2     1  UNL1       -0.0440
      7  C          7.9120   -0.5160    0.7460 C.2     1  UNL1        0.0080
      8  C          6.7050    1.2760   -0.2710 C.2     1  UNL1        0.0540
      9  C          6.9120   -0.6070    1.6960 C.2     1  UNL1        0.0510
     10  C          5.6960    1.1800    0.6930 C.2     1  UNL1        0.1660
     11  C          5.8010    0.2300    1.6840 C.2     1  UNL1        0.1650
     12  O          4.5220    1.8740    0.8970 O.2     1  UNL1       -0.4540
     13  O          4.6780    0.3620    2.4860 O.2     1  UNL1       -0.4540
     14  C          3.8860    1.4520    2.0760 C.3     1  UNL1        0.4680
@<TRIPOS>BOND
     1     3     2    1
     2     2     1    1
     3     2     4    2
     4     1     5    1
     5     5     6    1
     6     8     6    2
     7     8    10    1
     8     6     7    1
     9    10    12    1
    10    10    11    2
    11     7     9    2
    12    12    14    1
    13    11     9    1
    14    11    13    1
    15    14    13    1
