@<TRIPOS>MOLECULE
/home/cewinharhar/GITHUB/reincatalyze/data/processed/docking_pred/2023-May-31-1438_sub9_nm5_bs15_s42_ex16_mel10_mts1000_k50_ec05_g099_lra9e-4_lrc3e-3/49b3117837231080fe644fe44c00424f4b8d2b91_ligand_9.pdbqt
 14 15 0 0 0
SMALL
GASTEIGER

@<TRIPOS>ATOM
      1  C          6.3870    1.2110    0.9320 C.3     1  UNL1        0.0800
      2  C          5.6670    0.3810    1.9380 C.2     1  UNL1        0.1300
      3  C          6.2790   -0.8410    2.5240 C.3     1  UNL1        0.0870
      4  O          4.5440    0.6820    2.3110 O.2     1  UNL1       -0.3000
      5  C          5.8820    0.9380   -0.4710 C.3     1  UNL1        0.0430
      6  C          6.8270    0.1090   -1.2390 C.2     1  UNL1       -0.0440
      7  C          7.5150    0.6170   -2.3470 C.2     1  UNL1        0.0080
      8  C          7.0490   -1.1980   -0.8660 C.2     1  UNL1        0.0540
      9  C          8.3910   -0.2070   -3.0300 C.2     1  UNL1        0.0510
     10  C          7.9350   -2.0270   -1.5600 C.2     1  UNL1        0.1660
     11  C          8.6120   -1.5280   -2.6500 C.2     1  UNL1        0.1650
     12  O          8.3210   -3.3400   -1.3900 O.2     1  UNL1       -0.4540
     13  O          9.4080   -2.5550   -3.1330 O.2     1  UNL1       -0.4540
     14  C          9.3230   -3.6930   -2.3090 C.3     1  UNL1        0.4680
@<TRIPOS>BOND
     1    13    11    1
     2    13    14    1
     3     9    11    2
     4     9     7    1
     5    11    10    1
     6     7     6    2
     7    14    12    1
     8    10    12    1
     9    10     8    2
    10     6     8    1
    11     6     5    1
    12     5     1    1
    13     1     2    1
    14     2     4    2
    15     2     3    1
