@<TRIPOS>MOLECULE
/home/cewinharhar/GITHUB/reincatalyze/data/processed/docking_pred/2023-May-31-1438_sub9_nm5_bs15_s42_ex16_mel10_mts1000_k50_ec05_g099_lra9e-4_lrc3e-3/49b3117837231080fe644fe44c00424f4b8d2b91_ligand_9.pdbqt
 14 15 0 0 0
SMALL
GASTEIGER

@<TRIPOS>ATOM
      1  C          5.4570   -0.0230    2.0100 C.3     1  UNL1        0.0800
      2  C          4.5820    1.1570    1.7620 C.2     1  UNL1        0.1300
      3  C          4.8900    2.1470    0.6960 C.3     1  UNL1        0.0870
      4  O          3.5790    1.3450    2.4320 O.2     1  UNL1       -0.3000
      5  C          6.8790    0.2420    1.5570 C.3     1  UNL1        0.0430
      6  C          7.2980   -0.6920    0.4970 C.2     1  UNL1       -0.0440
      7  C          7.1730   -0.3670   -0.8590 C.2     1  UNL1        0.0080
      8  C          7.8280   -1.9160    0.8370 C.2     1  UNL1        0.0540
      9  C          7.5840   -1.2840   -1.8090 C.2     1  UNL1        0.0510
     10  C          8.2420   -2.8390   -0.1280 C.2     1  UNL1        0.1660
     11  C          8.1190   -2.5200   -1.4620 C.2     1  UNL1        0.1650
     12  O          8.7910   -4.1010   -0.0470 O.2     1  UNL1       -0.4540
     13  O          8.6000   -3.6040   -2.1800 O.2     1  UNL1       -0.4540
     14  C          9.1200   -4.5910   -1.3210 C.3     1  UNL1        0.4680
@<TRIPOS>BOND
     1    13    11    1
     2    13    14    1
     3     9    11    2
     4     9     7    1
     5    11    10    1
     6    14    12    1
     7     7     6    2
     8    10    12    1
     9    10     8    2
    10     6     8    1
    11     6     5    1
    12     3     2    1
    13     5     1    1
    14     2     1    1
    15     2     4    2
