MODEL 1
REMARK VINA RESULT:      -7.6      0.000      0.000
REMARK SMILES CC(=O)CCc1ccc2c(c1)OCO2
REMARK SMILES IDX 4 1 2 2 1 3 3 4 5 5 6 6 7 7 11 8 8 9 10 10 9 11 12 12 14 13
REMARK SMILES IDX 13 14
REMARK H PARENT
REMARK Flexibility Score: inf
ROOT
ATOM      1  C   UNL     1       5.557   1.916   1.280  1.00  0.00     0.080 C 
ENDROOT
BRANCH   1   2
ATOM      2  C   UNL     1       5.125   0.698   2.020  1.00  0.00     0.130 C 
ATOM      3  C   UNL     1       6.031  -0.468   2.200  1.00  0.00     0.087 C 
ATOM      4  O   UNL     1       4.007   0.621   2.504  1.00  0.00    -0.300 OA
ENDBRANCH   1   2
BRANCH   1   5
ATOM      5  C   UNL     1       5.421   1.727  -0.218  1.00  0.00     0.043 C 
BRANCH   5   6
ATOM      6  C   UNL     1       6.585   1.025  -0.787  1.00  0.00    -0.044 A 
ATOM      7  C   UNL     1       7.894   1.454  -0.540  1.00  0.00     0.008 A 
ATOM      8  C   UNL     1       6.391  -0.083  -1.581  1.00  0.00     0.054 A 
ATOM      9  C   UNL     1       8.947   0.755  -1.101  1.00  0.00     0.051 A 
ATOM     10  C   UNL     1       7.459  -0.787  -2.146  1.00  0.00     0.166 A 
ATOM     11  C   UNL     1       8.747  -0.364  -1.903  1.00  0.00     0.165 A 
ATOM     12  O   UNL     1       7.527  -1.899  -2.957  1.00  0.00    -0.454 OA
ATOM     13  O   UNL     1       9.588  -1.236  -2.577  1.00  0.00    -0.454 OA
ATOM     14  C   UNL     1       8.861  -2.277  -3.184  1.00  0.00     0.468 C 
ENDBRANCH   5   6
ENDBRANCH   1   5
TORSDOF 3
ENDMDL
MODEL 2
REMARK VINA RESULT:      -7.4      1.921      2.370
REMARK SMILES CC(=O)CCc1ccc2c(c1)OCO2
REMARK SMILES IDX 4 1 2 2 1 3 3 4 5 5 6 6 7 7 11 8 8 9 10 10 9 11 12 12 14 13
REMARK SMILES IDX 13 14
REMARK H PARENT
REMARK Flexibility Score: inf
ROOT
ATOM      1  C   UNL     1       5.851   1.467  -0.286  1.00  0.00     0.080 C 
ENDROOT
BRANCH   1   2
ATOM      2  C   UNL     1       5.221   1.272   1.050  1.00  0.00     0.130 C 
ATOM      3  C   UNL     1       5.392   0.009   1.817  1.00  0.00     0.087 C 
ATOM      4  O   UNL     1       4.541   2.150   1.556  1.00  0.00    -0.300 OA
ENDBRANCH   1   2
BRANCH   1   5
ATOM      5  C   UNL     1       7.341   1.194  -0.237  1.00  0.00     0.043 C 
BRANCH   5   6
ATOM      6  C   UNL     1       7.679  -0.107  -0.841  1.00  0.00    -0.044 A 
ATOM      7  C   UNL     1       7.713  -0.284  -2.229  1.00  0.00     0.008 A 
ATOM      8  C   UNL     1       7.974  -1.179  -0.031  1.00  0.00     0.054 A 
ATOM      9  C   UNL     1       8.037  -1.527  -2.739  1.00  0.00     0.051 A 
ATOM     10  C   UNL     1       8.302  -2.435  -0.552  1.00  0.00     0.166 A 
ATOM     11  C   UNL     1       8.334  -2.610  -1.917  1.00  0.00     0.165 A 
ATOM     12  O   UNL     1       8.628  -3.639   0.035  1.00  0.00    -0.454 OA
ATOM     13  O   UNL     1       8.684  -3.932  -2.143  1.00  0.00    -0.454 OA
ATOM     14  C   UNL     1       8.968  -4.596  -0.935  1.00  0.00     0.468 C 
ENDBRANCH   5   6
ENDBRANCH   1   5
TORSDOF 3
ENDMDL
MODEL 3
REMARK VINA RESULT:      -7.2      2.046      2.605
REMARK SMILES CC(=O)CCc1ccc2c(c1)OCO2
REMARK SMILES IDX 4 1 2 2 1 3 3 4 5 5 6 6 7 7 11 8 8 9 10 10 9 11 12 12 14 13
REMARK SMILES IDX 13 14
REMARK H PARENT
REMARK Flexibility Score: inf
ROOT
ATOM      1  C   UNL     1       5.457  -0.023   2.010  1.00  0.00     0.080 C 
ENDROOT
BRANCH   1   2
ATOM      2  C   UNL     1       4.582   1.157   1.762  1.00  0.00     0.130 C 
ATOM      3  C   UNL     1       4.890   2.147   0.696  1.00  0.00     0.087 C 
ATOM      4  O   UNL     1       3.579   1.345   2.432  1.00  0.00    -0.300 OA
ENDBRANCH   1   2
BRANCH   1   5
ATOM      5  C   UNL     1       6.879   0.242   1.557  1.00  0.00     0.043 C 
BRANCH   5   6
ATOM      6  C   UNL     1       7.298  -0.692   0.497  1.00  0.00    -0.044 A 
ATOM      7  C   UNL     1       7.173  -0.367  -0.859  1.00  0.00     0.008 A 
ATOM      8  C   UNL     1       7.828  -1.916   0.837  1.00  0.00     0.054 A 
ATOM      9  C   UNL     1       7.584  -1.284  -1.809  1.00  0.00     0.051 A 
ATOM     10  C   UNL     1       8.242  -2.839  -0.128  1.00  0.00     0.166 A 
ATOM     11  C   UNL     1       8.119  -2.520  -1.462  1.00  0.00     0.165 A 
ATOM     12  O   UNL     1       8.791  -4.101  -0.047  1.00  0.00    -0.454 OA
ATOM     13  O   UNL     1       8.600  -3.604  -2.180  1.00  0.00    -0.454 OA
ATOM     14  C   UNL     1       9.120  -4.591  -1.321  1.00  0.00     0.468 C 
ENDBRANCH   5   6
ENDBRANCH   1   5
TORSDOF 3
ENDMDL
MODEL 4
REMARK VINA RESULT:      -7.1      1.252      1.460
REMARK SMILES CC(=O)CCc1ccc2c(c1)OCO2
REMARK SMILES IDX 4 1 2 2 1 3 3 4 5 5 6 6 7 7 11 8 8 9 10 10 9 11 12 12 14 13
REMARK SMILES IDX 13 14
REMARK H PARENT
REMARK Flexibility Score: inf
ROOT
ATOM      1  C   UNL     1       6.387   1.211   0.932  1.00  0.00     0.080 C 
ENDROOT
BRANCH   1   2
ATOM      2  C   UNL     1       5.667   0.381   1.938  1.00  0.00     0.130 C 
ATOM      3  C   UNL     1       6.279  -0.841   2.524  1.00  0.00     0.087 C 
ATOM      4  O   UNL     1       4.544   0.682   2.311  1.00  0.00    -0.300 OA
ENDBRANCH   1   2
BRANCH   1   5
ATOM      5  C   UNL     1       5.882   0.938  -0.471  1.00  0.00     0.043 C 
BRANCH   5   6
ATOM      6  C   UNL     1       6.827   0.109  -1.239  1.00  0.00    -0.044 A 
ATOM      7  C   UNL     1       7.515   0.617  -2.347  1.00  0.00     0.008 A 
ATOM      8  C   UNL     1       7.049  -1.198  -0.866  1.00  0.00     0.054 A 
ATOM      9  C   UNL     1       8.391  -0.207  -3.030  1.00  0.00     0.051 A 
ATOM     10  C   UNL     1       7.935  -2.027  -1.560  1.00  0.00     0.166 A 
ATOM     11  C   UNL     1       8.612  -1.528  -2.650  1.00  0.00     0.165 A 
ATOM     12  O   UNL     1       8.321  -3.340  -1.390  1.00  0.00    -0.454 OA
ATOM     13  O   UNL     1       9.408  -2.555  -3.133  1.00  0.00    -0.454 OA
ATOM     14  C   UNL     1       9.323  -3.693  -2.309  1.00  0.00     0.468 C 
ENDBRANCH   5   6
ENDBRANCH   1   5
TORSDOF 3
ENDMDL
MODEL 5
REMARK VINA RESULT:      -6.7      1.182      5.162
REMARK SMILES CC(=O)CCc1ccc2c(c1)OCO2
REMARK SMILES IDX 4 1 2 2 1 3 3 4 5 5 6 6 7 7 11 8 8 9 10 10 9 11 12 12 14 13
REMARK SMILES IDX 13 14
REMARK H PARENT
REMARK Flexibility Score: inf
ROOT
ATOM      1  C   UNL     1       8.316   0.210  -2.673  1.00  0.00     0.080 C 
ENDROOT
BRANCH   1   2
ATOM      2  C   UNL     1       8.019  -1.248  -2.746  1.00  0.00     0.130 C 
ATOM      3  C   UNL     1       9.083  -2.248  -3.032  1.00  0.00     0.087 C 
ATOM      4  O   UNL     1       6.886  -1.667  -2.573  1.00  0.00    -0.300 OA
ENDBRANCH   1   2
BRANCH   1   5
ATOM      5  C   UNL     1       8.838   0.597  -1.303  1.00  0.00     0.043 C 
BRANCH   5   6
ATOM      6  C   UNL     1       7.805   0.449  -0.263  1.00  0.00    -0.044 A 
ATOM      7  C   UNL     1       7.912  -0.516   0.746  1.00  0.00     0.008 A 
ATOM      8  C   UNL     1       6.705   1.276  -0.271  1.00  0.00     0.054 A 
ATOM      9  C   UNL     1       6.912  -0.607   1.696  1.00  0.00     0.051 A 
ATOM     10  C   UNL     1       5.696   1.180   0.693  1.00  0.00     0.166 A 
ATOM     11  C   UNL     1       5.801   0.230   1.684  1.00  0.00     0.165 A 
ATOM     12  O   UNL     1       4.522   1.874   0.897  1.00  0.00    -0.454 OA
ATOM     13  O   UNL     1       4.678   0.362   2.486  1.00  0.00    -0.454 OA
ATOM     14  C   UNL     1       3.886   1.452   2.076  1.00  0.00     0.468 C 
ENDBRANCH   5   6
ENDBRANCH   1   5
TORSDOF 3
ENDMDL
