@<TRIPOS>MOLECULE
/home/cewinharhar/GITHUB/reincatalyze/data/processed/docking_pred/2023-May-31-1438_sub9_nm5_bs15_s42_ex16_mel10_mts1000_k50_ec05_g099_lra9e-4_lrc3e-3/49b3117837231080fe644fe44c00424f4b8d2b91_ligand_9.pdbqt
 14 15 0 0 0
SMALL
GASTEIGER

@<TRIPOS>ATOM
      1  C          5.8510    1.4670   -0.2860 C.3     1  UNL1        0.0800
      2  C          5.2210    1.2720    1.0500 C.2     1  UNL1        0.1300
      3  C          5.3920    0.0090    1.8170 C.3     1  UNL1        0.0870
      4  O          4.5410    2.1500    1.5560 O.2     1  UNL1       -0.3000
      5  C          7.3410    1.1940   -0.2370 C.3     1  UNL1        0.0430
      6  C          7.6790   -0.1070   -0.8410 C.2     1  UNL1       -0.0440
      7  C          7.7130   -0.2840   -2.2290 C.2     1  UNL1        0.0080
      8  C          7.9740   -1.1790   -0.0310 C.2     1  UNL1        0.0540
      9  C          8.0370   -1.5270   -2.7390 C.2     1  UNL1        0.0510
     10  C          8.3020   -2.4350   -0.5520 C.2     1  UNL1        0.1660
     11  C          8.3340   -2.6100   -1.9170 C.2     1  UNL1        0.1650
     12  O          8.6280   -3.6390    0.0350 O.2     1  UNL1       -0.4540
     13  O          8.6840   -3.9320   -2.1430 O.2     1  UNL1       -0.4540
     14  C          8.9680   -4.5960   -0.9350 C.3     1  UNL1        0.4680
@<TRIPOS>BOND
     1     9     7    1
     2     9    11    2
     3     7     6    2
     4    13    11    1
     5    13    14    1
     6    11    10    1
     7    14    12    1
     8     6     5    1
     9     6     8    1
    10    10     8    2
    11    10    12    1
    12     1     5    1
    13     1     2    1
    14     2     4    2
    15     2     3    1
