@<TRIPOS>MOLECULE
/home/cewinharhar/GITHUB/reincatalyze/data/processed/docking_pred/2023-May-31-1438_sub9_nm5_bs15_s42_ex16_mel10_mts1000_k50_ec05_g099_lra9e-4_lrc3e-3/4a3a178b6a4326eb13634b12f3ce9c4ec26f8538_ligand_9.pdbqt
 14 15 0 0 0
SMALL
GASTEIGER

@<TRIPOS>ATOM
      1  C          5.4280   -0.0710    1.9930 C.3     1  UNL1        0.0800
      2  C          4.5930    1.1410    1.7660 C.2     1  UNL1        0.1300
      3  C          4.9320    2.1380    0.7160 C.3     1  UNL1        0.0870
      4  O          3.5990    1.3530    2.4430 O.2     1  UNL1       -0.3000
      5  C          6.8690    0.1690    1.5870 C.3     1  UNL1        0.0430
      6  C          7.2980   -0.7570    0.5240 C.2     1  UNL1       -0.0440
      7  C          7.1680   -0.4290   -0.8310 C.2     1  UNL1        0.0080
      8  C          7.8440   -1.9750    0.8590 C.2     1  UNL1        0.0540
      9  C          7.5900   -1.3370   -1.7840 C.2     1  UNL1        0.0510
     10  C          8.2700   -2.8890   -0.1090 C.2     1  UNL1        0.1660
     11  C          8.1410   -2.5680   -1.4420 C.2     1  UNL1        0.1650
     12  O          8.8350   -4.1450   -0.0320 O.2     1  UNL1       -0.4540
     13  O          8.6360   -3.6430   -2.1630 O.2     1  UNL1       -0.4540
     14  C          9.1690   -4.6260   -1.3080 C.3     1  UNL1        0.4680
@<TRIPOS>BOND
     1    13    11    1
     2    13    14    1
     3     9    11    2
     4     9     7    1
     5    11    10    1
     6    14    12    1
     7     7     6    2
     8    10    12    1
     9    10     8    2
    10     6     8    1
    11     6     5    1
    12     3     2    1
    13     5     1    1
    14     2     1    1
    15     2     4    2
