@<TRIPOS>MOLECULE
/home/cewinharhar/GITHUB/reincatalyze/data/processed/docking_pred/2023-May-31-1438_sub9_nm5_bs15_s42_ex16_mel10_mts1000_k50_ec05_g099_lra9e-4_lrc3e-3/4a3a178b6a4326eb13634b12f3ce9c4ec26f8538_ligand_9.pdbqt
 14 15 0 0 0
SMALL
GASTEIGER

@<TRIPOS>ATOM
      1  C          6.9270    0.9820    1.3490 C.3     1  UNL1        0.0800
      2  C          5.4540    1.1800    1.4530 C.2     1  UNL1        0.1300
      3  C          4.7330    2.1480    0.5840 C.3     1  UNL1        0.0870
      4  O          4.7930    0.5490    2.2610 O.2     1  UNL1       -0.3000
      5  C          7.4020    1.1320   -0.0830 C.3     1  UNL1        0.0430
      6  C          7.7120   -0.1720   -0.6950 C.2     1  UNL1       -0.0440
      7  C          7.6800   -0.3570   -2.0820 C.2     1  UNL1        0.0080
      8  C          8.0450   -1.2400    0.1070 C.2     1  UNL1        0.0540
      9  C          7.9810   -1.6040   -2.6000 C.2     1  UNL1        0.0510
     10  C          8.3490   -2.4980   -0.4220 C.2     1  UNL1        0.1660
     11  C          8.3160   -2.6810   -1.7860 C.2     1  UNL1        0.1650
     12  O          8.7040   -3.6990    0.1550 O.2     1  UNL1       -0.4540
     13  O          8.6560   -4.0050   -2.0210 O.2     1  UNL1       -0.4540
     14  C          8.9970   -4.6620   -0.8250 C.3     1  UNL1        0.4680
@<TRIPOS>BOND
     1     9     7    1
     2     9    11    2
     3     7     6    2
     4    13    11    1
     5    13    14    1
     6    11    10    1
     7    14    12    1
     8     6     5    1
     9     6     8    1
    10    10     8    2
    11    10    12    1
    12     5     1    1
    13     3     2    1
    14     1     2    1
    15     2     4    2
