@<TRIPOS>MOLECULE
/home/cewinharhar/GITHUB/reincatalyze/data/processed/docking_pred/2023-May-31-1438_sub9_nm5_bs15_s42_ex16_mel10_mts1000_k50_ec05_g099_lra9e-4_lrc3e-3/4a3a178b6a4326eb13634b12f3ce9c4ec26f8538_ligand_9.pdbqt
 14 15 0 0 0
SMALL
GASTEIGER

@<TRIPOS>ATOM
      1  C          5.6020    1.3640   -0.2000 C.3     1  UNL1        0.0800
      2  C          5.0420    1.2220    1.1730 C.2     1  UNL1        0.1300
      3  C          5.4340    0.0970    2.0640 C.3     1  UNL1        0.0870
      4  O          4.2390    2.0310    1.6090 O.2     1  UNL1       -0.3000
      5  C          7.1060    1.1760   -0.2030 C.3     1  UNL1        0.0430
      6  C          7.4950   -0.1040   -0.8210 C.2     1  UNL1       -0.0440
      7  C          7.5580   -0.2570   -2.2110 C.2     1  UNL1        0.0080
      8  C          7.8080   -1.1810   -0.0230 C.2     1  UNL1        0.0540
      9  C          7.9300   -1.4820   -2.7350 C.2     1  UNL1        0.0510
     10  C          8.1840   -2.4170   -0.5570 C.2     1  UNL1        0.1660
     11  C          8.2450   -2.5690   -1.9250 C.2     1  UNL1        0.1650
     12  O          8.5370   -3.6200    0.0150 O.2     1  UNL1       -0.4540
     13  O          8.6390   -3.8750   -2.1660 O.2     1  UNL1       -0.4540
     14  C          8.9230   -4.5510   -0.9630 C.3     1  UNL1        0.4680
@<TRIPOS>BOND
     1     9     7    1
     2     9    11    2
     3     7     6    2
     4    13    11    1
     5    13    14    1
     6    11    10    1
     7    14    12    1
     8     6     5    1
     9     6     8    1
    10    10     8    2
    11    10    12    1
    12     5     1    1
    13     1     2    1
    14     2     4    2
    15     2     3    1
