MODEL 1
REMARK VINA RESULT:      -7.7      0.000      0.000
REMARK SMILES CC(=O)CCc1ccc2c(c1)OCO2
REMARK SMILES IDX 4 1 2 2 1 3 3 4 5 5 6 6 7 7 11 8 8 9 10 10 9 11 12 12 14 13
REMARK SMILES IDX 13 14
REMARK H PARENT
REMARK Flexibility Score: inf
ROOT
ATOM      1  C   UNL     1       5.526   1.884   1.291  1.00  0.00     0.080 C 
ENDROOT
BRANCH   1   2
ATOM      2  C   UNL     1       5.077   0.662   2.015  1.00  0.00     0.130 C 
ATOM      3  C   UNL     1       5.960  -0.525   2.165  1.00  0.00     0.087 C 
ATOM      4  O   UNL     1       3.962   0.600   2.508  1.00  0.00    -0.300 OA
ENDBRANCH   1   2
BRANCH   1   5
ATOM      5  C   UNL     1       5.399   1.714  -0.209  1.00  0.00     0.043 C 
BRANCH   5   6
ATOM      6  C   UNL     1       6.566   1.020  -0.781  1.00  0.00    -0.044 A 
ATOM      7  C   UNL     1       7.873   1.459  -0.538  1.00  0.00     0.008 A 
ATOM      8  C   UNL     1       6.380  -0.091  -1.573  1.00  0.00     0.054 A 
ATOM      9  C   UNL     1       8.930   0.767  -1.100  1.00  0.00     0.051 A 
ATOM     10  C   UNL     1       7.452  -0.787  -2.139  1.00  0.00     0.166 A 
ATOM     11  C   UNL     1       8.737  -0.354  -1.901  1.00  0.00     0.165 A 
ATOM     12  O   UNL     1       7.526  -1.900  -2.949  1.00  0.00    -0.454 OA
ATOM     13  O   UNL     1       9.583  -1.220  -2.576  1.00  0.00    -0.454 OA
ATOM     14  C   UNL     1       8.862  -2.268  -3.179  1.00  0.00     0.468 C 
ENDBRANCH   5   6
ENDBRANCH   1   5
TORSDOF 3
ENDMDL
MODEL 2
REMARK VINA RESULT:      -7.4      1.875      2.307
REMARK SMILES CC(=O)CCc1ccc2c(c1)OCO2
REMARK SMILES IDX 4 1 2 2 1 3 3 4 5 5 6 6 7 7 11 8 8 9 10 10 9 11 12 12 14 13
REMARK SMILES IDX 13 14
REMARK H PARENT
REMARK Flexibility Score: inf
ROOT
ATOM      1  C   UNL     1       5.602   1.364  -0.200  1.00  0.00     0.080 C 
ENDROOT
BRANCH   1   2
ATOM      2  C   UNL     1       5.042   1.222   1.173  1.00  0.00     0.130 C 
ATOM      3  C   UNL     1       5.434   0.097   2.064  1.00  0.00     0.087 C 
ATOM      4  O   UNL     1       4.239   2.031   1.609  1.00  0.00    -0.300 OA
ENDBRANCH   1   2
BRANCH   1   5
ATOM      5  C   UNL     1       7.106   1.176  -0.203  1.00  0.00     0.043 C 
BRANCH   5   6
ATOM      6  C   UNL     1       7.495  -0.104  -0.821  1.00  0.00    -0.044 A 
ATOM      7  C   UNL     1       7.558  -0.257  -2.211  1.00  0.00     0.008 A 
ATOM      8  C   UNL     1       7.808  -1.181  -0.023  1.00  0.00     0.054 A 
ATOM      9  C   UNL     1       7.930  -1.482  -2.735  1.00  0.00     0.051 A 
ATOM     10  C   UNL     1       8.184  -2.417  -0.557  1.00  0.00     0.166 A 
ATOM     11  C   UNL     1       8.245  -2.569  -1.925  1.00  0.00     0.165 A 
ATOM     12  O   UNL     1       8.537  -3.620   0.015  1.00  0.00    -0.454 OA
ATOM     13  O   UNL     1       8.639  -3.875  -2.166  1.00  0.00    -0.454 OA
ATOM     14  C   UNL     1       8.923  -4.551  -0.963  1.00  0.00     0.468 C 
ENDBRANCH   5   6
ENDBRANCH   1   5
TORSDOF 3
ENDMDL
MODEL 3
REMARK VINA RESULT:      -7.2      2.069      2.638
REMARK SMILES CC(=O)CCc1ccc2c(c1)OCO2
REMARK SMILES IDX 4 1 2 2 1 3 3 4 5 5 6 6 7 7 11 8 8 9 10 10 9 11 12 12 14 13
REMARK SMILES IDX 13 14
REMARK H PARENT
REMARK Flexibility Score: inf
ROOT
ATOM      1  C   UNL     1       5.428  -0.071   1.993  1.00  0.00     0.080 C 
ENDROOT
BRANCH   1   2
ATOM      2  C   UNL     1       4.593   1.141   1.766  1.00  0.00     0.130 C 
ATOM      3  C   UNL     1       4.932   2.138   0.716  1.00  0.00     0.087 C 
ATOM      4  O   UNL     1       3.599   1.353   2.443  1.00  0.00    -0.300 OA
ENDBRANCH   1   2
BRANCH   1   5
ATOM      5  C   UNL     1       6.869   0.169   1.587  1.00  0.00     0.043 C 
BRANCH   5   6
ATOM      6  C   UNL     1       7.298  -0.757   0.524  1.00  0.00    -0.044 A 
ATOM      7  C   UNL     1       7.168  -0.429  -0.831  1.00  0.00     0.008 A 
ATOM      8  C   UNL     1       7.844  -1.975   0.859  1.00  0.00     0.054 A 
ATOM      9  C   UNL     1       7.590  -1.337  -1.784  1.00  0.00     0.051 A 
ATOM     10  C   UNL     1       8.270  -2.889  -0.109  1.00  0.00     0.166 A 
ATOM     11  C   UNL     1       8.141  -2.568  -1.442  1.00  0.00     0.165 A 
ATOM     12  O   UNL     1       8.835  -4.145  -0.032  1.00  0.00    -0.454 OA
ATOM     13  O   UNL     1       8.636  -3.643  -2.163  1.00  0.00    -0.454 OA
ATOM     14  C   UNL     1       9.169  -4.626  -1.308  1.00  0.00     0.468 C 
ENDBRANCH   5   6
ENDBRANCH   1   5
TORSDOF 3
ENDMDL
MODEL 4
REMARK VINA RESULT:      -7.1      1.249      1.442
REMARK SMILES CC(=O)CCc1ccc2c(c1)OCO2
REMARK SMILES IDX 4 1 2 2 1 3 3 4 5 5 6 6 7 7 11 8 8 9 10 10 9 11 12 12 14 13
REMARK SMILES IDX 13 14
REMARK H PARENT
REMARK Flexibility Score: inf
ROOT
ATOM      1  C   UNL     1       6.331   1.222   0.966  1.00  0.00     0.080 C 
ENDROOT
BRANCH   1   2
ATOM      2  C   UNL     1       5.655   0.358   1.974  1.00  0.00     0.130 C 
ATOM      3  C   UNL     1       6.309  -0.859   2.525  1.00  0.00     0.087 C 
ATOM      4  O   UNL     1       4.536   0.627   2.380  1.00  0.00    -0.300 OA
ENDBRANCH   1   2
BRANCH   1   5
ATOM      5  C   UNL     1       5.814   0.944  -0.431  1.00  0.00     0.043 C 
BRANCH   5   6
ATOM      6  C   UNL     1       6.761   0.126  -1.211  1.00  0.00    -0.044 A 
ATOM      7  C   UNL     1       7.424   0.641  -2.331  1.00  0.00     0.008 A 
ATOM      8  C   UNL     1       7.007  -1.175  -0.837  1.00  0.00     0.054 A 
ATOM      9  C   UNL     1       8.302  -0.172  -3.024  1.00  0.00     0.051 A 
ATOM     10  C   UNL     1       7.896  -1.993  -1.541  1.00  0.00     0.166 A 
ATOM     11  C   UNL     1       8.549  -1.488  -2.643  1.00  0.00     0.165 A 
ATOM     12  O   UNL     1       8.305  -3.299  -1.373  1.00  0.00    -0.454 OA
ATOM     13  O   UNL     1       9.354  -2.504  -3.134  1.00  0.00    -0.454 OA
ATOM     14  C   UNL     1       9.298  -3.641  -2.305  1.00  0.00     0.468 C 
ENDBRANCH   5   6
ENDBRANCH   1   5
TORSDOF 3
ENDMDL
MODEL 5
REMARK VINA RESULT:      -7.0      2.004      2.545
REMARK SMILES CC(=O)CCc1ccc2c(c1)OCO2
REMARK SMILES IDX 4 1 2 2 1 3 3 4 5 5 6 6 7 7 11 8 8 9 10 10 9 11 12 12 14 13
REMARK SMILES IDX 13 14
REMARK H PARENT
REMARK Flexibility Score: inf
ROOT
ATOM      1  C   UNL     1       6.927   0.982   1.349  1.00  0.00     0.080 C 
ENDROOT
BRANCH   1   2
ATOM      2  C   UNL     1       5.454   1.180   1.453  1.00  0.00     0.130 C 
ATOM      3  C   UNL     1       4.733   2.148   0.584  1.00  0.00     0.087 C 
ATOM      4  O   UNL     1       4.793   0.549   2.261  1.00  0.00    -0.300 OA
ENDBRANCH   1   2
BRANCH   1   5
ATOM      5  C   UNL     1       7.402   1.132  -0.083  1.00  0.00     0.043 C 
BRANCH   5   6
ATOM      6  C   UNL     1       7.712  -0.172  -0.695  1.00  0.00    -0.044 A 
ATOM      7  C   UNL     1       7.680  -0.357  -2.082  1.00  0.00     0.008 A 
ATOM      8  C   UNL     1       8.045  -1.240   0.107  1.00  0.00     0.054 A 
ATOM      9  C   UNL     1       7.981  -1.604  -2.600  1.00  0.00     0.051 A 
ATOM     10  C   UNL     1       8.349  -2.498  -0.422  1.00  0.00     0.166 A 
ATOM     11  C   UNL     1       8.316  -2.681  -1.786  1.00  0.00     0.165 A 
ATOM     12  O   UNL     1       8.704  -3.699   0.155  1.00  0.00    -0.454 OA
ATOM     13  O   UNL     1       8.656  -4.005  -2.021  1.00  0.00    -0.454 OA
ATOM     14  C   UNL     1       8.997  -4.662  -0.825  1.00  0.00     0.468 C 
ENDBRANCH   5   6
ENDBRANCH   1   5
TORSDOF 3
ENDMDL
