@<TRIPOS>MOLECULE
/home/cewinharhar/GITHUB/reincatalyze/data/processed/docking_pred/2023-May-31-1438_sub9_nm5_bs15_s42_ex16_mel10_mts1000_k50_ec05_g099_lra9e-4_lrc3e-3/4c3a486d5bbb1ad3c8ce5b6da142191fd088767a_ligand_9.pdbqt
 14 15 0 0 0
SMALL
GASTEIGER

@<TRIPOS>ATOM
      1  C          7.3830   -2.7610    1.8780 C.3     1  UNL1        0.0800
      2  C          7.0160   -1.3170    1.8830 C.2     1  UNL1        0.1300
      3  C          5.5970   -0.8720    1.9040 C.3     1  UNL1        0.0870
      4  O          7.8770   -0.4520    1.8690 O.2     1  UNL1       -0.3000
      5  C          8.7020   -2.9910    1.1660 C.3     1  UNL1        0.0430
      6  C          8.7050   -4.2610    0.4180 C.2     1  UNL1       -0.0440
      7  C          9.1230   -4.3240   -0.9160 C.2     1  UNL1        0.0080
      8  C          8.2900   -5.4180    1.0370 C.2     1  UNL1        0.0540
      9  C          9.1050   -5.5440   -1.5670 C.2     1  UNL1        0.0510
     10  C          8.2740   -6.6490    0.3740 C.2     1  UNL1        0.1660
     11  C          8.6850   -6.7120   -0.9390 C.2     1  UNL1        0.1650
     12  O          7.9120   -7.9210    0.7630 O.2     1  UNL1       -0.4540
     13  O          8.5660   -8.0360   -1.3320 O.2     1  UNL1       -0.4540
     14  C          8.1650   -8.8520   -0.2570 C.3     1  UNL1        0.4680
@<TRIPOS>BOND
     1     9    11    2
     2     9     7    1
     3    13    11    1
     4    13    14    1
     5    11    10    1
     6     7     6    2
     7    14    12    1
     8    10    12    1
     9    10     8    2
    10     6     8    1
    11     6     5    1
    12     5     1    1
    13     4     2    2
    14     1     2    1
    15     2     3    1
