@<TRIPOS>MOLECULE
/home/cewinharhar/GITHUB/reincatalyze/data/processed/docking_pred/2023-May-31-1438_sub9_nm5_bs15_s42_ex16_mel10_mts1000_k50_ec05_g099_lra9e-4_lrc3e-3/4c3a486d5bbb1ad3c8ce5b6da142191fd088767a_ligand_9.pdbqt
 14 15 0 0 0
SMALL
GASTEIGER

@<TRIPOS>ATOM
      1  C          8.6250   -5.0840   -0.3150 C.3     1  UNL1        0.0800
      2  C          9.4270   -4.8480   -1.5480 C.2     1  UNL1        0.1300
      3  C         10.3260   -5.8930   -2.1070 C.3     1  UNL1        0.0870
      4  O          9.3690   -3.7810   -2.1370 O.2     1  UNL1       -0.3000
      5  C          9.2880   -4.4670    0.9000 C.3     1  UNL1        0.0430
      6  C          8.7430   -3.1310    1.2010 C.2     1  UNL1       -0.0440
      7  C          9.5530   -1.9900    1.1930 C.2     1  UNL1        0.0080
      8  C          7.4060   -2.9910    1.4960 C.2     1  UNL1        0.0540
      9  C          8.9860   -0.7630    1.4820 C.2     1  UNL1        0.0510
     10  C          6.8370   -1.7470    1.7870 C.2     1  UNL1        0.1660
     11  C          7.6340   -0.6240    1.7810 C.2     1  UNL1        0.1650
     12  O          5.5560   -1.3520    2.1070 O.2     1  UNL1       -0.4540
     13  O          6.8160    0.4490    2.0990 O.2     1  UNL1       -0.4540
     14  C          5.4740    0.0450    2.2250 C.3     1  UNL1        0.4680
@<TRIPOS>BOND
     1     4     2    2
     2     3     2    1
     3     2     1    1
     4     1     5    1
     5     5     6    1
     6     7     6    2
     7     7     9    1
     8     6     8    1
     9     9    11    2
    10     8    10    2
    11    11    10    1
    12    11    13    1
    13    10    12    1
    14    13    14    1
    15    12    14    1
