@<TRIPOS>MOLECULE
/home/cewinharhar/GITHUB/reincatalyze/data/processed/docking_pred/2023-May-31-1438_sub9_nm5_bs15_s42_ex16_mel10_mts1000_k50_ec05_g099_lra9e-4_lrc3e-3/4c3a486d5bbb1ad3c8ce5b6da142191fd088767a_ligand_9.pdbqt
 14 15 0 0 0
SMALL
GASTEIGER

@<TRIPOS>ATOM
      1  C          5.2110    0.1760    1.7260 C.3     1  UNL1        0.0800
      2  C          5.6850    1.4320    1.0810 C.2     1  UNL1        0.1300
      3  C          5.1850    1.8620   -0.2530 C.3     1  UNL1        0.0870
      4  O          6.5040    2.1500    1.6320 O.2     1  UNL1       -0.3000
      5  C          6.2140   -0.3320    2.7440 C.3     1  UNL1        0.0430
      6  C          7.1830   -1.2620    2.1390 C.2     1  UNL1       -0.0440
      7  C          8.4690   -0.8460    1.7740 C.2     1  UNL1        0.0080
      8  C          6.8280   -2.5740    1.9250 C.2     1  UNL1        0.0540
      9  C          9.3370   -1.7640    1.2110 C.2     1  UNL1        0.0510
     10  C          7.7090   -3.4990    1.3560 C.2     1  UNL1        0.1660
     11  C          8.9740   -3.0900    0.9950 C.2     1  UNL1        0.1650
     12  O          7.5960   -4.8370    1.0450 O.2     1  UNL1       -0.4540
     13  O          9.6180   -4.1970    0.4660 O.2     1  UNL1       -0.4540
     14  C          8.8120   -5.3470    0.5620 C.3     1  UNL1        0.4680
@<TRIPOS>BOND
     1     3     2    1
     2    13    14    1
     3    13    11    1
     4    14    12    1
     5    11     9    2
     6    11    10    1
     7    12    10    1
     8     2     4    2
     9     2     1    1
    10     9     7    1
    11    10     8    2
    12     1     5    1
    13     7     6    2
    14     8     6    1
    15     6     5    1
