@<TRIPOS>MOLECULE
/home/cewinharhar/GITHUB/reincatalyze/data/processed/docking_pred/2023-May-31-1438_sub9_nm5_bs15_s42_ex16_mel10_mts1000_k50_ec05_g099_lra9e-4_lrc3e-3/4c41b041102a8d5d821093d1e21668bd2b50a839_ligand_9.pdbqt
 14 15 0 0 0
SMALL
GASTEIGER

@<TRIPOS>ATOM
      1  C          5.7360    1.2790   -0.3190 C.3     1  UNL1        0.0800
      2  C          5.1300    1.2350    1.0410 C.2     1  UNL1        0.1300
      3  C          5.3490    0.0840    1.9560 C.3     1  UNL1        0.0870
      4  O          4.4300    2.1500    1.4450 O.2     1  UNL1       -0.3000
      5  C          7.2320    1.0420   -0.2630 C.3     1  UNL1        0.0430
      6  C          7.6030   -0.2500   -0.8670 C.2     1  UNL1       -0.0440
      7  C          7.6420   -0.4270   -2.2540 C.2     1  UNL1        0.0080
      8  C          7.9230   -1.3150   -0.0550 C.2     1  UNL1        0.0540
      9  C          7.9990   -1.6630   -2.7640 C.2     1  UNL1        0.0510
     10  C          8.2840   -2.5620   -0.5750 C.2     1  UNL1        0.1660
     11  C          8.3210   -2.7370   -1.9400 C.2     1  UNL1        0.1650
     12  O          8.6390   -3.7580    0.0120 O.2     1  UNL1       -0.4540
     13  O          8.7040   -4.0500   -2.1660 O.2     1  UNL1       -0.4540
     14  C          9.0040   -4.7070   -0.9570 C.3     1  UNL1        0.4680
@<TRIPOS>BOND
     1     9     7    1
     2     9    11    2
     3     7     6    2
     4    13    11    1
     5    13    14    1
     6    11    10    1
     7    14    12    1
     8     6     5    1
     9     6     8    1
    10    10     8    2
    11    10    12    1
    12     1     5    1
    13     1     2    1
    14     2     4    2
    15     2     3    1
