@<TRIPOS>MOLECULE
/home/cewinharhar/GITHUB/reincatalyze/data/processed/docking_pred/2023-May-31-1438_sub9_nm5_bs15_s42_ex16_mel10_mts1000_k50_ec05_g099_lra9e-4_lrc3e-3/4c41b041102a8d5d821093d1e21668bd2b50a839_ligand_9.pdbqt
 14 15 0 0 0
SMALL
GASTEIGER

@<TRIPOS>ATOM
      1  C          6.3840    1.1710    0.9250 C.3     1  UNL1        0.0800
      2  C          5.6700    0.3420    1.9360 C.2     1  UNL1        0.1300
      3  C          6.2690   -0.9010    2.4910 C.3     1  UNL1        0.0870
      4  O          4.5640    0.6630    2.3400 O.2     1  UNL1       -0.3000
      5  C          5.8740    0.8910   -0.4750 C.3     1  UNL1        0.0430
      6  C          6.8230    0.0710   -1.2490 C.2     1  UNL1       -0.0440
      7  C          7.5060    0.5880   -2.3560 C.2     1  UNL1        0.0080
      8  C          7.0530   -1.2350   -0.8810 C.2     1  UNL1        0.0540
      9  C          8.3850   -0.2290   -3.0430 C.2     1  UNL1        0.0510
     10  C          7.9440   -2.0570   -1.5790 C.2     1  UNL1        0.1660
     11  C          8.6150   -1.5500   -2.6690 C.2     1  UNL1        0.1650
     12  O          8.3380   -3.3680   -1.4150 O.2     1  UNL1       -0.4540
     13  O          9.4170   -2.5700   -3.1560 O.2     1  UNL1       -0.4540
     14  C          9.3410   -3.7120   -2.3360 C.3     1  UNL1        0.4680
@<TRIPOS>BOND
     1    13    11    1
     2    13    14    1
     3     9    11    2
     4     9     7    1
     5    11    10    1
     6     7     6    2
     7    14    12    1
     8    10    12    1
     9    10     8    2
    10     6     8    1
    11     6     5    1
    12     5     1    1
    13     1     2    1
    14     2     4    2
    15     2     3    1
