@<TRIPOS>MOLECULE
/home/cewinharhar/GITHUB/reincatalyze/data/processed/docking_pred/2023-May-31-1438_sub9_nm5_bs15_s42_ex16_mel10_mts1000_k50_ec05_g099_lra9e-4_lrc3e-3/4c41b041102a8d5d821093d1e21668bd2b50a839_ligand_9.pdbqt
 14 15 0 0 0
SMALL
GASTEIGER

@<TRIPOS>ATOM
      1  C          5.5490    0.0230    1.9910 C.3     1  UNL1        0.0800
      2  C          4.6540    1.1650    1.6560 C.2     1  UNL1        0.1300
      3  C          4.9640    2.0980    0.5390 C.3     1  UNL1        0.0870
      4  O          3.6340    1.3700    2.2930 O.2     1  UNL1       -0.3000
      5  C          6.9650    0.2730    1.5120 C.3     1  UNL1        0.0430
      6  C          7.3660   -0.6840    0.4660 C.2     1  UNL1       -0.0440
      7  C          7.2450   -0.3770   -0.8950 C.2     1  UNL1        0.0080
      8  C          7.8740   -1.9120    0.8230 C.2     1  UNL1        0.0540
      9  C          7.6380   -1.3150   -1.8320 C.2     1  UNL1        0.0510
     10  C          8.2700   -2.8570   -0.1290 C.2     1  UNL1        0.1660
     11  C          8.1500   -2.5560   -1.4670 C.2     1  UNL1        0.1650
     12  O          8.7960   -4.1280   -0.0290 O.2     1  UNL1       -0.4540
     13  O          8.6110   -3.6580   -2.1690 O.2     1  UNL1       -0.4540
     14  C          9.1140   -4.6420   -1.2970 C.3     1  UNL1        0.4680
@<TRIPOS>BOND
     1    13    11    1
     2    13    14    1
     3     9    11    2
     4     9     7    1
     5    11    10    1
     6    14    12    1
     7     7     6    2
     8    10    12    1
     9    10     8    2
    10     6     8    1
    11     6     5    1
    12     3     2    1
    13     5     1    1
    14     2     1    1
    15     2     4    2
