@<TRIPOS>MOLECULE
/home/cewinharhar/GITHUB/reincatalyze/data/processed/docking_pred/2023-May-31-1438_sub9_nm5_bs15_s42_ex16_mel10_mts1000_k50_ec05_g099_lra9e-4_lrc3e-3/4dfe2a4ebf2cd2c58b23ebebd9c83ff91bb12173_ligand_9.pdbqt
 14 15 0 0 0
SMALL
GASTEIGER

@<TRIPOS>ATOM
      1  C          6.3710    1.2110    0.9500 C.3     1  UNL1        0.0800
      2  C          5.6410    0.3660    1.9360 C.2     1  UNL1        0.1300
      3  C          6.2480   -0.8650    2.5100 C.3     1  UNL1        0.0870
      4  O          4.5160    0.6630    2.3040 O.2     1  UNL1       -0.3000
      5  C          5.8730    0.9660   -0.4600 C.3     1  UNL1        0.0430
      6  C          6.8120    0.1360   -1.2360 C.2     1  UNL1       -0.0440
      7  C          7.4980    0.6470   -2.3440 C.2     1  UNL1        0.0080
      8  C          7.0290   -1.1730   -0.8690 C.2     1  UNL1        0.0540
      9  C          8.3680   -0.1790   -3.0330 C.2     1  UNL1        0.0510
     10  C          7.9100   -2.0030   -1.5690 C.2     1  UNL1        0.1660
     11  C          8.5850   -1.5020   -2.6600 C.2     1  UNL1        0.1650
     12  O          8.2910   -3.3180   -1.4060 O.2     1  UNL1       -0.4540
     13  O          9.3750   -2.5300   -3.1490 O.2     1  UNL1       -0.4540
     14  C          9.2880   -3.6720   -2.3300 C.3     1  UNL1        0.4680
@<TRIPOS>BOND
     1    13    11    1
     2    13    14    1
     3     9    11    2
     4     9     7    1
     5    11    10    1
     6     7     6    2
     7    14    12    1
     8    10    12    1
     9    10     8    2
    10     6     8    1
    11     6     5    1
    12     5     1    1
    13     1     2    1
    14     2     4    2
    15     2     3    1
