MODEL 1
REMARK VINA RESULT:      -7.7      0.000      0.000
REMARK SMILES CC(=O)CCc1ccc2c(c1)OCO2
REMARK SMILES IDX 4 1 2 2 1 3 3 4 5 5 6 6 7 7 11 8 8 9 10 10 9 11 12 12 14 13
REMARK SMILES IDX 13 14
REMARK H PARENT
REMARK Flexibility Score: inf
ROOT
ATOM      1  C   UNL     1       5.523   1.918   1.268  1.00  0.00     0.080 C 
ENDROOT
BRANCH   1   2
ATOM      2  C   UNL     1       5.062   0.705   2.000  1.00  0.00     0.130 C 
ATOM      3  C   UNL     1       5.930  -0.493   2.150  1.00  0.00     0.087 C 
ATOM      4  O   UNL     1       3.950   0.660   2.500  1.00  0.00    -0.300 OA
ENDBRANCH   1   2
BRANCH   1   5
ATOM      5  C   UNL     1       5.399   1.737  -0.231  1.00  0.00     0.043 C 
BRANCH   5   6
ATOM      6  C   UNL     1       6.566   1.036  -0.795  1.00  0.00    -0.044 A 
ATOM      7  C   UNL     1       7.873   1.473  -0.549  1.00  0.00     0.008 A 
ATOM      8  C   UNL     1       6.379  -0.078  -1.582  1.00  0.00     0.054 A 
ATOM      9  C   UNL     1       8.930   0.774  -1.104  1.00  0.00     0.051 A 
ATOM     10  C   UNL     1       7.451  -0.781  -2.140  1.00  0.00     0.166 A 
ATOM     11  C   UNL     1       8.737  -0.351  -1.900  1.00  0.00     0.165 A 
ATOM     12  O   UNL     1       7.525  -1.899  -2.944  1.00  0.00    -0.454 OA
ATOM     13  O   UNL     1       9.582  -1.223  -2.567  1.00  0.00    -0.454 OA
ATOM     14  C   UNL     1       8.860  -2.272  -3.167  1.00  0.00     0.468 C 
ENDBRANCH   5   6
ENDBRANCH   1   5
TORSDOF 3
ENDMDL
MODEL 2
REMARK VINA RESULT:      -7.5      1.928      2.403
REMARK SMILES CC(=O)CCc1ccc2c(c1)OCO2
REMARK SMILES IDX 4 1 2 2 1 3 3 4 5 5 6 6 7 7 11 8 8 9 10 10 9 11 12 12 14 13
REMARK SMILES IDX 13 14
REMARK H PARENT
REMARK Flexibility Score: inf
ROOT
ATOM      1  C   UNL     1       5.713   1.248  -0.310  1.00  0.00     0.080 C 
ENDROOT
BRANCH   1   2
ATOM      2  C   UNL     1       5.160   1.226   1.073  1.00  0.00     0.130 C 
ATOM      3  C   UNL     1       5.410   0.086   1.996  1.00  0.00     0.087 C 
ATOM      4  O   UNL     1       4.481   2.149   1.492  1.00  0.00    -0.300 OA
ENDBRANCH   1   2
BRANCH   1   5
ATOM      5  C   UNL     1       7.217   1.062  -0.305  1.00  0.00     0.043 C 
BRANCH   5   6
ATOM      6  C   UNL     1       7.611  -0.226  -0.903  1.00  0.00    -0.044 A 
ATOM      7  C   UNL     1       7.717  -0.389  -2.289  1.00  0.00     0.008 A 
ATOM      8  C   UNL     1       7.884  -1.301  -0.088  1.00  0.00     0.054 A 
ATOM      9  C   UNL     1       8.092  -1.621  -2.793  1.00  0.00     0.051 A 
ATOM     10  C   UNL     1       8.263  -2.545  -0.602  1.00  0.00     0.166 A 
ATOM     11  C   UNL     1       8.367  -2.706  -1.966  1.00  0.00     0.165 A 
ATOM     12  O   UNL     1       8.582  -3.749  -0.011  1.00  0.00    -0.454 OA
ATOM     13  O   UNL     1       8.753  -4.019  -2.186  1.00  0.00    -0.454 OA
ATOM     14  C   UNL     1       8.989  -4.690  -0.971  1.00  0.00     0.468 C 
ENDBRANCH   5   6
ENDBRANCH   1   5
TORSDOF 3
ENDMDL
MODEL 3
REMARK VINA RESULT:      -7.2      2.075      2.615
REMARK SMILES CC(=O)CCc1ccc2c(c1)OCO2
REMARK SMILES IDX 4 1 2 2 1 3 3 4 5 5 6 6 7 7 11 8 8 9 10 10 9 11 12 12 14 13
REMARK SMILES IDX 13 14
REMARK H PARENT
REMARK Flexibility Score: inf
ROOT
ATOM      1  C   UNL     1       5.533   0.010   1.961  1.00  0.00     0.080 C 
ENDROOT
BRANCH   1   2
ATOM      2  C   UNL     1       4.649   1.167   1.648  1.00  0.00     0.130 C 
ATOM      3  C   UNL     1       4.974   2.125   0.557  1.00  0.00     0.087 C 
ATOM      4  O   UNL     1       3.626   1.365   2.283  1.00  0.00    -0.300 OA
ENDBRANCH   1   2
BRANCH   1   5
ATOM      5  C   UNL     1       6.953   0.260   1.495  1.00  0.00     0.043 C 
BRANCH   5   6
ATOM      6  C   UNL     1       7.361  -0.695   0.449  1.00  0.00    -0.044 A 
ATOM      7  C   UNL     1       7.249  -0.384  -0.911  1.00  0.00     0.008 A 
ATOM      8  C   UNL     1       7.869  -1.923   0.806  1.00  0.00     0.054 A 
ATOM      9  C   UNL     1       7.648  -1.319  -1.849  1.00  0.00     0.051 A 
ATOM     10  C   UNL     1       8.272  -2.865  -0.146  1.00  0.00     0.166 A 
ATOM     11  C   UNL     1       8.160  -2.560  -1.484  1.00  0.00     0.165 A 
ATOM     12  O   UNL     1       8.799  -4.135  -0.046  1.00  0.00    -0.454 OA
ATOM     13  O   UNL     1       8.627  -3.661  -2.186  1.00  0.00    -0.454 OA
ATOM     14  C   UNL     1       9.126  -4.646  -1.313  1.00  0.00     0.468 C 
ENDBRANCH   5   6
ENDBRANCH   1   5
TORSDOF 3
ENDMDL
MODEL 4
REMARK VINA RESULT:      -7.1      1.260      1.484
REMARK SMILES CC(=O)CCc1ccc2c(c1)OCO2
REMARK SMILES IDX 4 1 2 2 1 3 3 4 5 5 6 6 7 7 11 8 8 9 10 10 9 11 12 12 14 13
REMARK SMILES IDX 13 14
REMARK H PARENT
REMARK Flexibility Score: inf
ROOT
ATOM      1  C   UNL     1       6.375   1.175   0.913  1.00  0.00     0.080 C 
ENDROOT
BRANCH   1   2
ATOM      2  C   UNL     1       5.652   0.368   1.935  1.00  0.00     0.130 C 
ATOM      3  C   UNL     1       6.242  -0.869   2.514  1.00  0.00     0.087 C 
ATOM      4  O   UNL     1       4.547   0.701   2.329  1.00  0.00    -0.300 OA
ENDBRANCH   1   2
BRANCH   1   5
ATOM      5  C   UNL     1       5.864   0.879  -0.483  1.00  0.00     0.043 C 
BRANCH   5   6
ATOM      6  C   UNL     1       6.821   0.065  -1.254  1.00  0.00    -0.044 A 
ATOM      7  C   UNL     1       7.511   0.588  -2.353  1.00  0.00     0.008 A 
ATOM      8  C   UNL     1       7.049  -1.243  -0.892  1.00  0.00     0.054 A 
ATOM      9  C   UNL     1       8.397  -0.224  -3.038  1.00  0.00     0.051 A 
ATOM     10  C   UNL     1       7.946  -2.060  -1.587  1.00  0.00     0.166 A 
ATOM     11  C   UNL     1       8.625  -1.546  -2.669  1.00  0.00     0.165 A 
ATOM     12  O   UNL     1       8.341  -3.371  -1.428  1.00  0.00    -0.454 OA
ATOM     13  O   UNL     1       9.432  -2.562  -3.156  1.00  0.00    -0.454 OA
ATOM     14  C   UNL     1       9.351  -3.709  -2.344  1.00  0.00     0.468 C 
ENDBRANCH   5   6
ENDBRANCH   1   5
TORSDOF 3
ENDMDL
MODEL 5
REMARK VINA RESULT:      -6.9      1.953      2.489
REMARK SMILES CC(=O)CCc1ccc2c(c1)OCO2
REMARK SMILES IDX 4 1 2 2 1 3 3 4 5 5 6 6 7 7 11 8 8 9 10 10 9 11 12 12 14 13
REMARK SMILES IDX 13 14
REMARK H PARENT
REMARK Flexibility Score: inf
ROOT
ATOM      1  C   UNL     1       6.933   0.943   1.404  1.00  0.00     0.080 C 
ENDROOT
BRANCH   1   2
ATOM      2  C   UNL     1       5.460   1.065   1.594  1.00  0.00     0.130 C 
ATOM      3  C   UNL     1       4.645   2.015   0.790  1.00  0.00     0.087 C 
ATOM      4  O   UNL     1       4.877   0.384   2.422  1.00  0.00    -0.300 OA
ENDBRANCH   1   2
BRANCH   1   5
ATOM      5  C   UNL     1       7.316   1.123  -0.052  1.00  0.00     0.043 C 
BRANCH   5   6
ATOM      6  C   UNL     1       7.620  -0.166  -0.700  1.00  0.00    -0.044 A 
ATOM      7  C   UNL     1       7.549  -0.323  -2.089  1.00  0.00     0.008 A 
ATOM      8  C   UNL     1       7.984  -1.247   0.070  1.00  0.00     0.054 A 
ATOM      9  C   UNL     1       7.846  -1.556  -2.641  1.00  0.00     0.051 A 
ATOM     10  C   UNL     1       8.284  -2.491  -0.493  1.00  0.00     0.166 A 
ATOM     11  C   UNL     1       8.213  -2.647  -1.860  1.00  0.00     0.165 A 
ATOM     12  O   UNL     1       8.664  -3.701   0.048  1.00  0.00    -0.454 OA
ATOM     13  O   UNL     1       8.557  -3.962  -2.132  1.00  0.00    -0.454 OA
ATOM     14  C   UNL     1       8.938  -4.641  -0.959  1.00  0.00     0.468 C 
ENDBRANCH   5   6
ENDBRANCH   1   5
TORSDOF 3
ENDMDL
