@<TRIPOS>MOLECULE
/home/cewinharhar/GITHUB/reincatalyze/data/processed/docking_pred/2023-May-31-1438_sub9_nm5_bs15_s42_ex16_mel10_mts1000_k50_ec05_g099_lra9e-4_lrc3e-3/4e2e003c692afcef440410ba16f5bc8e831af6c9_ligand_9.pdbqt
 14 15 0 0 0
SMALL
GASTEIGER

@<TRIPOS>ATOM
      1  C          5.7130    1.2480   -0.3100 C.3     1  UNL1        0.0800
      2  C          5.1600    1.2260    1.0730 C.2     1  UNL1        0.1300
      3  C          5.4100    0.0860    1.9960 C.3     1  UNL1        0.0870
      4  O          4.4810    2.1490    1.4920 O.2     1  UNL1       -0.3000
      5  C          7.2170    1.0620   -0.3050 C.3     1  UNL1        0.0430
      6  C          7.6110   -0.2260   -0.9030 C.2     1  UNL1       -0.0440
      7  C          7.7170   -0.3890   -2.2890 C.2     1  UNL1        0.0080
      8  C          7.8840   -1.3010   -0.0880 C.2     1  UNL1        0.0540
      9  C          8.0920   -1.6210   -2.7930 C.2     1  UNL1        0.0510
     10  C          8.2630   -2.5450   -0.6020 C.2     1  UNL1        0.1660
     11  C          8.3670   -2.7060   -1.9660 C.2     1  UNL1        0.1650
     12  O          8.5820   -3.7490   -0.0110 O.2     1  UNL1       -0.4540
     13  O          8.7530   -4.0190   -2.1860 O.2     1  UNL1       -0.4540
     14  C          8.9890   -4.6900   -0.9710 C.3     1  UNL1        0.4680
@<TRIPOS>BOND
     1     9     7    1
     2     9    11    2
     3     7     6    2
     4    13    11    1
     5    13    14    1
     6    11    10    1
     7    14    12    1
     8     6     5    1
     9     6     8    1
    10    10     8    2
    11    10    12    1
    12     1     5    1
    13     1     2    1
    14     2     4    2
    15     2     3    1
