@<TRIPOS>MOLECULE
/home/cewinharhar/GITHUB/reincatalyze/data/processed/docking_pred/2023-May-31-1438_sub9_nm5_bs15_s42_ex16_mel10_mts1000_k50_ec05_g099_lra9e-4_lrc3e-3/4e2e003c692afcef440410ba16f5bc8e831af6c9_ligand_9.pdbqt
 14 15 0 0 0
SMALL
GASTEIGER

@<TRIPOS>ATOM
      1  C          5.5230    1.9180    1.2680 C.3     1  UNL1        0.0800
      2  C          5.0620    0.7050    2.0000 C.2     1  UNL1        0.1300
      3  C          5.9300   -0.4930    2.1500 C.3     1  UNL1        0.0870
      4  O          3.9500    0.6600    2.5000 O.2     1  UNL1       -0.3000
      5  C          5.3990    1.7370   -0.2310 C.3     1  UNL1        0.0430
      6  C          6.5660    1.0360   -0.7950 C.2     1  UNL1       -0.0440
      7  C          7.8730    1.4730   -0.5490 C.2     1  UNL1        0.0080
      8  C          6.3790   -0.0780   -1.5820 C.2     1  UNL1        0.0540
      9  C          8.9300    0.7740   -1.1040 C.2     1  UNL1        0.0510
     10  C          7.4510   -0.7810   -2.1400 C.2     1  UNL1        0.1660
     11  C          8.7370   -0.3510   -1.9000 C.2     1  UNL1        0.1650
     12  O          7.5250   -1.8990   -2.9440 O.2     1  UNL1       -0.4540
     13  O          9.5820   -1.2230   -2.5670 O.2     1  UNL1       -0.4540
     14  C          8.8600   -2.2720   -3.1670 C.3     1  UNL1        0.4680
@<TRIPOS>BOND
     1    14    12    1
     2    14    13    1
     3    12    10    1
     4    13    11    1
     5    10    11    2
     6    10     8    1
     7    11     9    1
     8     8     6    2
     9     9     7    2
    10     6     7    1
    11     6     5    1
    12     5     1    1
    13     1     2    1
    14     2     3    1
    15     2     4    2
