@<TRIPOS>MOLECULE
/home/cewinharhar/GITHUB/reincatalyze/data/processed/docking_pred/2023-May-31-1438_sub9_nm5_bs15_s42_ex16_mel10_mts1000_k50_ec05_g099_lra9e-4_lrc3e-3/4f8338f1f65f27d68c3e57a6b5041c9c59ec4c55_ligand_9.pdbqt
 14 15 0 0 0
SMALL
GASTEIGER

@<TRIPOS>ATOM
      1  C          5.3100   -0.0730    1.9620 C.3     1  UNL1        0.0800
      2  C          4.4430    1.1250    1.7850 C.2     1  UNL1        0.1300
      3  C          4.7300    2.1500    0.7460 C.3     1  UNL1        0.0870
      4  O          3.4660    1.3020    2.4950 O.2     1  UNL1       -0.3000
      5  C          6.7790    0.2970    1.9070 C.3     1  UNL1        0.0430
      6  C          7.3840   -0.0600    0.6110 C.2     1  UNL1       -0.0440
      7  C          7.8680    0.9180   -0.2660 C.2     1  UNL1        0.0080
      8  C          7.4830   -1.3830    0.2460 C.2     1  UNL1        0.0540
      9  C          8.4260    0.5230   -1.4690 C.2     1  UNL1        0.0510
     10  C          8.0490   -1.7770   -0.9710 C.2     1  UNL1        0.1660
     11  C          8.5240   -0.8150   -1.8350 C.2     1  UNL1        0.1650
     12  O          8.2590   -3.0080   -1.5550 O.2     1  UNL1       -0.4540
     13  O          9.0220   -1.4830   -2.9430 O.2     1  UNL1       -0.4540
     14  C          8.9560   -2.8780   -2.7670 C.3     1  UNL1        0.4680
@<TRIPOS>BOND
     1    13    14    1
     2    13    11    1
     3    14    12    1
     4    11     9    2
     5    11    10    1
     6    12    10    1
     7     9     7    1
     8    10     8    2
     9     7     6    2
    10     8     6    1
    11     6     5    1
    12     3     2    1
    13     2     1    1
    14     2     4    2
    15     5     1    1
