@<TRIPOS>MOLECULE
/home/cewinharhar/GITHUB/reincatalyze/data/processed/docking_pred/2023-May-31-1438_sub9_nm5_bs15_s42_ex16_mel10_mts1000_k50_ec05_g099_lra9e-4_lrc3e-3/4f8338f1f65f27d68c3e57a6b5041c9c59ec4c55_ligand_9.pdbqt
 14 15 0 0 0
SMALL
GASTEIGER

@<TRIPOS>ATOM
      1  C          5.5070   -0.0300    1.9450 C.3     1  UNL1        0.0800
      2  C          4.6480    1.1500    1.6450 C.2     1  UNL1        0.1300
      3  C          4.9710    2.0890    0.5380 C.3     1  UNL1        0.0870
      4  O          3.6480    1.3810    2.3060 O.2     1  UNL1       -0.3000
      5  C          6.9380    0.2060    1.5070 C.3     1  UNL1        0.0430
      6  C          7.3540   -0.7460    0.4620 C.2     1  UNL1       -0.0440
      7  C          7.2420   -0.4360   -0.8990 C.2     1  UNL1        0.0080
      8  C          7.8680   -1.9720    0.8200 C.2     1  UNL1        0.0540
      9  C          7.6480   -1.3680   -1.8350 C.2     1  UNL1        0.0510
     10  C          8.2780   -2.9110   -0.1310 C.2     1  UNL1        0.1660
     11  C          8.1670   -2.6070   -1.4700 C.2     1  UNL1        0.1650
     12  O          8.8120   -4.1780   -0.0310 O.2     1  UNL1       -0.4540
     13  O          8.6410   -3.7040   -2.1710 O.2     1  UNL1       -0.4540
     14  C          9.1440   -4.6870   -1.2970 C.3     1  UNL1        0.4680
@<TRIPOS>BOND
     1    13    11    1
     2    13    14    1
     3     9    11    2
     4     9     7    1
     5    11    10    1
     6    14    12    1
     7     7     6    2
     8    10    12    1
     9    10     8    2
    10     6     8    1
    11     6     5    1
    12     3     2    1
    13     5     1    1
    14     2     1    1
    15     2     4    2
