MODEL 1
REMARK VINA RESULT:      -7.7      0.000      0.000
REMARK SMILES CC(=O)CCc1ccc2c(c1)OCO2
REMARK SMILES IDX 4 1 2 2 1 3 3 4 5 5 6 6 7 7 11 8 8 9 10 10 9 11 12 12 14 13
REMARK SMILES IDX 13 14
REMARK H PARENT
REMARK Flexibility Score: inf
ROOT
ATOM      1  C   UNL     1       5.526   1.887   1.289  1.00  0.00     0.080 C 
ENDROOT
BRANCH   1   2
ATOM      2  C   UNL     1       5.079   0.666   2.016  1.00  0.00     0.130 C 
ATOM      3  C   UNL     1       5.960  -0.524   2.158  1.00  0.00     0.087 C 
ATOM      4  O   UNL     1       3.969   0.607   2.518  1.00  0.00    -0.300 OA
ENDBRANCH   1   2
BRANCH   1   5
ATOM      5  C   UNL     1       5.396   1.714  -0.211  1.00  0.00     0.043 C 
BRANCH   5   6
ATOM      6  C   UNL     1       6.564   1.022  -0.785  1.00  0.00    -0.044 A 
ATOM      7  C   UNL     1       7.869   1.469  -0.550  1.00  0.00     0.008 A 
ATOM      8  C   UNL     1       6.378  -0.092  -1.571  1.00  0.00     0.054 A 
ATOM      9  C   UNL     1       8.926   0.779  -1.114  1.00  0.00     0.051 A 
ATOM     10  C   UNL     1       7.451  -0.787  -2.138  1.00  0.00     0.166 A 
ATOM     11  C   UNL     1       8.735  -0.347  -1.908  1.00  0.00     0.165 A 
ATOM     12  O   UNL     1       7.526  -1.903  -2.944  1.00  0.00    -0.454 OA
ATOM     13  O   UNL     1       9.582  -1.212  -2.583  1.00  0.00    -0.454 OA
ATOM     14  C   UNL     1       8.863  -2.266  -3.178  1.00  0.00     0.468 C 
ENDBRANCH   5   6
ENDBRANCH   1   5
TORSDOF 3
ENDMDL
MODEL 2
REMARK VINA RESULT:      -7.4      1.961      2.459
REMARK SMILES CC(=O)CCc1ccc2c(c1)OCO2
REMARK SMILES IDX 4 1 2 2 1 3 3 4 5 5 6 6 7 7 11 8 8 9 10 10 9 11 12 12 14 13
REMARK SMILES IDX 13 14
REMARK H PARENT
REMARK Flexibility Score: inf
ROOT
ATOM      1  C   UNL     1       5.744   1.238  -0.292  1.00  0.00     0.080 C 
ENDROOT
BRANCH   1   2
ATOM      2  C   UNL     1       5.179   1.194   1.085  1.00  0.00     0.130 C 
ATOM      3  C   UNL     1       5.325  -0.006   1.951  1.00  0.00     0.087 C 
ATOM      4  O   UNL     1       4.575   2.149   1.545  1.00  0.00    -0.300 OA
ENDBRANCH   1   2
BRANCH   1   5
ATOM      5  C   UNL     1       7.242   1.007  -0.280  1.00  0.00     0.043 C 
BRANCH   5   6
ATOM      6  C   UNL     1       7.600  -0.291  -0.880  1.00  0.00    -0.044 A 
ATOM      7  C   UNL     1       7.630  -0.473  -2.268  1.00  0.00     0.008 A 
ATOM      8  C   UNL     1       7.917  -1.354  -0.066  1.00  0.00     0.054 A 
ATOM      9  C   UNL     1       7.974  -1.713  -2.774  1.00  0.00     0.051 A 
ATOM     10  C   UNL     1       8.265  -2.606  -0.583  1.00  0.00     0.166 A 
ATOM     11  C   UNL     1       8.293  -2.787  -1.948  1.00  0.00     0.165 A 
ATOM     12  O   UNL     1       8.615  -3.802   0.007  1.00  0.00    -0.454 OA
ATOM     13  O   UNL     1       8.665  -4.104  -2.170  1.00  0.00    -0.454 OA
ATOM     14  C   UNL     1       8.966  -4.758  -0.960  1.00  0.00     0.468 C 
ENDBRANCH   5   6
ENDBRANCH   1   5
TORSDOF 3
ENDMDL
MODEL 3
REMARK VINA RESULT:      -7.2      2.094      2.646
REMARK SMILES CC(=O)CCc1ccc2c(c1)OCO2
REMARK SMILES IDX 4 1 2 2 1 3 3 4 5 5 6 6 7 7 11 8 8 9 10 10 9 11 12 12 14 13
REMARK SMILES IDX 13 14
REMARK H PARENT
REMARK Flexibility Score: inf
ROOT
ATOM      1  C   UNL     1       5.507  -0.030   1.945  1.00  0.00     0.080 C 
ENDROOT
BRANCH   1   2
ATOM      2  C   UNL     1       4.648   1.150   1.645  1.00  0.00     0.130 C 
ATOM      3  C   UNL     1       4.971   2.089   0.538  1.00  0.00     0.087 C 
ATOM      4  O   UNL     1       3.648   1.381   2.306  1.00  0.00    -0.300 OA
ENDBRANCH   1   2
BRANCH   1   5
ATOM      5  C   UNL     1       6.938   0.206   1.507  1.00  0.00     0.043 C 
BRANCH   5   6
ATOM      6  C   UNL     1       7.354  -0.746   0.462  1.00  0.00    -0.044 A 
ATOM      7  C   UNL     1       7.242  -0.436  -0.899  1.00  0.00     0.008 A 
ATOM      8  C   UNL     1       7.868  -1.972   0.820  1.00  0.00     0.054 A 
ATOM      9  C   UNL     1       7.648  -1.368  -1.835  1.00  0.00     0.051 A 
ATOM     10  C   UNL     1       8.278  -2.911  -0.131  1.00  0.00     0.166 A 
ATOM     11  C   UNL     1       8.167  -2.607  -1.470  1.00  0.00     0.165 A 
ATOM     12  O   UNL     1       8.812  -4.178  -0.031  1.00  0.00    -0.454 OA
ATOM     13  O   UNL     1       8.641  -3.704  -2.171  1.00  0.00    -0.454 OA
ATOM     14  C   UNL     1       9.144  -4.687  -1.297  1.00  0.00     0.468 C 
ENDBRANCH   5   6
ENDBRANCH   1   5
TORSDOF 3
ENDMDL
MODEL 4
REMARK VINA RESULT:      -7.1      1.265      1.481
REMARK SMILES CC(=O)CCc1ccc2c(c1)OCO2
REMARK SMILES IDX 4 1 2 2 1 3 3 4 5 5 6 6 7 7 11 8 8 9 10 10 9 11 12 12 14 13
REMARK SMILES IDX 13 14
REMARK H PARENT
REMARK Flexibility Score: inf
ROOT
ATOM      1  C   UNL     1       6.392   1.169   0.963  1.00  0.00     0.080 C 
ENDROOT
BRANCH   1   2
ATOM      2  C   UNL     1       5.645   0.343   1.952  1.00  0.00     0.130 C 
ATOM      3  C   UNL     1       6.234  -0.886   2.547  1.00  0.00     0.087 C 
ATOM      4  O   UNL     1       4.518   0.654   2.304  1.00  0.00    -0.300 OA
ENDBRANCH   1   2
BRANCH   1   5
ATOM      5  C   UNL     1       5.893   0.926  -0.447  1.00  0.00     0.043 C 
BRANCH   5   6
ATOM      6  C   UNL     1       6.830   0.093  -1.223  1.00  0.00    -0.044 A 
ATOM      7  C   UNL     1       7.494   0.592  -2.349  1.00  0.00     0.008 A 
ATOM      8  C   UNL     1       7.066  -1.207  -0.838  1.00  0.00     0.054 A 
ATOM      9  C   UNL     1       8.363  -0.235  -3.037  1.00  0.00     0.051 A 
ATOM     10  C   UNL     1       7.946  -2.039  -1.536  1.00  0.00     0.166 A 
ATOM     11  C   UNL     1       8.599  -1.549  -2.645  1.00  0.00     0.165 A 
ATOM     12  O   UNL     1       8.344  -3.347  -1.358  1.00  0.00    -0.454 OA
ATOM     13  O   UNL     1       9.394  -2.577  -3.129  1.00  0.00    -0.454 OA
ATOM     14  C   UNL     1       9.331  -3.706  -2.290  1.00  0.00     0.468 C 
ENDBRANCH   5   6
ENDBRANCH   1   5
TORSDOF 3
ENDMDL
MODEL 5
REMARK VINA RESULT:      -6.8      1.276      1.759
REMARK SMILES CC(=O)CCc1ccc2c(c1)OCO2
REMARK SMILES IDX 4 1 2 2 1 3 3 4 5 5 6 6 7 7 11 8 8 9 10 10 9 11 12 12 14 13
REMARK SMILES IDX 13 14
REMARK H PARENT
REMARK Flexibility Score: inf
ROOT
ATOM      1  C   UNL     1       5.310  -0.073   1.962  1.00  0.00     0.080 C 
ENDROOT
BRANCH   1   2
ATOM      2  C   UNL     1       4.443   1.125   1.785  1.00  0.00     0.130 C 
ATOM      3  C   UNL     1       4.730   2.150   0.746  1.00  0.00     0.087 C 
ATOM      4  O   UNL     1       3.466   1.302   2.495  1.00  0.00    -0.300 OA
ENDBRANCH   1   2
BRANCH   1   5
ATOM      5  C   UNL     1       6.779   0.297   1.907  1.00  0.00     0.043 C 
BRANCH   5   6
ATOM      6  C   UNL     1       7.384  -0.060   0.611  1.00  0.00    -0.044 A 
ATOM      7  C   UNL     1       7.868   0.918  -0.266  1.00  0.00     0.008 A 
ATOM      8  C   UNL     1       7.483  -1.383   0.246  1.00  0.00     0.054 A 
ATOM      9  C   UNL     1       8.426   0.523  -1.469  1.00  0.00     0.051 A 
ATOM     10  C   UNL     1       8.049  -1.777  -0.971  1.00  0.00     0.166 A 
ATOM     11  C   UNL     1       8.524  -0.815  -1.835  1.00  0.00     0.165 A 
ATOM     12  O   UNL     1       8.259  -3.008  -1.555  1.00  0.00    -0.454 OA
ATOM     13  O   UNL     1       9.022  -1.483  -2.943  1.00  0.00    -0.454 OA
ATOM     14  C   UNL     1       8.956  -2.878  -2.767  1.00  0.00     0.468 C 
ENDBRANCH   5   6
ENDBRANCH   1   5
TORSDOF 3
ENDMDL
