@<TRIPOS>MOLECULE
/home/cewinharhar/GITHUB/reincatalyze/data/processed/docking_pred/2023-May-31-1438_sub9_nm5_bs15_s42_ex16_mel10_mts1000_k50_ec05_g099_lra9e-4_lrc3e-3/4f8338f1f65f27d68c3e57a6b5041c9c59ec4c55_ligand_9.pdbqt
 14 15 0 0 0
SMALL
GASTEIGER

@<TRIPOS>ATOM
      1  C          5.7440    1.2380   -0.2920 C.3     1  UNL1        0.0800
      2  C          5.1790    1.1940    1.0850 C.2     1  UNL1        0.1300
      3  C          5.3250   -0.0060    1.9510 C.3     1  UNL1        0.0870
      4  O          4.5750    2.1490    1.5450 O.2     1  UNL1       -0.3000
      5  C          7.2420    1.0070   -0.2800 C.3     1  UNL1        0.0430
      6  C          7.6000   -0.2910   -0.8800 C.2     1  UNL1       -0.0440
      7  C          7.6300   -0.4730   -2.2680 C.2     1  UNL1        0.0080
      8  C          7.9170   -1.3540   -0.0660 C.2     1  UNL1        0.0540
      9  C          7.9740   -1.7130   -2.7740 C.2     1  UNL1        0.0510
     10  C          8.2650   -2.6060   -0.5830 C.2     1  UNL1        0.1660
     11  C          8.2930   -2.7870   -1.9480 C.2     1  UNL1        0.1650
     12  O          8.6150   -3.8020    0.0070 O.2     1  UNL1       -0.4540
     13  O          8.6650   -4.1040   -2.1700 O.2     1  UNL1       -0.4540
     14  C          8.9660   -4.7580   -0.9600 C.3     1  UNL1        0.4680
@<TRIPOS>BOND
     1     9     7    1
     2     9    11    2
     3     7     6    2
     4    13    11    1
     5    13    14    1
     6    11    10    1
     7    14    12    1
     8     6     5    1
     9     6     8    1
    10    10     8    2
    11    10    12    1
    12     1     5    1
    13     1     2    1
    14     2     4    2
    15     2     3    1
