MODEL 1
REMARK VINA RESULT:      -7.5      0.000      0.000
REMARK SMILES CC(=O)CCc1ccc2c(c1)OCO2
REMARK SMILES IDX 4 1 2 2 1 3 3 4 5 5 6 6 7 7 11 8 8 9 10 10 9 11 12 12 14 13
REMARK SMILES IDX 13 14
REMARK H PARENT
REMARK Flexibility Score: inf
ROOT
ATOM      1  C   UNL     1       6.042  -1.038   1.995  1.00  0.00     0.080 C 
ENDROOT
BRANCH   1   2
ATOM      2  C   UNL     1       5.341   0.247   1.720  1.00  0.00     0.130 C 
ATOM      3  C   UNL     1       5.676   1.081   0.535  1.00  0.00     0.087 C 
ATOM      4  O   UNL     1       4.465   0.655   2.465  1.00  0.00    -0.300 OA
ENDBRANCH   1   2
BRANCH   1   5
ATOM      5  C   UNL     1       7.462  -1.015   1.464  1.00  0.00     0.043 C 
BRANCH   5   6
ATOM      6  C   UNL     1       8.429  -1.488   2.471  1.00  0.00    -0.044 A 
ATOM      7  C   UNL     1       8.207  -1.311   3.841  1.00  0.00     0.008 A 
ATOM      8  C   UNL     1       9.581  -2.122   2.064  1.00  0.00     0.054 A 
ATOM      9  C   UNL     1       9.150  -1.776   4.739  1.00  0.00     0.051 A 
ATOM     10  C   UNL     1      10.531  -2.591   2.977  1.00  0.00     0.166 A 
ATOM     11  C   UNL     1      10.314  -2.416   4.325  1.00  0.00     0.165 A 
ATOM     12  O   UNL     1      11.737  -3.243   2.826  1.00  0.00    -0.454 OA
ATOM     13  O   UNL     1      11.401  -2.971   4.982  1.00  0.00    -0.454 OA
ATOM     14  C   UNL     1      12.284  -3.586   4.074  1.00  0.00     0.468 C 
ENDBRANCH   5   6
ENDBRANCH   1   5
TORSDOF 3
ENDMDL
MODEL 2
REMARK VINA RESULT:      -7.2      1.398      1.627
REMARK SMILES CC(=O)CCc1ccc2c(c1)OCO2
REMARK SMILES IDX 4 1 2 2 1 3 3 4 5 5 6 6 7 7 11 8 8 9 10 10 9 11 12 12 14 13
REMARK SMILES IDX 13 14
REMARK H PARENT
REMARK Flexibility Score: inf
ROOT
ATOM      1  C   UNL     1       5.915   0.307   1.152  1.00  0.00     0.080 C 
ENDROOT
BRANCH   1   2
ATOM      2  C   UNL     1       5.929   0.814  -0.249  1.00  0.00     0.130 C 
ATOM      3  C   UNL     1       6.735   0.154  -1.310  1.00  0.00     0.087 C 
ATOM      4  O   UNL     1       5.275   1.794  -0.567  1.00  0.00    -0.300 OA
ENDBRANCH   1   2
BRANCH   1   5
ATOM      5  C   UNL     1       6.185  -1.184   1.200  1.00  0.00     0.043 C 
BRANCH   5   6
ATOM      6  C   UNL     1       7.331  -1.504   2.069  1.00  0.00    -0.044 A 
ATOM      7  C   UNL     1       7.355  -1.131   3.418  1.00  0.00     0.008 A 
ATOM      8  C   UNL     1       8.408  -2.189   1.554  1.00  0.00     0.054 A 
ATOM      9  C   UNL     1       8.458  -1.459   4.185  1.00  0.00     0.051 A 
ATOM     10  C   UNL     1       9.520  -2.519   2.334  1.00  0.00     0.166 A 
ATOM     11  C   UNL     1       9.545  -2.151   3.661  1.00  0.00     0.165 A 
ATOM     12  O   UNL     1      10.697  -3.183   2.060  1.00  0.00    -0.454 OA
ATOM     13  O   UNL     1      10.749  -2.602   4.179  1.00  0.00    -0.454 OA
ATOM     14  C   UNL     1      11.469  -3.341   3.222  1.00  0.00     0.468 C 
ENDBRANCH   5   6
ENDBRANCH   1   5
TORSDOF 3
ENDMDL
MODEL 3
REMARK VINA RESULT:      -7.1      0.839      1.007
REMARK SMILES CC(=O)CCc1ccc2c(c1)OCO2
REMARK SMILES IDX 4 1 2 2 1 3 3 4 5 5 6 6 7 7 11 8 8 9 10 10 9 11 12 12 14 13
REMARK SMILES IDX 13 14
REMARK H PARENT
REMARK Flexibility Score: inf
ROOT
ATOM      1  C   UNL     1       6.894  -0.687   1.717  1.00  0.00     0.080 C 
ENDROOT
BRANCH   1   2
ATOM      2  C   UNL     1       5.820   0.305   1.431  1.00  0.00     0.130 C 
ATOM      3  C   UNL     1       5.735   1.008   0.123  1.00  0.00     0.087 C 
ATOM      4  O   UNL     1       4.974   0.571   2.268  1.00  0.00    -0.300 OA
ENDBRANCH   1   2
BRANCH   1   5
ATOM      5  C   UNL     1       7.042  -0.924   3.207  1.00  0.00     0.043 C 
BRANCH   5   6
ATOM      6  C   UNL     1       8.343  -1.532   3.537  1.00  0.00    -0.044 A 
ATOM      7  C   UNL     1       8.927  -1.374   4.800  1.00  0.00     0.008 A 
ATOM      8  C   UNL     1       9.007  -2.278   2.591  1.00  0.00     0.054 A 
ATOM      9  C   UNL     1      10.149  -1.969   5.053  1.00  0.00     0.051 A 
ATOM     10  C   UNL     1      10.243  -2.878   2.852  1.00  0.00     0.166 A 
ATOM     11  C   UNL     1      10.818  -2.722   4.093  1.00  0.00     0.165 A 
ATOM     12  O   UNL     1      11.090  -3.655   2.090  1.00  0.00    -0.454 OA
ATOM     13  O   UNL     1      12.019  -3.414   4.068  1.00  0.00    -0.454 OA
ATOM     14  C   UNL     1      12.188  -4.096   2.847  1.00  0.00     0.468 C 
ENDBRANCH   5   6
ENDBRANCH   1   5
TORSDOF 3
ENDMDL
MODEL 4
REMARK VINA RESULT:      -7.0      1.704      1.866
REMARK SMILES CC(=O)CCc1ccc2c(c1)OCO2
REMARK SMILES IDX 4 1 2 2 1 3 3 4 5 5 6 6 7 7 11 8 8 9 10 10 9 11 12 12 14 13
REMARK SMILES IDX 13 14
REMARK H PARENT
REMARK Flexibility Score: inf
ROOT
ATOM      1  C   UNL     1       6.836  -1.211  -0.212  1.00  0.00     0.080 C 
ENDROOT
BRANCH   1   2
ATOM      2  C   UNL     1       6.531   0.097  -0.855  1.00  0.00     0.130 C 
ATOM      3  C   UNL     1       5.751   1.150  -0.151  1.00  0.00     0.087 C 
ATOM      4  O   UNL     1       6.915   0.344  -1.987  1.00  0.00    -0.300 OA
ENDBRANCH   1   2
BRANCH   1   5
ATOM      5  C   UNL     1       6.413  -1.222   1.243  1.00  0.00     0.043 C 
BRANCH   5   6
ATOM      6  C   UNL     1       7.539  -1.541   2.138  1.00  0.00    -0.044 A 
ATOM      7  C   UNL     1       7.527  -1.178   3.490  1.00  0.00     0.008 A 
ATOM      8  C   UNL     1       8.634  -2.213   1.644  1.00  0.00     0.054 A 
ATOM      9  C   UNL     1       8.613  -1.504   4.282  1.00  0.00     0.051 A 
ATOM     10  C   UNL     1       9.729  -2.542   2.449  1.00  0.00     0.166 A 
ATOM     11  C   UNL     1       9.718  -2.184   3.779  1.00  0.00     0.165 A 
ATOM     12  O   UNL     1      10.917  -3.195   2.199  1.00  0.00    -0.454 OA
ATOM     13  O   UNL     1      10.912  -2.631   4.323  1.00  0.00    -0.454 OA
ATOM     14  C   UNL     1      11.662  -3.356   3.379  1.00  0.00     0.468 C 
ENDBRANCH   5   6
ENDBRANCH   1   5
TORSDOF 3
ENDMDL
MODEL 5
REMARK VINA RESULT:      -7.0      2.182      2.385
REMARK SMILES CC(=O)CCc1ccc2c(c1)OCO2
REMARK SMILES IDX 4 1 2 2 1 3 3 4 5 5 6 6 7 7 11 8 8 9 10 10 9 11 12 12 14 13
REMARK SMILES IDX 13 14
REMARK H PARENT
REMARK Flexibility Score: inf
ROOT
ATOM      1  C   UNL     1       6.631  -0.071  -0.122  1.00  0.00     0.080 C 
ENDROOT
BRANCH   1   2
ATOM      2  C   UNL     1       7.162  -0.528  -1.436  1.00  0.00     0.130 C 
ATOM      3  C   UNL     1       8.213   0.234  -2.162  1.00  0.00     0.087 C 
ATOM      4  O   UNL     1       6.746  -1.549  -1.959  1.00  0.00    -0.300 OA
ENDBRANCH   1   2
BRANCH   1   5
ATOM      5  C   UNL     1       6.286  -1.246   0.771  1.00  0.00     0.043 C 
BRANCH   5   6
ATOM      6  C   UNL     1       7.350  -1.515   1.755  1.00  0.00    -0.044 A 
ATOM      7  C   UNL     1       7.236  -1.105   3.089  1.00  0.00     0.008 A 
ATOM      8  C   UNL     1       8.485  -2.188   1.365  1.00  0.00     0.054 A 
ATOM      9  C   UNL     1       8.266  -1.386   3.967  1.00  0.00     0.051 A 
ATOM     10  C   UNL     1       9.524  -2.470   2.258  1.00  0.00     0.166 A 
ATOM     11  C   UNL     1       9.413  -2.066   3.569  1.00  0.00     0.165 A 
ATOM     12  O   UNL     1      10.735  -3.113   2.117  1.00  0.00    -0.454 OA
ATOM     13  O   UNL     1      10.571  -2.474   4.214  1.00  0.00    -0.454 OA
ATOM     14  C   UNL     1      11.395  -3.221   3.352  1.00  0.00     0.468 C 
ENDBRANCH   5   6
ENDBRANCH   1   5
TORSDOF 3
ENDMDL
