@<TRIPOS>MOLECULE
/home/cewinharhar/GITHUB/reincatalyze/data/processed/docking_pred/2023-May-31-1438_sub9_nm5_bs15_s42_ex16_mel10_mts1000_k50_ec05_g099_lra9e-4_lrc3e-3/4f8485ffa73320ccf1b94cd7b1ea99ef776c762b_ligand_9.pdbqt
 14 15 0 0 0
SMALL
GASTEIGER

@<TRIPOS>ATOM
      1  C          6.8940   -0.6870    1.7170 C.3     1  UNL1        0.0800
      2  C          5.8200    0.3050    1.4310 C.2     1  UNL1        0.1300
      3  C          5.7350    1.0080    0.1230 C.3     1  UNL1        0.0870
      4  O          4.9740    0.5710    2.2680 O.2     1  UNL1       -0.3000
      5  C          7.0420   -0.9240    3.2070 C.3     1  UNL1        0.0430
      6  C          8.3430   -1.5320    3.5370 C.2     1  UNL1       -0.0440
      7  C          8.9270   -1.3740    4.8000 C.2     1  UNL1        0.0080
      8  C          9.0070   -2.2780    2.5910 C.2     1  UNL1        0.0540
      9  C         10.1490   -1.9690    5.0530 C.2     1  UNL1        0.0510
     10  C         10.2430   -2.8780    2.8520 C.2     1  UNL1        0.1660
     11  C         10.8180   -2.7220    4.0930 C.2     1  UNL1        0.1650
     12  O         11.0900   -3.6550    2.0900 O.2     1  UNL1       -0.4540
     13  O         12.0190   -3.4140    4.0680 O.2     1  UNL1       -0.4540
     14  C         12.1880   -4.0960    2.8470 C.3     1  UNL1        0.4680
@<TRIPOS>BOND
     1     3     2    1
     2     2     1    1
     3     2     4    2
     4     1     5    1
     5    12    14    1
     6    12    10    1
     7     8    10    1
     8     8     6    2
     9    14    13    1
    10    10    11    2
    11     5     6    1
    12     6     7    1
    13    13    11    1
    14    11     9    1
    15     7     9    2
