@<TRIPOS>MOLECULE
/home/cewinharhar/GITHUB/reincatalyze/data/processed/docking_pred/2023-May-31-1438_sub9_nm5_bs15_s42_ex16_mel10_mts1000_k50_ec05_g099_lra9e-4_lrc3e-3/4f8485ffa73320ccf1b94cd7b1ea99ef776c762b_ligand_9.pdbqt
 14 15 0 0 0
SMALL
GASTEIGER

@<TRIPOS>ATOM
      1  C          6.0420   -1.0380    1.9950 C.3     1  UNL1        0.0800
      2  C          5.3410    0.2470    1.7200 C.2     1  UNL1        0.1300
      3  C          5.6760    1.0810    0.5350 C.3     1  UNL1        0.0870
      4  O          4.4650    0.6550    2.4650 O.2     1  UNL1       -0.3000
      5  C          7.4620   -1.0150    1.4640 C.3     1  UNL1        0.0430
      6  C          8.4290   -1.4880    2.4710 C.2     1  UNL1       -0.0440
      7  C          8.2070   -1.3110    3.8410 C.2     1  UNL1        0.0080
      8  C          9.5810   -2.1220    2.0640 C.2     1  UNL1        0.0540
      9  C          9.1500   -1.7760    4.7390 C.2     1  UNL1        0.0510
     10  C         10.5310   -2.5910    2.9770 C.2     1  UNL1        0.1660
     11  C         10.3140   -2.4160    4.3250 C.2     1  UNL1        0.1650
     12  O         11.7370   -3.2430    2.8260 O.2     1  UNL1       -0.4540
     13  O         11.4010   -2.9710    4.9820 O.2     1  UNL1       -0.4540
     14  C         12.2840   -3.5860    4.0740 C.3     1  UNL1        0.4680
@<TRIPOS>BOND
     1     3     2    1
     2     5     1    1
     3     5     6    1
     4     2     1    1
     5     2     4    2
     6     8     6    2
     7     8    10    1
     8     6     7    1
     9    12    10    1
    10    12    14    1
    11    10    11    2
    12     7     9    2
    13    14    13    1
    14    11     9    1
    15    11    13    1
