@<TRIPOS>MOLECULE
/home/cewinharhar/GITHUB/reincatalyze/data/processed/docking_pred/2023-May-31-1438_sub9_nm5_bs15_s42_ex16_mel10_mts1000_k50_ec05_g099_lra9e-4_lrc3e-3/4f8485ffa73320ccf1b94cd7b1ea99ef776c762b_ligand_9.pdbqt
 14 15 0 0 0
SMALL
GASTEIGER

@<TRIPOS>ATOM
      1  C          6.6310   -0.0710   -0.1220 C.3     1  UNL1        0.0800
      2  C          7.1620   -0.5280   -1.4360 C.2     1  UNL1        0.1300
      3  C          8.2130    0.2340   -2.1620 C.3     1  UNL1        0.0870
      4  O          6.7460   -1.5490   -1.9590 O.2     1  UNL1       -0.3000
      5  C          6.2860   -1.2460    0.7710 C.3     1  UNL1        0.0430
      6  C          7.3500   -1.5150    1.7550 C.2     1  UNL1       -0.0440
      7  C          7.2360   -1.1050    3.0890 C.2     1  UNL1        0.0080
      8  C          8.4850   -2.1880    1.3650 C.2     1  UNL1        0.0540
      9  C          8.2660   -1.3860    3.9670 C.2     1  UNL1        0.0510
     10  C          9.5240   -2.4700    2.2580 C.2     1  UNL1        0.1660
     11  C          9.4130   -2.0660    3.5690 C.2     1  UNL1        0.1650
     12  O         10.7350   -3.1130    2.1170 O.2     1  UNL1       -0.4540
     13  O         10.5710   -2.4740    4.2140 O.2     1  UNL1       -0.4540
     14  C         11.3950   -3.2210    3.3520 C.3     1  UNL1        0.4680
@<TRIPOS>BOND
     1     3     2    1
     2     4     2    2
     3     2     1    1
     4     1     5    1
     5     5     6    1
     6     8     6    2
     7     8    10    1
     8     6     7    1
     9    12    10    1
    10    12    14    1
    11    10    11    2
    12     7     9    2
    13    14    13    1
    14    11     9    1
    15    11    13    1
