@<TRIPOS>MOLECULE
/home/cewinharhar/GITHUB/reincatalyze/data/processed/docking_pred/2023-May-31-1438_sub9_nm5_bs15_s42_ex16_mel10_mts1000_k50_ec05_g099_lra9e-4_lrc3e-3/4f8485ffa73320ccf1b94cd7b1ea99ef776c762b_ligand_9.pdbqt
 14 15 0 0 0
SMALL
GASTEIGER

@<TRIPOS>ATOM
      1  C          6.8360   -1.2110   -0.2120 C.3     1  UNL1        0.0800
      2  C          6.5310    0.0970   -0.8550 C.2     1  UNL1        0.1300
      3  C          5.7510    1.1500   -0.1510 C.3     1  UNL1        0.0870
      4  O          6.9150    0.3440   -1.9870 O.2     1  UNL1       -0.3000
      5  C          6.4130   -1.2220    1.2430 C.3     1  UNL1        0.0430
      6  C          7.5390   -1.5410    2.1380 C.2     1  UNL1       -0.0440
      7  C          7.5270   -1.1780    3.4900 C.2     1  UNL1        0.0080
      8  C          8.6340   -2.2130    1.6440 C.2     1  UNL1        0.0540
      9  C          8.6130   -1.5040    4.2820 C.2     1  UNL1        0.0510
     10  C          9.7290   -2.5420    2.4490 C.2     1  UNL1        0.1660
     11  C          9.7180   -2.1840    3.7790 C.2     1  UNL1        0.1650
     12  O         10.9170   -3.1950    2.1990 O.2     1  UNL1       -0.4540
     13  O         10.9120   -2.6310    4.3230 O.2     1  UNL1       -0.4540
     14  C         11.6620   -3.3560    3.3790 C.3     1  UNL1        0.4680
@<TRIPOS>BOND
     1     4     2    2
     2     2     1    1
     3     2     3    1
     4     1     5    1
     5     5     6    1
     6     8     6    2
     7     8    10    1
     8     6     7    1
     9    12    10    1
    10    12    14    1
    11    10    11    2
    12    14    13    1
    13     7     9    2
    14    11     9    1
    15    11    13    1
