@<TRIPOS>MOLECULE
/home/cewinharhar/GITHUB/reincatalyze/data/processed/docking_pred/2023-May-31-1438_sub9_nm5_bs15_s42_ex16_mel10_mts1000_k50_ec05_g099_lra9e-4_lrc3e-3/4f8485ffa73320ccf1b94cd7b1ea99ef776c762b_ligand_9.pdbqt
 14 15 0 0 0
SMALL
GASTEIGER

@<TRIPOS>ATOM
      1  C          5.9150    0.3070    1.1520 C.3     1  UNL1        0.0800
      2  C          5.9290    0.8140   -0.2490 C.2     1  UNL1        0.1300
      3  C          6.7350    0.1540   -1.3100 C.3     1  UNL1        0.0870
      4  O          5.2750    1.7940   -0.5670 O.2     1  UNL1       -0.3000
      5  C          6.1850   -1.1840    1.2000 C.3     1  UNL1        0.0430
      6  C          7.3310   -1.5040    2.0690 C.2     1  UNL1       -0.0440
      7  C          7.3550   -1.1310    3.4180 C.2     1  UNL1        0.0080
      8  C          8.4080   -2.1890    1.5540 C.2     1  UNL1        0.0540
      9  C          8.4580   -1.4590    4.1850 C.2     1  UNL1        0.0510
     10  C          9.5200   -2.5190    2.3340 C.2     1  UNL1        0.1660
     11  C          9.5450   -2.1510    3.6610 C.2     1  UNL1        0.1650
     12  O         10.6970   -3.1830    2.0600 O.2     1  UNL1       -0.4540
     13  O         10.7490   -2.6020    4.1790 O.2     1  UNL1       -0.4540
     14  C         11.4690   -3.3410    3.2220 C.3     1  UNL1        0.4680
@<TRIPOS>BOND
     1     3     2    1
     2     4     2    2
     3     2     1    1
     4     1     5    1
     5     5     6    1
     6     8     6    2
     7     8    10    1
     8    12    10    1
     9    12    14    1
    10     6     7    1
    11    10    11    2
    12    14    13    1
    13     7     9    2
    14    11    13    1
    15    11     9    1
