MODEL 1
REMARK VINA RESULT:      -7.6      0.000      0.000
REMARK SMILES CC(=O)CCc1ccc2c(c1)OCO2
REMARK SMILES IDX 4 1 2 2 1 3 3 4 5 5 6 6 7 7 11 8 8 9 10 10 9 11 12 12 14 13
REMARK SMILES IDX 13 14
REMARK H PARENT
REMARK Flexibility Score: inf
ROOT
ATOM      1  C   UNL     1       5.550   1.879   1.299  1.00  0.00     0.080 C 
ENDROOT
BRANCH   1   2
ATOM      2  C   UNL     1       5.103   0.656   2.023  1.00  0.00     0.130 C 
ATOM      3  C   UNL     1       5.990  -0.528   2.177  1.00  0.00     0.087 C 
ATOM      4  O   UNL     1       3.988   0.591   2.513  1.00  0.00    -0.300 OA
ENDBRANCH   1   2
BRANCH   1   5
ATOM      5  C   UNL     1       5.414   1.711  -0.202  1.00  0.00     0.043 C 
BRANCH   5   6
ATOM      6  C   UNL     1       6.579   1.018  -0.782  1.00  0.00    -0.044 A 
ATOM      7  C   UNL     1       7.886   1.463  -0.552  1.00  0.00     0.008 A 
ATOM      8  C   UNL     1       6.388  -0.095  -1.568  1.00  0.00     0.054 A 
ATOM      9  C   UNL     1       8.939   0.772  -1.122  1.00  0.00     0.051 A 
ATOM     10  C   UNL     1       7.457  -0.791  -2.141  1.00  0.00     0.166 A 
ATOM     11  C   UNL     1       8.743  -0.353  -1.916  1.00  0.00     0.165 A 
ATOM     12  O   UNL     1       7.527  -1.907  -2.948  1.00  0.00    -0.454 OA
ATOM     13  O   UNL     1       9.585  -1.219  -2.596  1.00  0.00    -0.454 OA
ATOM     14  C   UNL     1       8.862  -2.271  -3.189  1.00  0.00     0.468 C 
ENDBRANCH   5   6
ENDBRANCH   1   5
TORSDOF 3
ENDMDL
MODEL 2
REMARK VINA RESULT:      -7.4      1.922      2.399
REMARK SMILES CC(=O)CCc1ccc2c(c1)OCO2
REMARK SMILES IDX 4 1 2 2 1 3 3 4 5 5 6 6 7 7 11 8 8 9 10 10 9 11 12 12 14 13
REMARK SMILES IDX 13 14
REMARK H PARENT
REMARK Flexibility Score: inf
ROOT
ATOM      1  C   UNL     1       5.769   1.426  -0.385  1.00  0.00     0.080 C 
ENDROOT
BRANCH   1   2
ATOM      2  C   UNL     1       5.138   1.348   0.962  1.00  0.00     0.130 C 
ATOM      3  C   UNL     1       5.519   0.296   1.942  1.00  0.00     0.087 C 
ATOM      4  O   UNL     1       4.284   2.150   1.301  1.00  0.00    -0.300 OA
ENDBRANCH   1   2
BRANCH   1   5
ATOM      5  C   UNL     1       7.261   1.168  -0.310  1.00  0.00     0.043 C 
BRANCH   5   6
ATOM      6  C   UNL     1       7.620  -0.136  -0.895  1.00  0.00    -0.044 A 
ATOM      7  C   UNL     1       7.654  -0.334  -2.280  1.00  0.00     0.008 A 
ATOM      8  C   UNL     1       7.933  -1.191  -0.069  1.00  0.00     0.054 A 
ATOM      9  C   UNL     1       7.999  -1.580  -2.772  1.00  0.00     0.051 A 
ATOM     10  C   UNL     1       8.282  -2.448  -0.570  1.00  0.00     0.166 A 
ATOM     11  C   UNL     1       8.315  -2.644  -1.933  1.00  0.00     0.165 A 
ATOM     12  O   UNL     1       8.629  -3.638   0.034  1.00  0.00    -0.454 OA
ATOM     13  O   UNL     1       8.686  -3.964  -2.140  1.00  0.00    -0.454 OA
ATOM     14  C   UNL     1       8.983  -4.605  -0.922  1.00  0.00     0.468 C 
ENDBRANCH   5   6
ENDBRANCH   1   5
TORSDOF 3
ENDMDL
MODEL 3
REMARK VINA RESULT:      -7.2      2.050      2.613
REMARK SMILES CC(=O)CCc1ccc2c(c1)OCO2
REMARK SMILES IDX 4 1 2 2 1 3 3 4 5 5 6 6 7 7 11 8 8 9 10 10 9 11 12 12 14 13
REMARK SMILES IDX 13 14
REMARK H PARENT
REMARK Flexibility Score: inf
ROOT
ATOM      1  C   UNL     1       5.440  -0.035   2.000  1.00  0.00     0.080 C 
ENDROOT
BRANCH   1   2
ATOM      2  C   UNL     1       4.577   1.152   1.747  1.00  0.00     0.130 C 
ATOM      3  C   UNL     1       4.890   2.130   0.671  1.00  0.00     0.087 C 
ATOM      4  O   UNL     1       3.580   1.357   2.421  1.00  0.00    -0.300 OA
ENDBRANCH   1   2
BRANCH   1   5
ATOM      5  C   UNL     1       6.869   0.221   1.563  1.00  0.00     0.043 C 
BRANCH   5   6
ATOM      6  C   UNL     1       7.290  -0.711   0.501  1.00  0.00    -0.044 A 
ATOM      7  C   UNL     1       7.159  -0.387  -0.854  1.00  0.00     0.008 A 
ATOM      8  C   UNL     1       7.830  -1.931   0.840  1.00  0.00     0.054 A 
ATOM      9  C   UNL     1       7.572  -1.301  -1.806  1.00  0.00     0.051 A 
ATOM     10  C   UNL     1       8.247  -2.851  -0.127  1.00  0.00     0.166 A 
ATOM     11  C   UNL     1       8.117  -2.534  -1.460  1.00  0.00     0.165 A 
ATOM     12  O   UNL     1       8.805  -4.110  -0.047  1.00  0.00    -0.454 OA
ATOM     13  O   UNL     1       8.604  -3.614  -2.179  1.00  0.00    -0.454 OA
ATOM     14  C   UNL     1       9.133  -4.598  -1.323  1.00  0.00     0.468 C 
ENDBRANCH   5   6
ENDBRANCH   1   5
TORSDOF 3
ENDMDL
MODEL 4
REMARK VINA RESULT:      -7.1      1.248      1.463
REMARK SMILES CC(=O)CCc1ccc2c(c1)OCO2
REMARK SMILES IDX 4 1 2 2 1 3 3 4 5 5 6 6 7 7 11 8 8 9 10 10 9 11 12 12 14 13
REMARK SMILES IDX 13 14
REMARK H PARENT
REMARK Flexibility Score: inf
ROOT
ATOM      1  C   UNL     1       6.374   1.183   0.922  1.00  0.00     0.080 C 
ENDROOT
BRANCH   1   2
ATOM      2  C   UNL     1       5.651   0.362   1.933  1.00  0.00     0.130 C 
ATOM      3  C   UNL     1       6.244  -0.879   2.500  1.00  0.00     0.087 C 
ATOM      4  O   UNL     1       4.544   0.688   2.328  1.00  0.00    -0.300 OA
ENDBRANCH   1   2
BRANCH   1   5
ATOM      5  C   UNL     1       5.868   0.901  -0.479  1.00  0.00     0.043 C 
BRANCH   5   6
ATOM      6  C   UNL     1       6.820   0.081  -1.250  1.00  0.00    -0.044 A 
ATOM      7  C   UNL     1       7.514   0.601  -2.348  1.00  0.00     0.008 A 
ATOM      8  C   UNL     1       7.042  -1.229  -0.887  1.00  0.00     0.054 A 
ATOM      9  C   UNL     1       8.396  -0.216  -3.033  1.00  0.00     0.051 A 
ATOM     10  C   UNL     1       7.935  -2.050  -1.582  1.00  0.00     0.166 A 
ATOM     11  C   UNL     1       8.617  -1.539  -2.664  1.00  0.00     0.165 A 
ATOM     12  O   UNL     1       8.322  -3.363  -1.422  1.00  0.00    -0.454 OA
ATOM     13  O   UNL     1       9.418  -2.560  -3.150  1.00  0.00    -0.454 OA
ATOM     14  C   UNL     1       9.331  -3.706  -2.338  1.00  0.00     0.468 C 
ENDBRANCH   5   6
ENDBRANCH   1   5
TORSDOF 3
ENDMDL
MODEL 5
REMARK VINA RESULT:      -7.0      1.893      2.414
REMARK SMILES CC(=O)CCc1ccc2c(c1)OCO2
REMARK SMILES IDX 4 1 2 2 1 3 3 4 5 5 6 6 7 7 11 8 8 9 10 10 9 11 12 12 14 13
REMARK SMILES IDX 13 14
REMARK H PARENT
REMARK Flexibility Score: inf
ROOT
ATOM      1  C   UNL     1       6.741   0.916   1.466  1.00  0.00     0.080 C 
ENDROOT
BRANCH   1   2
ATOM      2  C   UNL     1       5.279   1.198   1.517  1.00  0.00     0.130 C 
ATOM      3  C   UNL     1       4.634   2.150   0.574  1.00  0.00     0.087 C 
ATOM      4  O   UNL     1       4.563   0.651   2.341  1.00  0.00    -0.300 OA
ENDBRANCH   1   2
BRANCH   1   5
ATOM      5  C   UNL     1       7.303   1.173   0.083  1.00  0.00     0.043 C 
BRANCH   5   6
ATOM      6  C   UNL     1       7.617  -0.082  -0.622  1.00  0.00    -0.044 A 
ATOM      7  C   UNL     1       7.583  -0.167  -2.019  1.00  0.00     0.008 A 
ATOM      8  C   UNL     1       7.956  -1.204   0.100  1.00  0.00     0.054 A 
ATOM      9  C   UNL     1       7.888  -1.372  -2.625  1.00  0.00     0.051 A 
ATOM     10  C   UNL     1       8.264  -2.419  -0.518  1.00  0.00     0.166 A 
ATOM     11  C   UNL     1       8.229  -2.504  -1.892  1.00  0.00     0.165 A 
ATOM     12  O   UNL     1       8.624  -3.657  -0.029  1.00  0.00    -0.454 OA
ATOM     13  O   UNL     1       8.573  -3.806  -2.222  1.00  0.00    -0.454 OA
ATOM     14  C   UNL     1       8.920  -4.546  -1.076  1.00  0.00     0.468 C 
ENDBRANCH   5   6
ENDBRANCH   1   5
TORSDOF 3
ENDMDL
