@<TRIPOS>MOLECULE
/home/cewinharhar/GITHUB/reincatalyze/data/processed/docking_pred/2023-May-31-1438_sub9_nm5_bs15_s42_ex16_mel10_mts1000_k50_ec05_g099_lra9e-4_lrc3e-3/4fd116288ae20ad94bf91d23a53b6bc9c92e4cae_ligand_9.pdbqt
 14 15 0 0 0
SMALL
GASTEIGER

@<TRIPOS>ATOM
      1  C          6.3740    1.1830    0.9220 C.3     1  UNL1        0.0800
      2  C          5.6510    0.3620    1.9330 C.2     1  UNL1        0.1300
      3  C          6.2440   -0.8790    2.5000 C.3     1  UNL1        0.0870
      4  O          4.5440    0.6880    2.3280 O.2     1  UNL1       -0.3000
      5  C          5.8680    0.9010   -0.4790 C.3     1  UNL1        0.0430
      6  C          6.8200    0.0810   -1.2500 C.2     1  UNL1       -0.0440
      7  C          7.5140    0.6010   -2.3480 C.2     1  UNL1        0.0080
      8  C          7.0420   -1.2290   -0.8870 C.2     1  UNL1        0.0540
      9  C          8.3960   -0.2160   -3.0330 C.2     1  UNL1        0.0510
     10  C          7.9350   -2.0500   -1.5820 C.2     1  UNL1        0.1660
     11  C          8.6170   -1.5390   -2.6640 C.2     1  UNL1        0.1650
     12  O          8.3220   -3.3630   -1.4220 O.2     1  UNL1       -0.4540
     13  O          9.4180   -2.5600   -3.1500 O.2     1  UNL1       -0.4540
     14  C          9.3310   -3.7060   -2.3380 C.3     1  UNL1        0.4680
@<TRIPOS>BOND
     1    13    11    1
     2    13    14    1
     3     9    11    2
     4     9     7    1
     5    11    10    1
     6     7     6    2
     7    14    12    1
     8    10    12    1
     9    10     8    2
    10     6     8    1
    11     6     5    1
    12     5     1    1
    13     1     2    1
    14     2     4    2
    15     2     3    1
