@<TRIPOS>MOLECULE
/home/cewinharhar/GITHUB/reincatalyze/data/processed/docking_pred/2023-May-31-1438_sub9_nm5_bs15_s42_ex16_mel10_mts1000_k50_ec05_g099_lra9e-4_lrc3e-3/5131ba4422f83928eab452067adeb3f7f7723c60_ligand_9.pdbqt
 14 15 0 0 0
SMALL
GASTEIGER

@<TRIPOS>ATOM
      1  C          6.6840    0.5080    1.3060 C.3     1  UNL1        0.0800
      2  C          5.3170    1.0810    1.4470 C.2     1  UNL1        0.1300
      3  C          4.8200    2.1500    0.5390 C.3     1  UNL1        0.0870
      4  O          4.5590    0.6880    2.3190 O.2     1  UNL1       -0.3000
      5  C          7.2440    0.7550   -0.0810 C.3     1  UNL1        0.0430
      6  C          7.6540   -0.4990   -0.7360 C.2     1  UNL1       -0.0440
      7  C          7.7360   -0.6060   -2.1290 C.2     1  UNL1        0.0080
      8  C          7.9700   -1.5980    0.0300 C.2     1  UNL1        0.0540
      9  C          8.1280   -1.8080   -2.6890 C.2     1  UNL1        0.0510
     10  C          8.3660   -2.8110   -0.5400 C.2     1  UNL1        0.1660
     11  C          8.4450   -2.9170   -1.9110 C.2     1  UNL1        0.1650
     12  O          8.7260   -4.0290   -0.0030 O.2     1  UNL1       -0.4540
     13  O          8.8570   -4.2110   -2.1890 O.2     1  UNL1       -0.4540
     14  C          9.1340   -4.9230   -1.0070 C.3     1  UNL1        0.4680
@<TRIPOS>BOND
     1     9     7    1
     2     9    11    2
     3    13    11    1
     4    13    14    1
     5     7     6    2
     6    11    10    1
     7    14    12    1
     8     6     5    1
     9     6     8    1
    10    10    12    1
    11    10     8    2
    12     5     1    1
    13     3     2    1
    14     1     2    1
    15     2     4    2
