@<TRIPOS>MOLECULE
/home/cewinharhar/GITHUB/reincatalyze/data/processed/docking_pred/2023-May-31-1438_sub9_nm5_bs15_s42_ex16_mel10_mts1000_k50_ec05_g099_lra9e-4_lrc3e-3/5131ba4422f83928eab452067adeb3f7f7723c60_ligand_9.pdbqt
 14 15 0 0 0
SMALL
GASTEIGER

@<TRIPOS>ATOM
      1  C          6.3510    1.2410    0.9240 C.3     1  UNL1        0.0800
      2  C          5.6420    0.4070    1.9340 C.2     1  UNL1        0.1300
      3  C          6.2680   -0.8050    2.5250 C.3     1  UNL1        0.0870
      4  O          4.5160    0.6970    2.3060 O.2     1  UNL1       -0.3000
      5  C          5.8490    0.9540   -0.4780 C.3     1  UNL1        0.0430
      6  C          6.8000    0.1270   -1.2410 C.2     1  UNL1       -0.0440
      7  C          7.4920    0.6360   -2.3460 C.2     1  UNL1        0.0080
      8  C          7.0230   -1.1780   -0.8650 C.2     1  UNL1        0.0540
      9  C          8.3730   -0.1880   -3.0230 C.2     1  UNL1        0.0510
     10  C          7.9150   -2.0060   -1.5530 C.2     1  UNL1        0.1660
     11  C          8.5960   -1.5070   -2.6410 C.2     1  UNL1        0.1650
     12  O          8.3040   -3.3180   -1.3800 O.2     1  UNL1       -0.4540
     13  O          9.3970   -2.5320   -3.1180 O.2     1  UNL1       -0.4540
     14  C          9.3110   -3.6700   -2.2930 C.3     1  UNL1        0.4680
@<TRIPOS>BOND
     1    13    11    1
     2    13    14    1
     3     9    11    2
     4     9     7    1
     5    11    10    1
     6     7     6    2
     7    14    12    1
     8    10    12    1
     9    10     8    2
    10     6     8    1
    11     6     5    1
    12     5     1    1
    13     1     2    1
    14     2     4    2
    15     2     3    1
