MODEL 1
REMARK VINA RESULT:      -7.6      0.000      0.000
REMARK SMILES CC(=O)CCc1ccc2c(c1)OCO2
REMARK SMILES IDX 4 1 2 2 1 3 3 4 5 5 6 6 7 7 11 8 8 9 10 10 9 11 12 12 14 13
REMARK SMILES IDX 13 14
REMARK H PARENT
REMARK Flexibility Score: inf
ROOT
ATOM      1  C   UNL     1       5.553   1.888   1.296  1.00  0.00     0.080 C 
ENDROOT
BRANCH   1   2
ATOM      2  C   UNL     1       5.112   0.664   2.021  1.00  0.00     0.130 C 
ATOM      3  C   UNL     1       6.011  -0.509   2.190  1.00  0.00     0.087 C 
ATOM      4  O   UNL     1       3.993   0.588   2.501  1.00  0.00    -0.300 OA
ENDBRANCH   1   2
BRANCH   1   5
ATOM      5  C   UNL     1       5.421   1.717  -0.204  1.00  0.00     0.043 C 
BRANCH   5   6
ATOM      6  C   UNL     1       6.582   1.014  -0.778  1.00  0.00    -0.044 A 
ATOM      7  C   UNL     1       7.892   1.443  -0.536  1.00  0.00     0.008 A 
ATOM      8  C   UNL     1       6.385  -0.094  -1.571  1.00  0.00     0.054 A 
ATOM      9  C   UNL     1       8.943   0.743  -1.101  1.00  0.00     0.051 A 
ATOM     10  C   UNL     1       7.451  -0.798  -2.139  1.00  0.00     0.166 A 
ATOM     11  C   UNL     1       8.740  -0.376  -1.902  1.00  0.00     0.165 A 
ATOM     12  O   UNL     1       7.515  -1.911  -2.951  1.00  0.00    -0.454 OA
ATOM     13  O   UNL     1       9.578  -1.248  -2.579  1.00  0.00    -0.454 OA
ATOM     14  C   UNL     1       8.848  -2.289  -3.183  1.00  0.00     0.468 C 
ENDBRANCH   5   6
ENDBRANCH   1   5
TORSDOF 3
ENDMDL
MODEL 2
REMARK VINA RESULT:      -7.4      1.962      2.443
REMARK SMILES CC(=O)CCc1ccc2c(c1)OCO2
REMARK SMILES IDX 4 1 2 2 1 3 3 4 5 5 6 6 7 7 11 8 8 9 10 10 9 11 12 12 14 13
REMARK SMILES IDX 13 14
REMARK H PARENT
REMARK Flexibility Score: inf
ROOT
ATOM      1  C   UNL     1       5.719   1.210  -0.271  1.00  0.00     0.080 C 
ENDROOT
BRANCH   1   2
ATOM      2  C   UNL     1       5.152   1.224   1.107  1.00  0.00     0.130 C 
ATOM      3  C   UNL     1       5.408   0.117   2.067  1.00  0.00     0.087 C 
ATOM      4  O   UNL     1       4.455   2.150   1.488  1.00  0.00    -0.300 OA
ENDBRANCH   1   2
BRANCH   1   5
ATOM      5  C   UNL     1       7.219   0.994  -0.246  1.00  0.00     0.043 C 
BRANCH   5   6
ATOM      6  C   UNL     1       7.596  -0.295  -0.854  1.00  0.00    -0.044 A 
ATOM      7  C   UNL     1       7.633  -0.467  -2.242  1.00  0.00     0.008 A 
ATOM      8  C   UNL     1       7.923  -1.360  -0.046  1.00  0.00     0.054 A 
ATOM      9  C   UNL     1       7.994  -1.700  -2.756  1.00  0.00     0.051 A 
ATOM     10  C   UNL     1       8.288  -2.604  -0.570  1.00  0.00     0.166 A 
ATOM     11  C   UNL     1       8.324  -2.775  -1.936  1.00  0.00     0.165 A 
ATOM     12  O   UNL     1       8.651  -3.799   0.013  1.00  0.00    -0.454 OA
ATOM     13  O   UNL     1       8.713  -4.085  -2.166  1.00  0.00    -0.454 OA
ATOM     14  C   UNL     1       9.018  -4.744  -0.960  1.00  0.00     0.468 C 
ENDBRANCH   5   6
ENDBRANCH   1   5
TORSDOF 3
ENDMDL
MODEL 3
REMARK VINA RESULT:      -7.2      2.051      2.622
REMARK SMILES CC(=O)CCc1ccc2c(c1)OCO2
REMARK SMILES IDX 4 1 2 2 1 3 3 4 5 5 6 6 7 7 11 8 8 9 10 10 9 11 12 12 14 13
REMARK SMILES IDX 13 14
REMARK H PARENT
REMARK Flexibility Score: inf
ROOT
ATOM      1  C   UNL     1       5.410  -0.060   2.039  1.00  0.00     0.080 C 
ENDROOT
BRANCH   1   2
ATOM      2  C   UNL     1       4.564   1.137   1.774  1.00  0.00     0.130 C 
ATOM      3  C   UNL     1       4.912   2.119   0.713  1.00  0.00     0.087 C 
ATOM      4  O   UNL     1       3.554   1.347   2.426  1.00  0.00    -0.300 OA
ENDBRANCH   1   2
BRANCH   1   5
ATOM      5  C   UNL     1       6.850   0.182   1.632  1.00  0.00     0.043 C 
BRANCH   5   6
ATOM      6  C   UNL     1       7.277  -0.735   0.561  1.00  0.00    -0.044 A 
ATOM      7  C   UNL     1       7.151  -0.394  -0.790  1.00  0.00     0.008 A 
ATOM      8  C   UNL     1       7.817  -1.959   0.887  1.00  0.00     0.054 A 
ATOM      9  C   UNL     1       7.571  -1.296  -1.752  1.00  0.00     0.051 A 
ATOM     10  C   UNL     1       8.240  -2.866  -0.089  1.00  0.00     0.166 A 
ATOM     11  C   UNL     1       8.116  -2.532  -1.419  1.00  0.00     0.165 A 
ATOM     12  O   UNL     1       8.800  -4.125  -0.022  1.00  0.00    -0.454 OA
ATOM     13  O   UNL     1       8.607  -3.603  -2.149  1.00  0.00    -0.454 OA
ATOM     14  C   UNL     1       9.134  -4.596  -1.303  1.00  0.00     0.468 C 
ENDBRANCH   5   6
ENDBRANCH   1   5
TORSDOF 3
ENDMDL
MODEL 4
REMARK VINA RESULT:      -7.1      1.240      1.437
REMARK SMILES CC(=O)CCc1ccc2c(c1)OCO2
REMARK SMILES IDX 4 1 2 2 1 3 3 4 5 5 6 6 7 7 11 8 8 9 10 10 9 11 12 12 14 13
REMARK SMILES IDX 13 14
REMARK H PARENT
REMARK Flexibility Score: inf
ROOT
ATOM      1  C   UNL     1       6.351   1.241   0.924  1.00  0.00     0.080 C 
ENDROOT
BRANCH   1   2
ATOM      2  C   UNL     1       5.642   0.407   1.934  1.00  0.00     0.130 C 
ATOM      3  C   UNL     1       6.268  -0.805   2.525  1.00  0.00     0.087 C 
ATOM      4  O   UNL     1       4.516   0.697   2.306  1.00  0.00    -0.300 OA
ENDBRANCH   1   2
BRANCH   1   5
ATOM      5  C   UNL     1       5.849   0.954  -0.478  1.00  0.00     0.043 C 
BRANCH   5   6
ATOM      6  C   UNL     1       6.800   0.127  -1.241  1.00  0.00    -0.044 A 
ATOM      7  C   UNL     1       7.492   0.636  -2.346  1.00  0.00     0.008 A 
ATOM      8  C   UNL     1       7.023  -1.178  -0.865  1.00  0.00     0.054 A 
ATOM      9  C   UNL     1       8.373  -0.188  -3.023  1.00  0.00     0.051 A 
ATOM     10  C   UNL     1       7.915  -2.006  -1.553  1.00  0.00     0.166 A 
ATOM     11  C   UNL     1       8.596  -1.507  -2.641  1.00  0.00     0.165 A 
ATOM     12  O   UNL     1       8.304  -3.318  -1.380  1.00  0.00    -0.454 OA
ATOM     13  O   UNL     1       9.397  -2.532  -3.118  1.00  0.00    -0.454 OA
ATOM     14  C   UNL     1       9.311  -3.670  -2.293  1.00  0.00     0.468 C 
ENDBRANCH   5   6
ENDBRANCH   1   5
TORSDOF 3
ENDMDL
MODEL 5
REMARK VINA RESULT:      -7.0      2.032      2.627
REMARK SMILES CC(=O)CCc1ccc2c(c1)OCO2
REMARK SMILES IDX 4 1 2 2 1 3 3 4 5 5 6 6 7 7 11 8 8 9 10 10 9 11 12 12 14 13
REMARK SMILES IDX 13 14
REMARK H PARENT
REMARK Flexibility Score: inf
ROOT
ATOM      1  C   UNL     1       6.684   0.508   1.306  1.00  0.00     0.080 C 
ENDROOT
BRANCH   1   2
ATOM      2  C   UNL     1       5.317   1.081   1.447  1.00  0.00     0.130 C 
ATOM      3  C   UNL     1       4.820   2.150   0.539  1.00  0.00     0.087 C 
ATOM      4  O   UNL     1       4.559   0.688   2.319  1.00  0.00    -0.300 OA
ENDBRANCH   1   2
BRANCH   1   5
ATOM      5  C   UNL     1       7.244   0.755  -0.081  1.00  0.00     0.043 C 
BRANCH   5   6
ATOM      6  C   UNL     1       7.654  -0.499  -0.736  1.00  0.00    -0.044 A 
ATOM      7  C   UNL     1       7.736  -0.606  -2.129  1.00  0.00     0.008 A 
ATOM      8  C   UNL     1       7.970  -1.598   0.030  1.00  0.00     0.054 A 
ATOM      9  C   UNL     1       8.128  -1.808  -2.689  1.00  0.00     0.051 A 
ATOM     10  C   UNL     1       8.366  -2.811  -0.540  1.00  0.00     0.166 A 
ATOM     11  C   UNL     1       8.445  -2.917  -1.911  1.00  0.00     0.165 A 
ATOM     12  O   UNL     1       8.726  -4.029  -0.003  1.00  0.00    -0.454 OA
ATOM     13  O   UNL     1       8.857  -4.211  -2.189  1.00  0.00    -0.454 OA
ATOM     14  C   UNL     1       9.134  -4.923  -1.007  1.00  0.00     0.468 C 
ENDBRANCH   5   6
ENDBRANCH   1   5
TORSDOF 3
ENDMDL
