@<TRIPOS>MOLECULE
/home/cewinharhar/GITHUB/reincatalyze/data/processed/docking_pred/2023-May-31-1438_sub9_nm5_bs15_s42_ex16_mel10_mts1000_k50_ec05_g099_lra9e-4_lrc3e-3/5131ba4422f83928eab452067adeb3f7f7723c60_ligand_9.pdbqt
 14 15 0 0 0
SMALL
GASTEIGER

@<TRIPOS>ATOM
      1  C          5.5530    1.8880    1.2960 C.3     1  UNL1        0.0800
      2  C          5.1120    0.6640    2.0210 C.2     1  UNL1        0.1300
      3  C          6.0110   -0.5090    2.1900 C.3     1  UNL1        0.0870
      4  O          3.9930    0.5880    2.5010 O.2     1  UNL1       -0.3000
      5  C          5.4210    1.7170   -0.2040 C.3     1  UNL1        0.0430
      6  C          6.5820    1.0140   -0.7780 C.2     1  UNL1       -0.0440
      7  C          7.8920    1.4430   -0.5360 C.2     1  UNL1        0.0080
      8  C          6.3850   -0.0940   -1.5710 C.2     1  UNL1        0.0540
      9  C          8.9430    0.7430   -1.1010 C.2     1  UNL1        0.0510
     10  C          7.4510   -0.7980   -2.1390 C.2     1  UNL1        0.1660
     11  C          8.7400   -0.3760   -1.9020 C.2     1  UNL1        0.1650
     12  O          7.5150   -1.9110   -2.9510 O.2     1  UNL1       -0.4540
     13  O          9.5780   -1.2480   -2.5790 O.2     1  UNL1       -0.4540
     14  C          8.8480   -2.2890   -3.1830 C.3     1  UNL1        0.4680
@<TRIPOS>BOND
     1    14    12    1
     2    14    13    1
     3    12    10    1
     4    13    11    1
     5    10    11    2
     6    10     8    1
     7    11     9    1
     8     8     6    2
     9     9     7    2
    10     6     7    1
    11     6     5    1
    12     5     1    1
    13     1     2    1
    14     2     3    1
    15     2     4    2
