@<TRIPOS>MOLECULE
/home/cewinharhar/GITHUB/reincatalyze/data/processed/docking_pred/2023-May-31-1438_sub9_nm5_bs15_s42_ex16_mel10_mts1000_k50_ec05_g099_lra9e-4_lrc3e-3/5131ba4422f83928eab452067adeb3f7f7723c60_ligand_9.pdbqt
 14 15 0 0 0
SMALL
GASTEIGER

@<TRIPOS>ATOM
      1  C          5.4100   -0.0600    2.0390 C.3     1  UNL1        0.0800
      2  C          4.5640    1.1370    1.7740 C.2     1  UNL1        0.1300
      3  C          4.9120    2.1190    0.7130 C.3     1  UNL1        0.0870
      4  O          3.5540    1.3470    2.4260 O.2     1  UNL1       -0.3000
      5  C          6.8500    0.1820    1.6320 C.3     1  UNL1        0.0430
      6  C          7.2770   -0.7350    0.5610 C.2     1  UNL1       -0.0440
      7  C          7.1510   -0.3940   -0.7900 C.2     1  UNL1        0.0080
      8  C          7.8170   -1.9590    0.8870 C.2     1  UNL1        0.0540
      9  C          7.5710   -1.2960   -1.7520 C.2     1  UNL1        0.0510
     10  C          8.2400   -2.8660   -0.0890 C.2     1  UNL1        0.1660
     11  C          8.1160   -2.5320   -1.4190 C.2     1  UNL1        0.1650
     12  O          8.8000   -4.1250   -0.0220 O.2     1  UNL1       -0.4540
     13  O          8.6070   -3.6030   -2.1490 O.2     1  UNL1       -0.4540
     14  C          9.1340   -4.5960   -1.3030 C.3     1  UNL1        0.4680
@<TRIPOS>BOND
     1    13    11    1
     2    13    14    1
     3     9    11    2
     4     9     7    1
     5    11    10    1
     6    14    12    1
     7     7     6    2
     8    10    12    1
     9    10     8    2
    10     6     8    1
    11     6     5    1
    12     3     2    1
    13     5     1    1
    14     2     1    1
    15     2     4    2
