MODEL 1
REMARK VINA RESULT:       1.3      0.000      0.000
REMARK SMILES CC(=O)CCc1ccc2c(c1)OCO2
REMARK SMILES IDX 4 1 2 2 1 3 3 4 5 5 6 6 7 7 11 8 8 9 10 10 9 11 12 12 14 13
REMARK SMILES IDX 13 14
REMARK H PARENT
REMARK Flexibility Score: inf
ROOT
ATOM      1  C   UNL     1       8.796  -4.773  -0.375  1.00  0.00     0.080 C 
ENDROOT
BRANCH   1   2
ATOM      2  C   UNL     1       9.533  -4.680  -1.666  1.00  0.00     0.130 C 
ATOM      3  C   UNL     1      10.356  -5.808  -2.179  1.00  0.00     0.087 C 
ATOM      4  O   UNL     1       9.482  -3.667  -2.345  1.00  0.00    -0.300 OA
ENDBRANCH   1   2
BRANCH   1   5
ATOM      5  C   UNL     1       9.539  -4.057   0.735  1.00  0.00     0.043 C 
BRANCH   5   6
ATOM      6  C   UNL     1       8.880  -2.792   1.106  1.00  0.00    -0.044 A 
ATOM      7  C   UNL     1       9.600  -1.597   1.225  1.00  0.00     0.008 A 
ATOM      8  C   UNL     1       7.524  -2.772   1.341  1.00  0.00     0.054 A 
ATOM      9  C   UNL     1       8.928  -0.441   1.575  1.00  0.00     0.051 A 
ATOM     10  C   UNL     1       6.849  -1.600   1.694  1.00  0.00     0.166 A 
ATOM     11  C   UNL     1       7.557  -0.425   1.812  1.00  0.00     0.165 A 
ATOM     12  O   UNL     1       5.528  -1.325   1.976  1.00  0.00    -0.454 OA
ATOM     13  O   UNL     1       6.646   0.558   2.167  1.00  0.00    -0.454 OA
ATOM     14  C   UNL     1       5.334   0.049   2.193  1.00  0.00     0.468 C 
ENDBRANCH   5   6
ENDBRANCH   1   5
TORSDOF 3
ENDMDL
MODEL 2
REMARK VINA RESULT:       1.5      3.064      7.174
REMARK SMILES CC(=O)CCc1ccc2c(c1)OCO2
REMARK SMILES IDX 4 1 2 2 1 3 3 4 5 5 6 6 7 7 11 8 8 9 10 10 9 11 12 12 14 13
REMARK SMILES IDX 13 14
REMARK H PARENT
REMARK Flexibility Score: inf
ROOT
ATOM      1  C   UNL     1       1.955  -0.068   3.084  1.00  0.00     0.080 C 
ENDROOT
BRANCH   1   2
ATOM      2  C   UNL     1       0.478   0.123   3.102  1.00  0.00     0.130 C 
ATOM      3  C   UNL     1      -0.172   1.254   2.387  1.00  0.00     0.087 C 
ATOM      4  O   UNL     1      -0.246  -0.649   3.709  1.00  0.00    -0.300 OA
ENDBRANCH   1   2
BRANCH   1   5
ATOM      5  C   UNL     1       2.649   1.076   2.372  1.00  0.00     0.043 C 
BRANCH   5   6
ATOM      6  C   UNL     1       4.076   0.789   2.139  1.00  0.00    -0.044 A 
ATOM      7  C   UNL     1       4.989   1.807   1.840  1.00  0.00     0.008 A 
ATOM      8  C   UNL     1       4.533  -0.507   2.216  1.00  0.00     0.054 A 
ATOM      9  C   UNL     1       6.316   1.478   1.632  1.00  0.00     0.051 A 
ATOM     10  C   UNL     1       5.876  -0.834   2.006  1.00  0.00     0.166 A 
ATOM     11  C   UNL     1       6.775   0.166   1.711  1.00  0.00     0.165 A 
ATOM     12  O   UNL     1       6.566  -2.028   2.025  1.00  0.00    -0.454 OA
ATOM     13  O   UNL     1       8.012  -0.439   1.555  1.00  0.00    -0.454 OA
ATOM     14  C   UNL     1       7.942  -1.817   1.835  1.00  0.00     0.468 C 
ENDBRANCH   5   6
ENDBRANCH   1   5
TORSDOF 3
ENDMDL
MODEL 3
REMARK VINA RESULT:       1.9      1.727      2.614
REMARK SMILES CC(=O)CCc1ccc2c(c1)OCO2
REMARK SMILES IDX 4 1 2 2 1 3 3 4 5 5 6 6 7 7 11 8 8 9 10 10 9 11 12 12 14 13
REMARK SMILES IDX 13 14
REMARK H PARENT
REMARK Flexibility Score: inf
ROOT
ATOM      1  C   UNL     1       7.936  -3.067   0.957  1.00  0.00     0.080 C 
ENDROOT
BRANCH   1   2
ATOM      2  C   UNL     1       9.097  -3.900   0.536  1.00  0.00     0.130 C 
ATOM      3  C   UNL     1       9.041  -4.761  -0.676  1.00  0.00     0.087 C 
ATOM      4  O   UNL     1      10.135  -3.899   1.178  1.00  0.00    -0.300 OA
ENDBRANCH   1   2
BRANCH   1   5
ATOM      5  C   UNL     1       8.376  -1.912   1.834  1.00  0.00     0.043 C 
BRANCH   5   6
ATOM      6  C   UNL     1       7.391  -0.816   1.829  1.00  0.00    -0.044 A 
ATOM      7  C   UNL     1       7.755   0.495   1.501  1.00  0.00     0.008 A 
ATOM      8  C   UNL     1       6.078  -1.077   2.151  1.00  0.00     0.054 A 
ATOM      9  C   UNL     1       6.787   1.483   1.512  1.00  0.00     0.051 A 
ATOM     10  C   UNL     1       5.103  -0.075   2.160  1.00  0.00     0.166 A 
ATOM     11  C   UNL     1       5.461   1.216   1.839  1.00  0.00     0.165 A 
ATOM     12  O   UNL     1       3.754  -0.080   2.442  1.00  0.00    -0.454 OA
ATOM     13  O   UNL     1       4.311   1.984   1.929  1.00  0.00    -0.454 OA
ATOM     14  C   UNL     1       3.188   1.187   2.220  1.00  0.00     0.468 C 
ENDBRANCH   5   6
ENDBRANCH   1   5
TORSDOF 3
ENDMDL
MODEL 4
REMARK VINA RESULT:       2.2      9.515     10.904
REMARK SMILES CC(=O)CCc1ccc2c(c1)OCO2
REMARK SMILES IDX 4 1 2 2 1 3 3 4 5 5 6 6 7 7 11 8 8 9 10 10 9 11 12 12 14 13
REMARK SMILES IDX 13 14
REMARK H PARENT
REMARK Flexibility Score: inf
ROOT
ATOM      1  C   UNL     1       2.365  -7.661  -0.716  1.00  0.00     0.080 C 
ENDROOT
BRANCH   1   2
ATOM      2  C   UNL     1       2.285  -6.220  -0.348  1.00  0.00     0.130 C 
ATOM      3  C   UNL     1       2.014  -5.169  -1.365  1.00  0.00     0.087 C 
ATOM      4  O   UNL     1       2.441  -5.859   0.807  1.00  0.00    -0.300 OA
ENDBRANCH   1   2
BRANCH   1   5
ATOM      5  C   UNL     1       2.922  -8.490   0.424  1.00  0.00     0.043 C 
BRANCH   5   6
ATOM      6  C   UNL     1       1.997  -9.568   0.819  1.00  0.00    -0.044 A 
ATOM      7  C   UNL     1       2.466 -10.808   1.267  1.00  0.00     0.008 A 
ATOM      8  C   UNL     1       0.639  -9.359   0.752  1.00  0.00     0.054 A 
ATOM      9  C   UNL     1       1.550 -11.782   1.625  1.00  0.00     0.051 A 
ATOM     10  C   UNL     1      -0.283 -10.346   1.116  1.00  0.00     0.166 A 
ATOM     11  C   UNL     1       0.177 -11.567   1.555  1.00  0.00     0.165 A 
ATOM     12  O   UNL     1      -1.661 -10.383   1.137  1.00  0.00    -0.454 OA
ATOM     13  O   UNL     1      -0.939 -12.337   1.842  1.00  0.00    -0.454 OA
ATOM     14  C   UNL     1      -2.124 -11.594   1.677  1.00  0.00     0.468 C 
ENDBRANCH   5   6
ENDBRANCH   1   5
TORSDOF 3
ENDMDL
MODEL 5
REMARK VINA RESULT:       2.5      1.595      5.399
REMARK SMILES CC(=O)CCc1ccc2c(c1)OCO2
REMARK SMILES IDX 4 1 2 2 1 3 3 4 5 5 6 6 7 7 11 8 8 9 10 10 9 11 12 12 14 13
REMARK SMILES IDX 13 14
REMARK H PARENT
REMARK Flexibility Score: inf
ROOT
ATOM      1  C   UNL     1       5.126   0.190   1.775  1.00  0.00     0.080 C 
ENDROOT
BRANCH   1   2
ATOM      2  C   UNL     1       5.580   1.515   1.266  1.00  0.00     0.130 C 
ATOM      3  C   UNL     1       5.006   2.116   0.033  1.00  0.00     0.087 C 
ATOM      4  O   UNL     1       6.443   2.148   1.852  1.00  0.00    -0.300 OA
ENDBRANCH   1   2
BRANCH   1   5
ATOM      5  C   UNL     1       6.112  -0.383   2.774  1.00  0.00     0.043 C 
BRANCH   5   6
ATOM      6  C   UNL     1       7.191  -1.134   2.108  1.00  0.00    -0.044 A 
ATOM      7  C   UNL     1       8.487  -0.618   2.004  1.00  0.00     0.008 A 
ATOM      8  C   UNL     1       6.929  -2.375   1.574  1.00  0.00     0.054 A 
ATOM      9  C   UNL     1       9.460  -1.368   1.369  1.00  0.00     0.051 A 
ATOM     10  C   UNL     1       7.915  -3.130   0.933  1.00  0.00     0.166 A 
ATOM     11  C   UNL     1       9.191  -2.622   0.829  1.00  0.00     0.165 A 
ATOM     12  O   UNL     1       7.906  -4.370   0.329  1.00  0.00    -0.454 OA
ATOM     13  O   UNL     1       9.947  -3.571   0.158  1.00  0.00    -0.454 OA
ATOM     14  C   UNL     1       9.194  -4.733  -0.098  1.00  0.00     0.468 C 
ENDBRANCH   5   6
ENDBRANCH   1   5
TORSDOF 3
ENDMDL
