@<TRIPOS>MOLECULE
/home/cewinharhar/GITHUB/reincatalyze/data/processed/docking_pred/2023-May-31-1438_sub9_nm5_bs15_s42_ex16_mel10_mts1000_k50_ec05_g099_lra9e-4_lrc3e-3/53c3fbcdd7c01d09a3e8b21e27d629f70ce21da9_ligand_9.pdbqt
 14 15 0 0 0
SMALL
GASTEIGER

@<TRIPOS>ATOM
      1  C          5.9930    1.2220   -0.1760 C.3     1  UNL1        0.0800
      2  C          5.9210    1.1830    1.3110 C.2     1  UNL1        0.1300
      3  C          5.3150    0.0330    2.0340 C.3     1  UNL1        0.0870
      4  O          6.3610    2.1020    1.9840 O.2     1  UNL1       -0.3000
      5  C          7.4280    1.1520   -0.6600 C.3     1  UNL1        0.0430
      6  C          7.7700   -0.1920   -1.1590 C.2     1  UNL1       -0.0440
      7  C          7.8940   -0.4560   -2.5280 C.2     1  UNL1        0.0080
      8  C          7.9780   -1.2190   -0.2670 C.2     1  UNL1        0.0540
      9  C          8.2190   -1.7360   -2.9380 C.2     1  UNL1        0.0510
     10  C          8.3070   -2.5120   -0.6860 C.2     1  UNL1        0.1660
     11  C          8.4280   -2.7720   -2.0330 C.2     1  UNL1        0.1650
     12  O          8.5580   -3.6850   -0.0070 O.2     1  UNL1       -0.4540
     13  O          8.7550   -4.1140   -2.1540 O.2     1  UNL1       -0.4540
     14  C          8.9370   -4.7080   -0.8910 C.3     1  UNL1        0.4680
@<TRIPOS>BOND
     1     9     7    1
     2     9    11    2
     3     7     6    2
     4    13    11    1
     5    13    14    1
     6    11    10    1
     7     6     5    1
     8     6     8    1
     9    14    12    1
    10    10     8    2
    11    10    12    1
    12     5     1    1
    13     1     2    1
    14     2     4    2
    15     2     3    1
