@<TRIPOS>MOLECULE
/home/cewinharhar/GITHUB/reincatalyze/data/processed/docking_pred/2023-May-31-1438_sub9_nm5_bs15_s42_ex16_mel10_mts1000_k50_ec05_g099_lra9e-4_lrc3e-3/53c3fbcdd7c01d09a3e8b21e27d629f70ce21da9_ligand_9.pdbqt
 14 15 0 0 0
SMALL
GASTEIGER

@<TRIPOS>ATOM
      1  C          5.9050    1.1140   -0.3500 C.3     1  UNL1        0.0800
      2  C          5.8150    1.2650    1.1290 C.2     1  UNL1        0.1300
      3  C          4.9830    0.3520    1.9580 C.3     1  UNL1        0.0870
      4  O          6.4250    2.1490    1.7070 O.2     1  UNL1       -0.3000
      5  C          7.3330    0.8650   -0.7920 C.3     1  UNL1        0.0430
      6  C          7.7670   -0.5110   -0.4900 C.2     1  UNL1       -0.0440
      7  C          7.9840   -0.9390    0.8250 C.2     1  UNL1        0.0080
      8  C          7.9640   -1.4050   -1.5170 C.2     1  UNL1        0.0540
      9  C          8.3900   -2.2420    1.0480 C.2     1  UNL1        0.0510
     10  C          8.3740   -2.7220   -1.2870 C.2     1  UNL1        0.1660
     11  C          8.5890   -3.1440    0.0070 C.2     1  UNL1        0.1650
     12  O          8.6350   -3.7850   -2.1240 O.2     1  UNL1       -0.4540
     13  O          8.9810   -4.4710   -0.0650 O.2     1  UNL1       -0.4540
     14  C          8.9360   -4.9440   -1.3900 C.3     1  UNL1        0.4680
@<TRIPOS>BOND
     1    12    14    1
     2    12    10    1
     3     8    10    1
     4     8     6    2
     5    14    13    1
     6    10    11    2
     7     5     6    1
     8     5     1    1
     9     6     7    1
    10     1     2    1
    11    13    11    1
    12    11     9    1
    13     7     9    2
    14     2     4    2
    15     2     3    1
