@<TRIPOS>MOLECULE
/home/cewinharhar/GITHUB/reincatalyze/data/processed/docking_pred/2023-May-31-1438_sub9_nm5_bs15_s42_ex16_mel10_mts1000_k50_ec05_g099_lra9e-4_lrc3e-3/544f4ddee7da09465e084ab518e20d4fbc72de61_ligand_9.pdbqt
 14 15 0 0 0
SMALL
GASTEIGER

@<TRIPOS>ATOM
      1  C          6.7340    0.6530    1.3870 C.3     1  UNL1        0.0800
      2  C          5.3150    1.1010    1.4550 C.2     1  UNL1        0.1300
      3  C          4.7790    2.1390    0.5340 C.3     1  UNL1        0.0870
      4  O          4.5460    0.6260    2.2750 O.2     1  UNL1       -0.3000
      5  C          7.3320    0.9240    0.0210 C.3     1  UNL1        0.0430
      6  C          7.7100   -0.3230   -0.6680 C.2     1  UNL1       -0.0440
      7  C          7.8160   -0.3870   -2.0620 C.2     1  UNL1        0.0080
      8  C          7.9690   -1.4570    0.0680 C.2     1  UNL1        0.0540
      9  C          8.1760   -1.5850   -2.6530 C.2     1  UNL1        0.0510
     10  C          8.3330   -2.6650   -0.5340 C.2     1  UNL1        0.1660
     11  C          8.4360   -2.7290   -1.9060 C.2     1  UNL1        0.1650
     12  O          8.6360   -3.9120   -0.0310 O.2     1  UNL1       -0.4540
     13  O          8.8060   -4.0280   -2.2190 O.2     1  UNL1       -0.4540
     14  C          9.0320   -4.7870   -1.0560 C.3     1  UNL1        0.4680
@<TRIPOS>BOND
     1     9     7    1
     2     9    11    2
     3    13    11    1
     4    13    14    1
     5     7     6    2
     6    11    10    1
     7    14    12    1
     8     6     5    1
     9     6     8    1
    10    10    12    1
    11    10     8    2
    12     5     1    1
    13     3     2    1
    14     1     2    1
    15     2     4    2
