@<TRIPOS>MOLECULE
/home/cewinharhar/GITHUB/reincatalyze/data/processed/docking_pred/2023-May-31-1438_sub9_nm5_bs15_s42_ex16_mel10_mts1000_k50_ec05_g099_lra9e-4_lrc3e-3/544f4ddee7da09465e084ab518e20d4fbc72de61_ligand_9.pdbqt
 14 15 0 0 0
SMALL
GASTEIGER

@<TRIPOS>ATOM
      1  C          5.4690   -0.0090    2.0340 C.3     1  UNL1        0.0800
      2  C          4.5730    1.1520    1.7740 C.2     1  UNL1        0.1300
      3  C          4.8730    2.1470    0.7090 C.3     1  UNL1        0.0870
      4  O          3.5600    1.3220    2.4330 O.2     1  UNL1       -0.3000
      5  C          6.8820    0.2690    1.5590 C.3     1  UNL1        0.0430
      6  C          7.2990   -0.6730    0.5050 C.2     1  UNL1       -0.0440
      7  C          7.1770   -0.3560   -0.8520 C.2     1  UNL1        0.0080
      8  C          7.8260   -1.8970    0.8530 C.2     1  UNL1        0.0540
      9  C          7.5860   -1.2790   -1.7970 C.2     1  UNL1        0.0510
     10  C          8.2390   -2.8270   -0.1060 C.2     1  UNL1        0.1660
     11  C          8.1170   -2.5150   -1.4420 C.2     1  UNL1        0.1650
     12  O          8.7840   -4.0900   -0.0160 O.2     1  UNL1       -0.4540
     13  O          8.5970   -3.6050   -2.1520 O.2     1  UNL1       -0.4540
     14  C          9.1130   -4.5880   -1.2870 C.3     1  UNL1        0.4680
@<TRIPOS>BOND
     1    13    11    1
     2    13    14    1
     3     9    11    2
     4     9     7    1
     5    11    10    1
     6    14    12    1
     7     7     6    2
     8    10    12    1
     9    10     8    2
    10     6     8    1
    11     6     5    1
    12     3     2    1
    13     5     1    1
    14     2     1    1
    15     2     4    2
