MODEL 1
REMARK VINA RESULT:      -7.6      0.000      0.000
REMARK SMILES CC(=O)CCc1ccc2c(c1)OCO2
REMARK SMILES IDX 4 1 2 2 1 3 3 4 5 5 6 6 7 7 11 8 8 9 10 10 9 11 12 12 14 13
REMARK SMILES IDX 13 14
REMARK H PARENT
REMARK Flexibility Score: inf
ROOT
ATOM      1  C   UNL     1       5.595   1.849   1.303  1.00  0.00     0.080 C 
ENDROOT
BRANCH   1   2
ATOM      2  C   UNL     1       5.132   0.635   2.031  1.00  0.00     0.130 C 
ATOM      3  C   UNL     1       6.011  -0.551   2.210  1.00  0.00     0.087 C 
ATOM      4  O   UNL     1       4.008   0.579   2.505  1.00  0.00    -0.300 OA
ENDBRANCH   1   2
BRANCH   1   5
ATOM      5  C   UNL     1       5.449   1.681  -0.197  1.00  0.00     0.043 C 
BRANCH   5   6
ATOM      6  C   UNL     1       6.608   0.985  -0.784  1.00  0.00    -0.044 A 
ATOM      7  C   UNL     1       7.917   1.432  -0.570  1.00  0.00     0.008 A 
ATOM      8  C   UNL     1       6.410  -0.134  -1.560  1.00  0.00     0.054 A 
ATOM      9  C   UNL     1       8.966   0.738  -1.146  1.00  0.00     0.051 A 
ATOM     10  C   UNL     1       7.474  -0.832  -2.140  1.00  0.00     0.166 A 
ATOM     11  C   UNL     1       8.762  -0.392  -1.931  1.00  0.00     0.165 A 
ATOM     12  O   UNL     1       7.537  -1.954  -2.940  1.00  0.00    -0.454 OA
ATOM     13  O   UNL     1       9.598  -1.262  -2.613  1.00  0.00    -0.454 OA
ATOM     14  C   UNL     1       8.870  -2.319  -3.191  1.00  0.00     0.468 C 
ENDBRANCH   5   6
ENDBRANCH   1   5
TORSDOF 3
ENDMDL
MODEL 2
REMARK VINA RESULT:      -7.4      1.942      2.451
REMARK SMILES CC(=O)CCc1ccc2c(c1)OCO2
REMARK SMILES IDX 4 1 2 2 1 3 3 4 5 5 6 6 7 7 11 8 8 9 10 10 9 11 12 12 14 13
REMARK SMILES IDX 13 14
REMARK H PARENT
REMARK Flexibility Score: inf
ROOT
ATOM      1  C   UNL     1       5.784   1.245  -0.330  1.00  0.00     0.080 C 
ENDROOT
BRANCH   1   2
ATOM      2  C   UNL     1       5.230   1.245   1.052  1.00  0.00     0.130 C 
ATOM      3  C   UNL     1       5.531   0.153   2.015  1.00  0.00     0.087 C 
ATOM      4  O   UNL     1       4.506   2.150   1.436  1.00  0.00    -0.300 OA
ENDBRANCH   1   2
BRANCH   1   5
ATOM      5  C   UNL     1       7.281   1.003  -0.323  1.00  0.00     0.043 C 
BRANCH   5   6
ATOM      6  C   UNL     1       7.627  -0.301  -0.915  1.00  0.00    -0.044 A 
ATOM      7  C   UNL     1       7.631  -0.499  -2.300  1.00  0.00     0.008 A 
ATOM      8  C   UNL     1       7.959  -1.356  -0.095  1.00  0.00     0.054 A 
ATOM      9  C   UNL     1       7.965  -1.745  -2.799  1.00  0.00     0.051 A 
ATOM     10  C   UNL     1       8.297  -2.613  -0.604  1.00  0.00     0.166 A 
ATOM     11  C   UNL     1       8.299  -2.810  -1.967  1.00  0.00     0.165 A 
ATOM     12  O   UNL     1       8.657  -3.803  -0.008  1.00  0.00    -0.454 OA
ATOM     13  O   UNL     1       8.666  -4.129  -2.182  1.00  0.00    -0.454 OA
ATOM     14  C   UNL     1       8.991  -4.769  -0.971  1.00  0.00     0.468 C 
ENDBRANCH   5   6
ENDBRANCH   1   5
TORSDOF 3
ENDMDL
MODEL 3
REMARK VINA RESULT:      -7.2      2.037      2.584
REMARK SMILES CC(=O)CCc1ccc2c(c1)OCO2
REMARK SMILES IDX 4 1 2 2 1 3 3 4 5 5 6 6 7 7 11 8 8 9 10 10 9 11 12 12 14 13
REMARK SMILES IDX 13 14
REMARK H PARENT
REMARK Flexibility Score: inf
ROOT
ATOM      1  C   UNL     1       5.469  -0.009   2.034  1.00  0.00     0.080 C 
ENDROOT
BRANCH   1   2
ATOM      2  C   UNL     1       4.573   1.152   1.774  1.00  0.00     0.130 C 
ATOM      3  C   UNL     1       4.873   2.147   0.709  1.00  0.00     0.087 C 
ATOM      4  O   UNL     1       3.560   1.322   2.433  1.00  0.00    -0.300 OA
ENDBRANCH   1   2
BRANCH   1   5
ATOM      5  C   UNL     1       6.882   0.269   1.559  1.00  0.00     0.043 C 
BRANCH   5   6
ATOM      6  C   UNL     1       7.299  -0.673   0.505  1.00  0.00    -0.044 A 
ATOM      7  C   UNL     1       7.177  -0.356  -0.852  1.00  0.00     0.008 A 
ATOM      8  C   UNL     1       7.826  -1.897   0.853  1.00  0.00     0.054 A 
ATOM      9  C   UNL     1       7.586  -1.279  -1.797  1.00  0.00     0.051 A 
ATOM     10  C   UNL     1       8.239  -2.827  -0.106  1.00  0.00     0.166 A 
ATOM     11  C   UNL     1       8.117  -2.515  -1.442  1.00  0.00     0.165 A 
ATOM     12  O   UNL     1       8.784  -4.090  -0.016  1.00  0.00    -0.454 OA
ATOM     13  O   UNL     1       8.597  -3.605  -2.152  1.00  0.00    -0.454 OA
ATOM     14  C   UNL     1       9.113  -4.588  -1.287  1.00  0.00     0.468 C 
ENDBRANCH   5   6
ENDBRANCH   1   5
TORSDOF 3
ENDMDL
MODEL 4
REMARK VINA RESULT:      -7.1      1.225      1.408
REMARK SMILES CC(=O)CCc1ccc2c(c1)OCO2
REMARK SMILES IDX 4 1 2 2 1 3 3 4 5 5 6 6 7 7 11 8 8 9 10 10 9 11 12 12 14 13
REMARK SMILES IDX 13 14
REMARK H PARENT
REMARK Flexibility Score: inf
ROOT
ATOM      1  C   UNL     1       6.349   1.246   0.867  1.00  0.00     0.080 C 
ENDROOT
BRANCH   1   2
ATOM      2  C   UNL     1       5.661   0.434   1.909  1.00  0.00     0.130 C 
ATOM      3  C   UNL     1       6.279  -0.794   2.476  1.00  0.00     0.087 C 
ATOM      4  O   UNL     1       4.562   0.757   2.330  1.00  0.00    -0.300 OA
ENDBRANCH   1   2
BRANCH   1   5
ATOM      5  C   UNL     1       5.836   0.911  -0.520  1.00  0.00     0.043 C 
BRANCH   5   6
ATOM      6  C   UNL     1       6.803   0.097  -1.278  1.00  0.00    -0.044 A 
ATOM      7  C   UNL     1       7.520   0.628  -2.357  1.00  0.00     0.008 A 
ATOM      8  C   UNL     1       7.016  -1.215  -0.924  1.00  0.00     0.054 A 
ATOM      9  C   UNL     1       8.415  -0.183  -3.031  1.00  0.00     0.051 A 
ATOM     10  C   UNL     1       7.923  -2.031  -1.608  1.00  0.00     0.166 A 
ATOM     11  C   UNL     1       8.627  -1.510  -2.671  1.00  0.00     0.165 A 
ATOM     12  O   UNL     1       8.306  -3.346  -1.453  1.00  0.00    -0.454 OA
ATOM     13  O   UNL     1       9.438  -2.527  -3.151  1.00  0.00    -0.454 OA
ATOM     14  C   UNL     1       9.333  -3.681  -2.351  1.00  0.00     0.468 C 
ENDBRANCH   5   6
ENDBRANCH   1   5
TORSDOF 3
ENDMDL
MODEL 5
REMARK VINA RESULT:      -7.1      1.976      2.505
REMARK SMILES CC(=O)CCc1ccc2c(c1)OCO2
REMARK SMILES IDX 4 1 2 2 1 3 3 4 5 5 6 6 7 7 11 8 8 9 10 10 9 11 12 12 14 13
REMARK SMILES IDX 13 14
REMARK H PARENT
REMARK Flexibility Score: inf
ROOT
ATOM      1  C   UNL     1       6.734   0.653   1.387  1.00  0.00     0.080 C 
ENDROOT
BRANCH   1   2
ATOM      2  C   UNL     1       5.315   1.101   1.455  1.00  0.00     0.130 C 
ATOM      3  C   UNL     1       4.779   2.139   0.534  1.00  0.00     0.087 C 
ATOM      4  O   UNL     1       4.546   0.626   2.275  1.00  0.00    -0.300 OA
ENDBRANCH   1   2
BRANCH   1   5
ATOM      5  C   UNL     1       7.332   0.924   0.021  1.00  0.00     0.043 C 
BRANCH   5   6
ATOM      6  C   UNL     1       7.710  -0.323  -0.668  1.00  0.00    -0.044 A 
ATOM      7  C   UNL     1       7.816  -0.387  -2.062  1.00  0.00     0.008 A 
ATOM      8  C   UNL     1       7.969  -1.457   0.068  1.00  0.00     0.054 A 
ATOM      9  C   UNL     1       8.176  -1.585  -2.653  1.00  0.00     0.051 A 
ATOM     10  C   UNL     1       8.333  -2.665  -0.534  1.00  0.00     0.166 A 
ATOM     11  C   UNL     1       8.436  -2.729  -1.906  1.00  0.00     0.165 A 
ATOM     12  O   UNL     1       8.636  -3.912  -0.031  1.00  0.00    -0.454 OA
ATOM     13  O   UNL     1       8.806  -4.028  -2.219  1.00  0.00    -0.454 OA
ATOM     14  C   UNL     1       9.032  -4.787  -1.056  1.00  0.00     0.468 C 
ENDBRANCH   5   6
ENDBRANCH   1   5
TORSDOF 3
ENDMDL
