@<TRIPOS>MOLECULE
/home/cewinharhar/GITHUB/reincatalyze/data/processed/docking_pred/2023-May-31-1438_sub9_nm5_bs15_s42_ex16_mel10_mts1000_k50_ec05_g099_lra9e-4_lrc3e-3/54a2e3ceee1b2a6ac8591f20fd198e2f201bb612_ligand_9.pdbqt
 14 15 0 0 0
SMALL
GASTEIGER

@<TRIPOS>ATOM
      1  C          5.5330    0.0100    1.9610 C.3     1  UNL1        0.0800
      2  C          4.6490    1.1670    1.6480 C.2     1  UNL1        0.1300
      3  C          4.9740    2.1250    0.5570 C.3     1  UNL1        0.0870
      4  O          3.6260    1.3650    2.2830 O.2     1  UNL1       -0.3000
      5  C          6.9530    0.2600    1.4950 C.3     1  UNL1        0.0430
      6  C          7.3610   -0.6950    0.4490 C.2     1  UNL1       -0.0440
      7  C          7.2490   -0.3840   -0.9110 C.2     1  UNL1        0.0080
      8  C          7.8690   -1.9230    0.8060 C.2     1  UNL1        0.0540
      9  C          7.6480   -1.3190   -1.8490 C.2     1  UNL1        0.0510
     10  C          8.2720   -2.8650   -0.1460 C.2     1  UNL1        0.1660
     11  C          8.1600   -2.5600   -1.4840 C.2     1  UNL1        0.1650
     12  O          8.7990   -4.1350   -0.0460 O.2     1  UNL1       -0.4540
     13  O          8.6270   -3.6610   -2.1860 O.2     1  UNL1       -0.4540
     14  C          9.1260   -4.6460   -1.3130 C.3     1  UNL1        0.4680
@<TRIPOS>BOND
     1    13    11    1
     2    13    14    1
     3     9    11    2
     4     9     7    1
     5    11    10    1
     6    14    12    1
     7     7     6    2
     8    10    12    1
     9    10     8    2
    10     6     8    1
    11     6     5    1
    12     3     2    1
    13     5     1    1
    14     2     1    1
    15     2     4    2
