@<TRIPOS>MOLECULE
/home/cewinharhar/GITHUB/reincatalyze/data/processed/docking_pred/2023-May-31-1438_sub9_nm5_bs15_s42_ex16_mel10_mts1000_k50_ec05_g099_lra9e-4_lrc3e-3/54a2e3ceee1b2a6ac8591f20fd198e2f201bb612_ligand_9.pdbqt
 14 15 0 0 0
SMALL
GASTEIGER

@<TRIPOS>ATOM
      1  C          5.9210    1.3390   -0.2090 C.3     1  UNL1        0.0800
      2  C          5.2320    1.2350    1.1070 C.2     1  UNL1        0.1300
      3  C          5.3510    0.0190    1.9570 C.3     1  UNL1        0.0870
      4  O          4.5440    2.1500    1.5290 O.2     1  UNL1       -0.3000
      5  C          7.3930    0.9980   -0.0880 C.3     1  UNL1        0.0430
      6  C          7.7130   -0.2830   -0.7420 C.2     1  UNL1       -0.0440
      7  C          7.7170   -0.4140   -2.1350 C.2     1  UNL1        0.0080
      8  C          8.0190   -1.3840    0.0260 C.2     1  UNL1        0.0540
      9  C          8.0250   -1.6420   -2.6930 C.2     1  UNL1        0.0510
     10  C          8.3310   -2.6220   -0.5430 C.2     1  UNL1        0.1660
     11  C          8.3330   -2.7520   -1.9140 C.2     1  UNL1        0.1650
     12  O          8.6630   -3.8470   -0.0040 O.2     1  UNL1       -0.4540
     13  O          8.6720   -4.0670   -2.1910 O.2     1  UNL1       -0.4540
     14  C          8.9780   -4.7730   -1.0120 C.3     1  UNL1        0.4680
@<TRIPOS>BOND
     1     9     7    1
     2     9    11    2
     3    13    11    1
     4    13    14    1
     5     7     6    2
     6    11    10    1
     7    14    12    1
     8     6     5    1
     9     6     8    1
    10    10    12    1
    11    10     8    2
    12     1     5    1
    13     1     2    1
    14     2     4    2
    15     2     3    1
