@<TRIPOS>MOLECULE
/home/cewinharhar/GITHUB/reincatalyze/data/processed/docking_pred/2023-May-31-1438_sub9_nm5_bs15_s42_ex16_mel10_mts1000_k50_ec05_g099_lra9e-4_lrc3e-3/551c5941f3bf749be32b1159c48b101be233bdbe_ligand_9.pdbqt
 14 15 0 0 0
SMALL
GASTEIGER

@<TRIPOS>ATOM
      1  C          6.3380    1.2640    0.8930 C.3     1  UNL1        0.0800
      2  C          5.6550    0.4290    1.9210 C.2     1  UNL1        0.1300
      3  C          6.3020   -0.7770    2.5020 C.3     1  UNL1        0.0870
      4  O          4.5370    0.7140    2.3170 O.2     1  UNL1       -0.3000
      5  C          5.8230    0.9540   -0.4990 C.3     1  UNL1        0.0430
      6  C          6.7800    0.1370   -1.2660 C.2     1  UNL1       -0.0440
      7  C          7.4730    0.6600   -2.3640 C.2     1  UNL1        0.0080
      8  C          7.0080   -1.1700   -0.9020 C.2     1  UNL1        0.0540
      9  C          8.3600   -0.1530   -3.0470 C.2     1  UNL1        0.0510
     10  C          7.9060   -1.9880   -1.5950 C.2     1  UNL1        0.1660
     11  C          8.5870   -1.4750   -2.6760 C.2     1  UNL1        0.1650
     12  O          8.3000   -3.2990   -1.4330 O.2     1  UNL1       -0.4540
     13  O          9.3950   -2.4920   -3.1600 O.2     1  UNL1       -0.4540
     14  C          9.3110   -3.6380   -2.3460 C.3     1  UNL1        0.4680
@<TRIPOS>BOND
     1    13    11    1
     2    13    14    1
     3     9    11    2
     4     9     7    1
     5    11    10    1
     6     7     6    2
     7    14    12    1
     8    10    12    1
     9    10     8    2
    10     6     8    1
    11     6     5    1
    12     5     1    1
    13     1     2    1
    14     2     4    2
    15     2     3    1
