@<TRIPOS>MOLECULE
/home/cewinharhar/GITHUB/reincatalyze/data/processed/docking_pred/2023-May-31-1438_sub9_nm5_bs15_s42_ex16_mel10_mts1000_k50_ec05_g099_lra9e-4_lrc3e-3/551c5941f3bf749be32b1159c48b101be233bdbe_ligand_9.pdbqt
 14 15 0 0 0
SMALL
GASTEIGER

@<TRIPOS>ATOM
      1  C          5.5450    1.9180    1.2760 C.3     1  UNL1        0.0800
      2  C          5.1080    0.7000    2.0130 C.2     1  UNL1        0.1300
      3  C          6.0080   -0.4710    2.1910 C.3     1  UNL1        0.0870
      4  O          3.9890    0.6270    2.4950 O.2     1  UNL1       -0.3000
      5  C          5.4140    1.7310   -0.2230 C.3     1  UNL1        0.0430
      6  C          6.5790    1.0270   -0.7890 C.2     1  UNL1       -0.0440
      7  C          7.8870    1.4550   -0.5390 C.2     1  UNL1        0.0080
      8  C          6.3860   -0.0810   -1.5830 C.2     1  UNL1        0.0540
      9  C          8.9410    0.7550   -1.0970 C.2     1  UNL1        0.0510
     10  C          7.4550   -0.7860   -2.1450 C.2     1  UNL1        0.1660
     11  C          8.7430   -0.3650   -1.9000 C.2     1  UNL1        0.1650
     12  O          7.5240   -1.8990   -2.9550 O.2     1  UNL1       -0.4540
     13  O          9.5850   -1.2370   -2.5720 O.2     1  UNL1       -0.4540
     14  C          8.8570   -2.2780   -3.1790 C.3     1  UNL1        0.4680
@<TRIPOS>BOND
     1    14    12    1
     2    14    13    1
     3    12    10    1
     4    13    11    1
     5    10    11    2
     6    10     8    1
     7    11     9    1
     8     8     6    2
     9     9     7    2
    10     6     7    1
    11     6     5    1
    12     5     1    1
    13     1     2    1
    14     2     3    1
    15     2     4    2
