@<TRIPOS>MOLECULE
/home/cewinharhar/GITHUB/reincatalyze/data/processed/docking_pred/2023-May-31-1438_sub9_nm5_bs15_s42_ex16_mel10_mts1000_k50_ec05_g099_lra9e-4_lrc3e-3/551c5941f3bf749be32b1159c48b101be233bdbe_ligand_9.pdbqt
 14 15 0 0 0
SMALL
GASTEIGER

@<TRIPOS>ATOM
      1  C          5.3210   -0.0870    1.9360 C.3     1  UNL1        0.0800
      2  C          4.4460    1.1090    1.7840 C.2     1  UNL1        0.1300
      3  C          4.7180    2.1500    0.7570 C.3     1  UNL1        0.0870
      4  O          3.4730    1.2690    2.5030 O.2     1  UNL1       -0.3000
      5  C          6.7870    0.2950    1.8930 C.3     1  UNL1        0.0430
      6  C          7.4050   -0.0530    0.6010 C.2     1  UNL1       -0.0440
      7  C          7.9160    0.9290   -0.2550 C.2     1  UNL1        0.0080
      8  C          7.4880   -1.3720    0.2180 C.2     1  UNL1        0.0540
      9  C          8.4850    0.5430   -1.4550 C.2     1  UNL1        0.0510
     10  C          8.0660   -1.7580   -0.9950 C.2     1  UNL1        0.1660
     11  C          8.5680   -0.7920   -1.8390 C.2     1  UNL1        0.1650
     12  O          8.2640   -2.9830   -1.5940 O.2     1  UNL1       -0.4540
     13  O          9.0710   -1.4520   -2.9490 O.2     1  UNL1       -0.4540
     14  C          8.9810   -2.8480   -2.7950 C.3     1  UNL1        0.4680
@<TRIPOS>BOND
     1    13    14    1
     2    13    11    1
     3    14    12    1
     4    11     9    2
     5    11    10    1
     6    12    10    1
     7     9     7    1
     8    10     8    2
     9     7     6    2
    10     8     6    1
    11     6     5    1
    12     3     2    1
    13     2     1    1
    14     2     4    2
    15     5     1    1
