@<TRIPOS>MOLECULE
/home/cewinharhar/GITHUB/reincatalyze/data/processed/docking_pred/2023-May-31-1438_sub9_nm5_bs15_s42_ex16_mel10_mts1000_k50_ec05_g099_lra9e-4_lrc3e-3/551c5941f3bf749be32b1159c48b101be233bdbe_ligand_9.pdbqt
 14 15 0 0 0
SMALL
GASTEIGER

@<TRIPOS>ATOM
      1  C          5.6030    0.0220    1.9420 C.3     1  UNL1        0.0800
      2  C          4.6870    1.1530    1.6280 C.2     1  UNL1        0.1300
      3  C          4.9470    2.0750    0.4890 C.3     1  UNL1        0.0870
      4  O          3.6900    1.3590    2.3010 O.2     1  UNL1       -0.3000
      5  C          7.0030    0.2870    1.4250 C.3     1  UNL1        0.0430
      6  C          7.3990   -0.6910    0.3960 C.2     1  UNL1       -0.0440
      7  C          7.2890   -0.4030   -0.9690 C.2     1  UNL1        0.0080
      8  C          7.8930   -1.9180    0.7750 C.2     1  UNL1        0.0540
      9  C          7.6770   -1.3590   -1.8900 C.2     1  UNL1        0.0510
     10  C          8.2850   -2.8810   -0.1600 C.2     1  UNL1        0.1660
     11  C          8.1760   -2.6000   -1.5030 C.2     1  UNL1        0.1650
     12  O          8.7980   -4.1550   -0.0370 O.2     1  UNL1       -0.4540
     13  O          8.6300   -3.7180   -2.1850 O.2     1  UNL1       -0.4540
     14  C          9.1190   -4.6920   -1.2950 C.3     1  UNL1        0.4680
@<TRIPOS>BOND
     1    13    11    1
     2    13    14    1
     3     9    11    2
     4     9     7    1
     5    11    10    1
     6    14    12    1
     7     7     6    2
     8    10    12    1
     9    10     8    2
    10     6     8    1
    11     6     5    1
    12     3     2    1
    13     5     1    1
    14     2     1    1
    15     2     4    2
