MODEL 1
REMARK VINA RESULT:      -7.6      0.000      0.000
REMARK SMILES CC(=O)CCc1ccc2c(c1)OCO2
REMARK SMILES IDX 4 1 2 2 1 3 3 4 5 5 6 6 7 7 11 8 8 9 10 10 9 11 12 12 14 13
REMARK SMILES IDX 13 14
REMARK H PARENT
REMARK Flexibility Score: inf
ROOT
ATOM      1  C   UNL     1       5.545   1.918   1.276  1.00  0.00     0.080 C 
ENDROOT
BRANCH   1   2
ATOM      2  C   UNL     1       5.108   0.700   2.013  1.00  0.00     0.130 C 
ATOM      3  C   UNL     1       6.008  -0.471   2.191  1.00  0.00     0.087 C 
ATOM      4  O   UNL     1       3.989   0.627   2.495  1.00  0.00    -0.300 OA
ENDBRANCH   1   2
BRANCH   1   5
ATOM      5  C   UNL     1       5.414   1.731  -0.223  1.00  0.00     0.043 C 
BRANCH   5   6
ATOM      6  C   UNL     1       6.579   1.027  -0.789  1.00  0.00    -0.044 A 
ATOM      7  C   UNL     1       7.887   1.455  -0.539  1.00  0.00     0.008 A 
ATOM      8  C   UNL     1       6.386  -0.081  -1.583  1.00  0.00     0.054 A 
ATOM      9  C   UNL     1       8.941   0.755  -1.097  1.00  0.00     0.051 A 
ATOM     10  C   UNL     1       7.455  -0.786  -2.145  1.00  0.00     0.166 A 
ATOM     11  C   UNL     1       8.743  -0.365  -1.900  1.00  0.00     0.165 A 
ATOM     12  O   UNL     1       7.524  -1.899  -2.955  1.00  0.00    -0.454 OA
ATOM     13  O   UNL     1       9.585  -1.237  -2.572  1.00  0.00    -0.454 OA
ATOM     14  C   UNL     1       8.857  -2.278  -3.179  1.00  0.00     0.468 C 
ENDBRANCH   5   6
ENDBRANCH   1   5
TORSDOF 3
ENDMDL
MODEL 2
REMARK VINA RESULT:      -7.4      1.939      2.381
REMARK SMILES CC(=O)CCc1ccc2c(c1)OCO2
REMARK SMILES IDX 4 1 2 2 1 3 3 4 5 5 6 6 7 7 11 8 8 9 10 10 9 11 12 12 14 13
REMARK SMILES IDX 13 14
REMARK H PARENT
REMARK Flexibility Score: inf
ROOT
ATOM      1  C   UNL     1       5.747   1.320  -0.246  1.00  0.00     0.080 C 
ENDROOT
BRANCH   1   2
ATOM      2  C   UNL     1       5.104   1.243   1.096  1.00  0.00     0.130 C 
ATOM      3  C   UNL     1       5.328   0.086   2.003  1.00  0.00     0.087 C 
ATOM      4  O   UNL     1       4.370   2.134   1.491  1.00  0.00    -0.300 OA
ENDBRANCH   1   2
BRANCH   1   5
ATOM      5  C   UNL     1       7.239   1.067  -0.157  1.00  0.00     0.043 C 
BRANCH   5   6
ATOM      6  C   UNL     1       7.616  -0.208  -0.792  1.00  0.00    -0.044 A 
ATOM      7  C   UNL     1       7.702  -0.337  -2.183  1.00  0.00     0.008 A 
ATOM      8  C   UNL     1       7.894  -1.304  -0.008  1.00  0.00     0.054 A 
ATOM      9  C   UNL     1       8.062  -1.559  -2.722  1.00  0.00     0.051 A 
ATOM     10  C   UNL     1       8.258  -2.537  -0.558  1.00  0.00     0.166 A 
ATOM     11  C   UNL     1       8.342  -2.665  -1.926  1.00  0.00     0.165 A 
ATOM     12  O   UNL     1       8.578  -3.757  -0.001  1.00  0.00    -0.454 OA
ATOM     13  O   UNL     1       8.717  -3.975  -2.184  1.00  0.00    -0.454 OA
ATOM     14  C   UNL     1       8.965  -4.677  -0.989  1.00  0.00     0.468 C 
ENDBRANCH   5   6
ENDBRANCH   1   5
TORSDOF 3
ENDMDL
MODEL 3
REMARK VINA RESULT:      -7.2      2.092      2.624
REMARK SMILES CC(=O)CCc1ccc2c(c1)OCO2
REMARK SMILES IDX 4 1 2 2 1 3 3 4 5 5 6 6 7 7 11 8 8 9 10 10 9 11 12 12 14 13
REMARK SMILES IDX 13 14
REMARK H PARENT
REMARK Flexibility Score: inf
ROOT
ATOM      1  C   UNL     1       5.603   0.022   1.942  1.00  0.00     0.080 C 
ENDROOT
BRANCH   1   2
ATOM      2  C   UNL     1       4.687   1.153   1.628  1.00  0.00     0.130 C 
ATOM      3  C   UNL     1       4.947   2.075   0.489  1.00  0.00     0.087 C 
ATOM      4  O   UNL     1       3.690   1.359   2.301  1.00  0.00    -0.300 OA
ENDBRANCH   1   2
BRANCH   1   5
ATOM      5  C   UNL     1       7.003   0.287   1.425  1.00  0.00     0.043 C 
BRANCH   5   6
ATOM      6  C   UNL     1       7.399  -0.691   0.396  1.00  0.00    -0.044 A 
ATOM      7  C   UNL     1       7.289  -0.403  -0.969  1.00  0.00     0.008 A 
ATOM      8  C   UNL     1       7.893  -1.918   0.775  1.00  0.00     0.054 A 
ATOM      9  C   UNL     1       7.677  -1.359  -1.890  1.00  0.00     0.051 A 
ATOM     10  C   UNL     1       8.285  -2.881  -0.160  1.00  0.00     0.166 A 
ATOM     11  C   UNL     1       8.176  -2.600  -1.503  1.00  0.00     0.165 A 
ATOM     12  O   UNL     1       8.798  -4.155  -0.037  1.00  0.00    -0.454 OA
ATOM     13  O   UNL     1       8.630  -3.718  -2.185  1.00  0.00    -0.454 OA
ATOM     14  C   UNL     1       9.119  -4.692  -1.295  1.00  0.00     0.468 C 
ENDBRANCH   5   6
ENDBRANCH   1   5
TORSDOF 3
ENDMDL
MODEL 4
REMARK VINA RESULT:      -7.1      1.239      1.430
REMARK SMILES CC(=O)CCc1ccc2c(c1)OCO2
REMARK SMILES IDX 4 1 2 2 1 3 3 4 5 5 6 6 7 7 11 8 8 9 10 10 9 11 12 12 14 13
REMARK SMILES IDX 13 14
REMARK H PARENT
REMARK Flexibility Score: inf
ROOT
ATOM      1  C   UNL     1       6.338   1.264   0.893  1.00  0.00     0.080 C 
ENDROOT
BRANCH   1   2
ATOM      2  C   UNL     1       5.655   0.429   1.921  1.00  0.00     0.130 C 
ATOM      3  C   UNL     1       6.302  -0.777   2.502  1.00  0.00     0.087 C 
ATOM      4  O   UNL     1       4.537   0.714   2.317  1.00  0.00    -0.300 OA
ENDBRANCH   1   2
BRANCH   1   5
ATOM      5  C   UNL     1       5.823   0.954  -0.499  1.00  0.00     0.043 C 
BRANCH   5   6
ATOM      6  C   UNL     1       6.780   0.137  -1.266  1.00  0.00    -0.044 A 
ATOM      7  C   UNL     1       7.473   0.660  -2.364  1.00  0.00     0.008 A 
ATOM      8  C   UNL     1       7.008  -1.170  -0.902  1.00  0.00     0.054 A 
ATOM      9  C   UNL     1       8.360  -0.153  -3.047  1.00  0.00     0.051 A 
ATOM     10  C   UNL     1       7.906  -1.988  -1.595  1.00  0.00     0.166 A 
ATOM     11  C   UNL     1       8.587  -1.475  -2.676  1.00  0.00     0.165 A 
ATOM     12  O   UNL     1       8.300  -3.299  -1.433  1.00  0.00    -0.454 OA
ATOM     13  O   UNL     1       9.395  -2.492  -3.160  1.00  0.00    -0.454 OA
ATOM     14  C   UNL     1       9.311  -3.638  -2.346  1.00  0.00     0.468 C 
ENDBRANCH   5   6
ENDBRANCH   1   5
TORSDOF 3
ENDMDL
MODEL 5
REMARK VINA RESULT:      -6.8      1.257      1.750
REMARK SMILES CC(=O)CCc1ccc2c(c1)OCO2
REMARK SMILES IDX 4 1 2 2 1 3 3 4 5 5 6 6 7 7 11 8 8 9 10 10 9 11 12 12 14 13
REMARK SMILES IDX 13 14
REMARK H PARENT
REMARK Flexibility Score: inf
ROOT
ATOM      1  C   UNL     1       5.321  -0.087   1.936  1.00  0.00     0.080 C 
ENDROOT
BRANCH   1   2
ATOM      2  C   UNL     1       4.446   1.109   1.784  1.00  0.00     0.130 C 
ATOM      3  C   UNL     1       4.718   2.150   0.757  1.00  0.00     0.087 C 
ATOM      4  O   UNL     1       3.473   1.269   2.503  1.00  0.00    -0.300 OA
ENDBRANCH   1   2
BRANCH   1   5
ATOM      5  C   UNL     1       6.787   0.295   1.893  1.00  0.00     0.043 C 
BRANCH   5   6
ATOM      6  C   UNL     1       7.405  -0.053   0.601  1.00  0.00    -0.044 A 
ATOM      7  C   UNL     1       7.916   0.929  -0.255  1.00  0.00     0.008 A 
ATOM      8  C   UNL     1       7.488  -1.372   0.218  1.00  0.00     0.054 A 
ATOM      9  C   UNL     1       8.485   0.543  -1.455  1.00  0.00     0.051 A 
ATOM     10  C   UNL     1       8.066  -1.758  -0.995  1.00  0.00     0.166 A 
ATOM     11  C   UNL     1       8.568  -0.792  -1.839  1.00  0.00     0.165 A 
ATOM     12  O   UNL     1       8.264  -2.983  -1.594  1.00  0.00    -0.454 OA
ATOM     13  O   UNL     1       9.071  -1.452  -2.949  1.00  0.00    -0.454 OA
ATOM     14  C   UNL     1       8.981  -2.848  -2.795  1.00  0.00     0.468 C 
ENDBRANCH   5   6
ENDBRANCH   1   5
TORSDOF 3
ENDMDL
