@<TRIPOS>MOLECULE
/home/cewinharhar/GITHUB/reincatalyze/data/processed/docking_pred/2023-May-31-1438_sub9_nm5_bs15_s42_ex16_mel10_mts1000_k50_ec05_g099_lra9e-4_lrc3e-3/551c5941f3bf749be32b1159c48b101be233bdbe_ligand_9.pdbqt
 14 15 0 0 0
SMALL
GASTEIGER

@<TRIPOS>ATOM
      1  C          5.7470    1.3200   -0.2460 C.3     1  UNL1        0.0800
      2  C          5.1040    1.2430    1.0960 C.2     1  UNL1        0.1300
      3  C          5.3280    0.0860    2.0030 C.3     1  UNL1        0.0870
      4  O          4.3700    2.1340    1.4910 O.2     1  UNL1       -0.3000
      5  C          7.2390    1.0670   -0.1570 C.3     1  UNL1        0.0430
      6  C          7.6160   -0.2080   -0.7920 C.2     1  UNL1       -0.0440
      7  C          7.7020   -0.3370   -2.1830 C.2     1  UNL1        0.0080
      8  C          7.8940   -1.3040   -0.0080 C.2     1  UNL1        0.0540
      9  C          8.0620   -1.5590   -2.7220 C.2     1  UNL1        0.0510
     10  C          8.2580   -2.5370   -0.5580 C.2     1  UNL1        0.1660
     11  C          8.3420   -2.6650   -1.9260 C.2     1  UNL1        0.1650
     12  O          8.5780   -3.7570   -0.0010 O.2     1  UNL1       -0.4540
     13  O          8.7170   -3.9750   -2.1840 O.2     1  UNL1       -0.4540
     14  C          8.9650   -4.6770   -0.9890 C.3     1  UNL1        0.4680
@<TRIPOS>BOND
     1     9     7    1
     2     9    11    2
     3    13    11    1
     4    13    14    1
     5     7     6    2
     6    11    10    1
     7    14    12    1
     8     6     5    1
     9     6     8    1
    10    10     8    2
    11    10    12    1
    12     1     5    1
    13     1     2    1
    14     2     4    2
    15     2     3    1
