MODEL 1
REMARK VINA RESULT:      -7.7      0.000      0.000
REMARK SMILES CC(=O)CCc1ccc2c(c1)OCO2
REMARK SMILES IDX 4 1 2 2 1 3 3 4 5 5 6 6 7 7 11 8 8 9 10 10 9 11 12 12 14 13
REMARK SMILES IDX 13 14
REMARK H PARENT
REMARK Flexibility Score: inf
ROOT
ATOM      1  C   UNL     1       5.507   1.927   1.257  1.00  0.00     0.080 C 
ENDROOT
BRANCH   1   2
ATOM      2  C   UNL     1       5.057   0.714   1.995  1.00  0.00     0.130 C 
ATOM      3  C   UNL     1       5.935  -0.476   2.149  1.00  0.00     0.087 C 
ATOM      4  O   UNL     1       3.946   0.663   2.498  1.00  0.00    -0.300 OA
ENDBRANCH   1   2
BRANCH   1   5
ATOM      5  C   UNL     1       5.386   1.736  -0.242  1.00  0.00     0.043 C 
BRANCH   5   6
ATOM      6  C   UNL     1       6.556   1.035  -0.800  1.00  0.00    -0.044 A 
ATOM      7  C   UNL     1       7.861   1.471  -0.546  1.00  0.00     0.008 A 
ATOM      8  C   UNL     1       6.372  -0.078  -1.588  1.00  0.00     0.054 A 
ATOM      9  C   UNL     1       8.921   0.772  -1.096  1.00  0.00     0.051 A 
ATOM     10  C   UNL     1       7.447  -0.782  -2.141  1.00  0.00     0.166 A 
ATOM     11  C   UNL     1       8.731  -0.353  -1.893  1.00  0.00     0.165 A 
ATOM     12  O   UNL     1       7.524  -1.899  -2.946  1.00  0.00    -0.454 OA
ATOM     13  O   UNL     1       9.580  -1.225  -2.556  1.00  0.00    -0.454 OA
ATOM     14  C   UNL     1       8.861  -2.272  -3.162  1.00  0.00     0.468 C 
ENDBRANCH   5   6
ENDBRANCH   1   5
TORSDOF 3
ENDMDL
MODEL 2
REMARK VINA RESULT:      -7.5      1.933      2.412
REMARK SMILES CC(=O)CCc1ccc2c(c1)OCO2
REMARK SMILES IDX 4 1 2 2 1 3 3 4 5 5 6 6 7 7 11 8 8 9 10 10 9 11 12 12 14 13
REMARK SMILES IDX 13 14
REMARK H PARENT
REMARK Flexibility Score: inf
ROOT
ATOM      1  C   UNL     1       5.689   1.196  -0.315  1.00  0.00     0.080 C 
ENDROOT
BRANCH   1   2
ATOM      2  C   UNL     1       5.157   1.204   1.077  1.00  0.00     0.130 C 
ATOM      3  C   UNL     1       5.392   0.070   2.009  1.00  0.00     0.087 C 
ATOM      4  O   UNL     1       4.508   2.150   1.494  1.00  0.00    -0.300 OA
ENDBRANCH   1   2
BRANCH   1   5
ATOM      5  C   UNL     1       7.197   1.040  -0.327  1.00  0.00     0.043 C 
BRANCH   5   6
ATOM      6  C   UNL     1       7.608  -0.246  -0.919  1.00  0.00    -0.044 A 
ATOM      7  C   UNL     1       7.711  -0.415  -2.305  1.00  0.00     0.008 A 
ATOM      8  C   UNL     1       7.903  -1.311  -0.099  1.00  0.00     0.054 A 
ATOM      9  C   UNL     1       8.103  -1.644  -2.803  1.00  0.00     0.051 A 
ATOM     10  C   UNL     1       8.299  -2.551  -0.608  1.00  0.00     0.166 A 
ATOM     11  C   UNL     1       8.399  -2.719  -1.971  1.00  0.00     0.165 A 
ATOM     12  O   UNL     1       8.641  -3.746  -0.011  1.00  0.00    -0.454 OA
ATOM     13  O   UNL     1       8.806  -4.027  -2.186  1.00  0.00    -0.454 OA
ATOM     14  C   UNL     1       9.058  -4.687  -0.968  1.00  0.00     0.468 C 
ENDBRANCH   5   6
ENDBRANCH   1   5
TORSDOF 3
ENDMDL
MODEL 3
REMARK VINA RESULT:      -7.2      2.096      2.649
REMARK SMILES CC(=O)CCc1ccc2c(c1)OCO2
REMARK SMILES IDX 4 1 2 2 1 3 3 4 5 5 6 6 7 7 11 8 8 9 10 10 9 11 12 12 14 13
REMARK SMILES IDX 13 14
REMARK H PARENT
REMARK Flexibility Score: inf
ROOT
ATOM      1  C   UNL     1       5.503  -0.027   1.940  1.00  0.00     0.080 C 
ENDROOT
BRANCH   1   2
ATOM      2  C   UNL     1       4.644   1.153   1.644  1.00  0.00     0.130 C 
ATOM      3  C   UNL     1       4.956   2.086   0.528  1.00  0.00     0.087 C 
ATOM      4  O   UNL     1       3.653   1.391   2.315  1.00  0.00    -0.300 OA
ENDBRANCH   1   2
BRANCH   1   5
ATOM      5  C   UNL     1       6.934   0.208   1.499  1.00  0.00     0.043 C 
BRANCH   5   6
ATOM      6  C   UNL     1       7.349  -0.747   0.456  1.00  0.00    -0.044 A 
ATOM      7  C   UNL     1       7.227  -0.445  -0.905  1.00  0.00     0.008 A 
ATOM      8  C   UNL     1       7.872  -1.967   0.818  1.00  0.00     0.054 A 
ATOM      9  C   UNL     1       7.634  -1.380  -1.839  1.00  0.00     0.051 A 
ATOM     10  C   UNL     1       8.283  -2.909  -0.130  1.00  0.00     0.166 A 
ATOM     11  C   UNL     1       8.162  -2.613  -1.470  1.00  0.00     0.165 A 
ATOM     12  O   UNL     1       8.826  -4.172  -0.026  1.00  0.00    -0.454 OA
ATOM     13  O   UNL     1       8.639  -3.712  -2.167  1.00  0.00    -0.454 OA
ATOM     14  C   UNL     1       9.154  -4.686  -1.291  1.00  0.00     0.468 C 
ENDBRANCH   5   6
ENDBRANCH   1   5
TORSDOF 3
ENDMDL
MODEL 4
REMARK VINA RESULT:      -7.1      1.267      1.485
REMARK SMILES CC(=O)CCc1ccc2c(c1)OCO2
REMARK SMILES IDX 4 1 2 2 1 3 3 4 5 5 6 6 7 7 11 8 8 9 10 10 9 11 12 12 14 13
REMARK SMILES IDX 13 14
REMARK H PARENT
REMARK Flexibility Score: inf
ROOT
ATOM      1  C   UNL     1       6.387   1.184   0.952  1.00  0.00     0.080 C 
ENDROOT
BRANCH   1   2
ATOM      2  C   UNL     1       5.648   0.368   1.955  1.00  0.00     0.130 C 
ATOM      3  C   UNL     1       6.238  -0.860   2.551  1.00  0.00     0.087 C 
ATOM      4  O   UNL     1       4.527   0.687   2.319  1.00  0.00    -0.300 OA
ENDBRANCH   1   2
BRANCH   1   5
ATOM      5  C   UNL     1       5.879   0.924  -0.452  1.00  0.00     0.043 C 
BRANCH   5   6
ATOM      6  C   UNL     1       6.818   0.094  -1.228  1.00  0.00    -0.044 A 
ATOM      7  C   UNL     1       7.485   0.598  -2.350  1.00  0.00     0.008 A 
ATOM      8  C   UNL     1       7.054  -1.207  -0.847  1.00  0.00     0.054 A 
ATOM      9  C   UNL     1       8.356  -0.227  -3.039  1.00  0.00     0.051 A 
ATOM     10  C   UNL     1       7.936  -2.037  -1.546  1.00  0.00     0.166 A 
ATOM     11  C   UNL     1       8.592  -1.542  -2.652  1.00  0.00     0.165 A 
ATOM     12  O   UNL     1       8.334  -3.345  -1.371  1.00  0.00    -0.454 OA
ATOM     13  O   UNL     1       9.388  -2.568  -3.137  1.00  0.00    -0.454 OA
ATOM     14  C   UNL     1       9.324  -3.700  -2.302  1.00  0.00     0.468 C 
ENDBRANCH   5   6
ENDBRANCH   1   5
TORSDOF 3
ENDMDL
MODEL 5
REMARK VINA RESULT:      -7.0      1.920      2.573
REMARK SMILES CC(=O)CCc1ccc2c(c1)OCO2
REMARK SMILES IDX 4 1 2 2 1 3 3 4 5 5 6 6 7 7 11 8 8 9 10 10 9 11 12 12 14 13
REMARK SMILES IDX 13 14
REMARK H PARENT
REMARK Flexibility Score: inf
ROOT
ATOM      1  C   UNL     1       6.600   1.133   1.154  1.00  0.00     0.080 C 
ENDROOT
BRANCH   1   2
ATOM      2  C   UNL     1       5.275   1.692   0.767  1.00  0.00     0.130 C 
ATOM      3  C   UNL     1       4.995   2.147  -0.622  1.00  0.00     0.087 C 
ATOM      4  O   UNL     1       4.374   1.793   1.584  1.00  0.00    -0.300 OA
ENDBRANCH   1   2
BRANCH   1   5
ATOM      5  C   UNL     1       7.602   1.258   0.024  1.00  0.00     0.043 C 
BRANCH   5   6
ATOM      6  C   UNL     1       7.841  -0.036  -0.640  1.00  0.00    -0.044 A 
ATOM      7  C   UNL     1       7.826  -0.158  -2.034  1.00  0.00     0.008 A 
ATOM      8  C   UNL     1       8.089  -1.157   0.119  1.00  0.00     0.054 A 
ATOM      9  C   UNL     1       8.058  -1.398  -2.601  1.00  0.00     0.051 A 
ATOM     10  C   UNL     1       8.323  -2.408  -0.459  1.00  0.00     0.166 A 
ATOM     11  C   UNL     1       8.307  -2.529  -1.831  1.00  0.00     0.165 A 
ATOM     12  O   UNL     1       8.588  -3.653   0.070  1.00  0.00    -0.454 OA
ATOM     13  O   UNL     1       8.566  -3.860  -2.118  1.00  0.00    -0.454 OA
ATOM     14  C   UNL     1       8.840  -4.590  -0.946  1.00  0.00     0.468 C 
ENDBRANCH   5   6
ENDBRANCH   1   5
TORSDOF 3
ENDMDL
