@<TRIPOS>MOLECULE
/home/cewinharhar/GITHUB/reincatalyze/data/processed/docking_pred/2023-May-31-1438_sub9_nm5_bs15_s42_ex16_mel10_mts1000_k50_ec05_g099_lra9e-4_lrc3e-3/55f9a48c22e019202c812c896c561d7470c53219_ligand_9.pdbqt
 14 15 0 0 0
SMALL
GASTEIGER

@<TRIPOS>ATOM
      1  C          5.4240   -0.0730    2.0130 C.3     1  UNL1        0.0800
      2  C          4.5740    1.1250    1.7670 C.2     1  UNL1        0.1300
      3  C          4.9140    2.1220    0.7170 C.3     1  UNL1        0.0870
      4  O          3.5660    1.3240    2.4260 O.2     1  UNL1       -0.3000
      5  C          6.8610    0.1780    1.5990 C.3     1  UNL1        0.0430
      6  C          7.2920   -0.7450    0.5340 C.2     1  UNL1       -0.0440
      7  C          7.1690   -0.4110   -0.8200 C.2     1  UNL1        0.0080
      8  C          7.8320   -1.9670    0.8660 C.2     1  UNL1        0.0540
      9  C          7.5910   -1.3170   -1.7760 C.2     1  UNL1        0.0510
     10  C          8.2580   -2.8790   -0.1040 C.2     1  UNL1        0.1660
     11  C          8.1360   -2.5510   -1.4360 C.2     1  UNL1        0.1650
     12  O          8.8190   -4.1360   -0.0300 O.2     1  UNL1       -0.4540
     13  O          8.6300   -3.6250   -2.1600 O.2     1  UNL1       -0.4540
     14  C          9.1570   -4.6130   -1.3070 C.3     1  UNL1        0.4680
@<TRIPOS>BOND
     1    13    11    1
     2    13    14    1
     3     9    11    2
     4     9     7    1
     5    11    10    1
     6    14    12    1
     7     7     6    2
     8    10    12    1
     9    10     8    2
    10     6     8    1
    11     6     5    1
    12     3     2    1
    13     5     1    1
    14     2     1    1
    15     2     4    2
