@<TRIPOS>MOLECULE
/home/cewinharhar/GITHUB/reincatalyze/data/processed/docking_pred/2023-May-31-1438_sub9_nm5_bs15_s42_ex16_mel10_mts1000_k50_ec05_g099_lra9e-4_lrc3e-3/55f9a48c22e019202c812c896c561d7470c53219_ligand_9.pdbqt
 14 15 0 0 0
SMALL
GASTEIGER

@<TRIPOS>ATOM
      1  C          6.3560    1.2370    0.8840 C.3     1  UNL1        0.0800
      2  C          5.6610    0.4200    1.9170 C.2     1  UNL1        0.1300
      3  C          6.2800   -0.8040    2.4920 C.3     1  UNL1        0.0870
      4  O          4.5540    0.7350    2.3240 O.2     1  UNL1       -0.3000
      5  C          5.8440    0.9190   -0.5060 C.3     1  UNL1        0.0430
      6  C          6.8050    0.1030   -1.2700 C.2     1  UNL1       -0.0440
      7  C          7.5090    0.6280   -2.3590 C.2     1  UNL1        0.0080
      8  C          7.0240   -1.2070   -0.9100 C.2     1  UNL1        0.0540
      9  C          8.3990   -0.1850   -3.0370 C.2     1  UNL1        0.0510
     10  C          7.9250   -2.0250   -1.5990 C.2     1  UNL1        0.1660
     11  C          8.6180   -1.5090   -2.6710 C.2     1  UNL1        0.1650
     12  O          8.3130   -3.3380   -1.4400 O.2     1  UNL1       -0.4540
     13  O          9.4260   -2.5270   -3.1530 O.2     1  UNL1       -0.4540
     14  C          9.3310   -3.6770   -2.3460 C.3     1  UNL1        0.4680
@<TRIPOS>BOND
     1    13    11    1
     2    13    14    1
     3     9    11    2
     4     9     7    1
     5    11    10    1
     6     7     6    2
     7    14    12    1
     8    10    12    1
     9    10     8    2
    10     6     8    1
    11     6     5    1
    12     5     1    1
    13     1     2    1
    14     2     4    2
    15     2     3    1
