MODEL 1
REMARK VINA RESULT:      -7.6      0.000      0.000
REMARK SMILES CC(=O)CCc1ccc2c(c1)OCO2
REMARK SMILES IDX 4 1 2 2 1 3 3 4 5 5 6 6 7 7 11 8 8 9 10 10 9 11 12 12 14 13
REMARK SMILES IDX 13 14
REMARK H PARENT
REMARK Flexibility Score: inf
ROOT
ATOM      1  C   UNL     1       5.581   1.871   1.280  1.00  0.00     0.080 C 
ENDROOT
BRANCH   1   2
ATOM      2  C   UNL     1       5.123   0.657   2.013  1.00  0.00     0.130 C 
ATOM      3  C   UNL     1       6.006  -0.525   2.195  1.00  0.00     0.087 C 
ATOM      4  O   UNL     1       4.000   0.599   2.488  1.00  0.00    -0.300 OA
ENDBRANCH   1   2
BRANCH   1   5
ATOM      5  C   UNL     1       5.441   1.694  -0.219  1.00  0.00     0.043 C 
BRANCH   5   6
ATOM      6  C   UNL     1       6.602   0.994  -0.797  1.00  0.00    -0.044 A 
ATOM      7  C   UNL     1       7.911   1.437  -0.574  1.00  0.00     0.008 A 
ATOM      8  C   UNL     1       6.406  -0.125  -1.575  1.00  0.00     0.054 A 
ATOM      9  C   UNL     1       8.961   0.739  -1.142  1.00  0.00     0.051 A 
ATOM     10  C   UNL     1       7.471  -0.827  -2.146  1.00  0.00     0.166 A 
ATOM     11  C   UNL     1       8.759  -0.391  -1.929  1.00  0.00     0.165 A 
ATOM     12  O   UNL     1       7.536  -1.949  -2.946  1.00  0.00    -0.454 OA
ATOM     13  O   UNL     1       9.597  -1.264  -2.605  1.00  0.00    -0.454 OA
ATOM     14  C   UNL     1       8.869  -2.319  -3.188  1.00  0.00     0.468 C 
ENDBRANCH   5   6
ENDBRANCH   1   5
TORSDOF 3
ENDMDL
MODEL 2
REMARK VINA RESULT:      -7.4      1.910      2.386
REMARK SMILES CC(=O)CCc1ccc2c(c1)OCO2
REMARK SMILES IDX 4 1 2 2 1 3 3 4 5 5 6 6 7 7 11 8 8 9 10 10 9 11 12 12 14 13
REMARK SMILES IDX 13 14
REMARK H PARENT
REMARK Flexibility Score: inf
ROOT
ATOM      1  C   UNL     1       5.792   1.358  -0.303  1.00  0.00     0.080 C 
ENDROOT
BRANCH   1   2
ATOM      2  C   UNL     1       5.153   1.276   1.040  1.00  0.00     0.130 C 
ATOM      3  C   UNL     1       5.411   0.135   1.959  1.00  0.00     0.087 C 
ATOM      4  O   UNL     1       4.394   2.149   1.428  1.00  0.00    -0.300 OA
ENDBRANCH   1   2
BRANCH   1   5
ATOM      5  C   UNL     1       7.278   1.071  -0.224  1.00  0.00     0.043 C 
BRANCH   5   6
ATOM      6  C   UNL     1       7.619  -0.219  -0.850  1.00  0.00    -0.044 A 
ATOM      7  C   UNL     1       7.640  -0.377  -2.241  1.00  0.00     0.008 A 
ATOM      8  C   UNL     1       7.928  -1.301  -0.058  1.00  0.00     0.054 A 
ATOM      9  C   UNL     1       7.968  -1.611  -2.771  1.00  0.00     0.051 A 
ATOM     10  C   UNL     1       8.260  -2.547  -0.599  1.00  0.00     0.166 A 
ATOM     11  C   UNL     1       8.280  -2.703  -1.967  1.00  0.00     0.165 A 
ATOM     12  O   UNL     1       8.600  -3.757  -0.033  1.00  0.00    -0.454 OA
ATOM     13  O   UNL     1       8.636  -4.019  -2.215  1.00  0.00    -0.454 OA
ATOM     14  C   UNL     1       8.937  -4.699  -1.020  1.00  0.00     0.468 C 
ENDBRANCH   5   6
ENDBRANCH   1   5
TORSDOF 3
ENDMDL
MODEL 3
REMARK VINA RESULT:      -7.2      2.047      2.614
REMARK SMILES CC(=O)CCc1ccc2c(c1)OCO2
REMARK SMILES IDX 4 1 2 2 1 3 3 4 5 5 6 6 7 7 11 8 8 9 10 10 9 11 12 12 14 13
REMARK SMILES IDX 13 14
REMARK H PARENT
REMARK Flexibility Score: inf
ROOT
ATOM      1  C   UNL     1       5.424  -0.073   2.013  1.00  0.00     0.080 C 
ENDROOT
BRANCH   1   2
ATOM      2  C   UNL     1       4.574   1.125   1.767  1.00  0.00     0.130 C 
ATOM      3  C   UNL     1       4.914   2.122   0.717  1.00  0.00     0.087 C 
ATOM      4  O   UNL     1       3.566   1.324   2.426  1.00  0.00    -0.300 OA
ENDBRANCH   1   2
BRANCH   1   5
ATOM      5  C   UNL     1       6.861   0.178   1.599  1.00  0.00     0.043 C 
BRANCH   5   6
ATOM      6  C   UNL     1       7.292  -0.745   0.534  1.00  0.00    -0.044 A 
ATOM      7  C   UNL     1       7.169  -0.411  -0.820  1.00  0.00     0.008 A 
ATOM      8  C   UNL     1       7.832  -1.967   0.866  1.00  0.00     0.054 A 
ATOM      9  C   UNL     1       7.591  -1.317  -1.776  1.00  0.00     0.051 A 
ATOM     10  C   UNL     1       8.258  -2.879  -0.104  1.00  0.00     0.166 A 
ATOM     11  C   UNL     1       8.136  -2.551  -1.436  1.00  0.00     0.165 A 
ATOM     12  O   UNL     1       8.819  -4.136  -0.030  1.00  0.00    -0.454 OA
ATOM     13  O   UNL     1       8.630  -3.625  -2.160  1.00  0.00    -0.454 OA
ATOM     14  C   UNL     1       9.157  -4.613  -1.307  1.00  0.00     0.468 C 
ENDBRANCH   5   6
ENDBRANCH   1   5
TORSDOF 3
ENDMDL
MODEL 4
REMARK VINA RESULT:      -7.1      1.229      1.415
REMARK SMILES CC(=O)CCc1ccc2c(c1)OCO2
REMARK SMILES IDX 4 1 2 2 1 3 3 4 5 5 6 6 7 7 11 8 8 9 10 10 9 11 12 12 14 13
REMARK SMILES IDX 13 14
REMARK H PARENT
REMARK Flexibility Score: inf
ROOT
ATOM      1  C   UNL     1       6.356   1.237   0.884  1.00  0.00     0.080 C 
ENDROOT
BRANCH   1   2
ATOM      2  C   UNL     1       5.661   0.420   1.917  1.00  0.00     0.130 C 
ATOM      3  C   UNL     1       6.280  -0.804   2.492  1.00  0.00     0.087 C 
ATOM      4  O   UNL     1       4.554   0.735   2.324  1.00  0.00    -0.300 OA
ENDBRANCH   1   2
BRANCH   1   5
ATOM      5  C   UNL     1       5.844   0.919  -0.506  1.00  0.00     0.043 C 
BRANCH   5   6
ATOM      6  C   UNL     1       6.805   0.103  -1.270  1.00  0.00    -0.044 A 
ATOM      7  C   UNL     1       7.509   0.628  -2.359  1.00  0.00     0.008 A 
ATOM      8  C   UNL     1       7.024  -1.207  -0.910  1.00  0.00     0.054 A 
ATOM      9  C   UNL     1       8.399  -0.185  -3.037  1.00  0.00     0.051 A 
ATOM     10  C   UNL     1       7.925  -2.025  -1.599  1.00  0.00     0.166 A 
ATOM     11  C   UNL     1       8.618  -1.509  -2.671  1.00  0.00     0.165 A 
ATOM     12  O   UNL     1       8.313  -3.338  -1.440  1.00  0.00    -0.454 OA
ATOM     13  O   UNL     1       9.426  -2.527  -3.153  1.00  0.00    -0.454 OA
ATOM     14  C   UNL     1       9.331  -3.677  -2.346  1.00  0.00     0.468 C 
ENDBRANCH   5   6
ENDBRANCH   1   5
TORSDOF 3
ENDMDL
MODEL 5
REMARK VINA RESULT:      -7.1      1.980      2.518
REMARK SMILES CC(=O)CCc1ccc2c(c1)OCO2
REMARK SMILES IDX 4 1 2 2 1 3 3 4 5 5 6 6 7 7 11 8 8 9 10 10 9 11 12 12 14 13
REMARK SMILES IDX 13 14
REMARK H PARENT
REMARK Flexibility Score: inf
ROOT
ATOM      1  C   UNL     1       6.713   0.690   1.393  1.00  0.00     0.080 C 
ENDROOT
BRANCH   1   2
ATOM      2  C   UNL     1       5.296   1.140   1.479  1.00  0.00     0.130 C 
ATOM      3  C   UNL     1       4.738   2.150   0.541  1.00  0.00     0.087 C 
ATOM      4  O   UNL     1       4.546   0.688   2.330  1.00  0.00    -0.300 OA
ENDBRANCH   1   2
BRANCH   1   5
ATOM      5  C   UNL     1       7.286   0.940   0.012  1.00  0.00     0.043 C 
BRANCH   5   6
ATOM      6  C   UNL     1       7.649  -0.318  -0.665  1.00  0.00    -0.044 A 
ATOM      7  C   UNL     1       7.680  -0.416  -2.061  1.00  0.00     0.008 A 
ATOM      8  C   UNL     1       7.970  -1.427   0.083  1.00  0.00     0.054 A 
ATOM      9  C   UNL     1       8.029  -1.623  -2.641  1.00  0.00     0.051 A 
ATOM     10  C   UNL     1       8.322  -2.644  -0.508  1.00  0.00     0.166 A 
ATOM     11  C   UNL     1       8.352  -2.743  -1.881  1.00  0.00     0.165 A 
ATOM     12  O   UNL     1       8.676  -3.872   0.009  1.00  0.00    -0.454 OA
ATOM     13  O   UNL     1       8.728  -4.042  -2.182  1.00  0.00    -0.454 OA
ATOM     14  C   UNL     1       9.032  -4.767  -1.014  1.00  0.00     0.468 C 
ENDBRANCH   5   6
ENDBRANCH   1   5
TORSDOF 3
ENDMDL
