@<TRIPOS>MOLECULE
/home/cewinharhar/GITHUB/reincatalyze/data/processed/docking_pred/2023-May-31-1438_sub9_nm5_bs15_s42_ex16_mel10_mts1000_k50_ec05_g099_lra9e-4_lrc3e-3/55f9a48c22e019202c812c896c561d7470c53219_ligand_9.pdbqt
 14 15 0 0 0
SMALL
GASTEIGER

@<TRIPOS>ATOM
      1  C          5.7920    1.3580   -0.3030 C.3     1  UNL1        0.0800
      2  C          5.1530    1.2760    1.0400 C.2     1  UNL1        0.1300
      3  C          5.4110    0.1350    1.9590 C.3     1  UNL1        0.0870
      4  O          4.3940    2.1490    1.4280 O.2     1  UNL1       -0.3000
      5  C          7.2780    1.0710   -0.2240 C.3     1  UNL1        0.0430
      6  C          7.6190   -0.2190   -0.8500 C.2     1  UNL1       -0.0440
      7  C          7.6400   -0.3770   -2.2410 C.2     1  UNL1        0.0080
      8  C          7.9280   -1.3010   -0.0580 C.2     1  UNL1        0.0540
      9  C          7.9680   -1.6110   -2.7710 C.2     1  UNL1        0.0510
     10  C          8.2600   -2.5470   -0.5990 C.2     1  UNL1        0.1660
     11  C          8.2800   -2.7030   -1.9670 C.2     1  UNL1        0.1650
     12  O          8.6000   -3.7570   -0.0330 O.2     1  UNL1       -0.4540
     13  O          8.6360   -4.0190   -2.2150 O.2     1  UNL1       -0.4540
     14  C          8.9370   -4.6990   -1.0200 C.3     1  UNL1        0.4680
@<TRIPOS>BOND
     1     9     7    1
     2     9    11    2
     3     7     6    2
     4    13    11    1
     5    13    14    1
     6    11    10    1
     7    14    12    1
     8     6     5    1
     9     6     8    1
    10    10     8    2
    11    10    12    1
    12     1     5    1
    13     1     2    1
    14     2     4    2
    15     2     3    1
