@<TRIPOS>MOLECULE
/home/cewinharhar/GITHUB/reincatalyze/data/processed/docking_pred/2023-May-31-1438_sub9_nm5_bs15_s42_ex16_mel10_mts1000_k50_ec05_g099_lra9e-4_lrc3e-3/5ba5439e64352188cd964ddb86dd28d806e95272_ligand_9.pdbqt
 14 15 0 0 0
SMALL
GASTEIGER

@<TRIPOS>ATOM
      1  C          5.5950    0.0520    1.9550 C.3     1  UNL1        0.0800
      2  C          4.6790    1.1800    1.6280 C.2     1  UNL1        0.1300
      3  C          4.9580    2.1120    0.5030 C.3     1  UNL1        0.0870
      4  O          3.6660    1.3730    2.2800 O.2     1  UNL1       -0.3000
      5  C          6.9970    0.3140    1.4410 C.3     1  UNL1        0.0430
      6  C          7.3930   -0.6630    0.4110 C.2     1  UNL1       -0.0440
      7  C          7.2850   -0.3740   -0.9540 C.2     1  UNL1        0.0080
      8  C          7.8840   -1.8920    0.7890 C.2     1  UNL1        0.0540
      9  C          7.6720   -1.3300   -1.8760 C.2     1  UNL1        0.0510
     10  C          8.2760   -2.8540   -0.1460 C.2     1  UNL1        0.1660
     11  C          8.1680   -2.5710   -1.4890 C.2     1  UNL1        0.1650
     12  O          8.7870   -4.1290   -0.0250 O.2     1  UNL1       -0.4540
     13  O          8.6210   -3.6890   -2.1720 O.2     1  UNL1       -0.4540
     14  C          9.1070   -4.6660   -1.2820 C.3     1  UNL1        0.4680
@<TRIPOS>BOND
     1    13    11    1
     2    13    14    1
     3     9    11    2
     4     9     7    1
     5    11    10    1
     6    14    12    1
     7     7     6    2
     8    10    12    1
     9    10     8    2
    10     6     8    1
    11     6     5    1
    12     3     2    1
    13     5     1    1
    14     2     1    1
    15     2     4    2
