MODEL 1
REMARK VINA RESULT:      -7.6      0.000      0.000
REMARK SMILES CC(=O)CCc1ccc2c(c1)OCO2
REMARK SMILES IDX 4 1 2 2 1 3 3 4 5 5 6 6 7 7 11 8 8 9 10 10 9 11 12 12 14 13
REMARK SMILES IDX 13 14
REMARK H PARENT
REMARK Flexibility Score: inf
ROOT
ATOM      1  C   UNL     1       5.525   1.927   1.252  1.00  0.00     0.080 C 
ENDROOT
BRANCH   1   2
ATOM      2  C   UNL     1       5.092   0.714   2.000  1.00  0.00     0.130 C 
ATOM      3  C   UNL     1       5.995  -0.454   2.184  1.00  0.00     0.087 C 
ATOM      4  O   UNL     1       3.975   0.643   2.487  1.00  0.00    -0.300 OA
ENDBRANCH   1   2
BRANCH   1   5
ATOM      5  C   UNL     1       5.398   1.725  -0.245  1.00  0.00     0.043 C 
BRANCH   5   6
ATOM      6  C   UNL     1       6.566   1.020  -0.803  1.00  0.00    -0.044 A 
ATOM      7  C   UNL     1       7.873   1.453  -0.549  1.00  0.00     0.008 A 
ATOM      8  C   UNL     1       6.379  -0.092  -1.591  1.00  0.00     0.054 A 
ATOM      9  C   UNL     1       8.930   0.751  -1.099  1.00  0.00     0.051 A 
ATOM     10  C   UNL     1       7.452  -0.799  -2.144  1.00  0.00     0.166 A 
ATOM     11  C   UNL     1       8.738  -0.373  -1.896  1.00  0.00     0.165 A 
ATOM     12  O   UNL     1       7.527  -1.916  -2.948  1.00  0.00    -0.454 OA
ATOM     13  O   UNL     1       9.585  -1.248  -2.559  1.00  0.00    -0.454 OA
ATOM     14  C   UNL     1       8.862  -2.294  -3.164  1.00  0.00     0.468 C 
ENDBRANCH   5   6
ENDBRANCH   1   5
TORSDOF 3
ENDMDL
MODEL 2
REMARK VINA RESULT:      -7.4      1.920      2.379
REMARK SMILES CC(=O)CCc1ccc2c(c1)OCO2
REMARK SMILES IDX 4 1 2 2 1 3 3 4 5 5 6 6 7 7 11 8 8 9 10 10 9 11 12 12 14 13
REMARK SMILES IDX 13 14
REMARK H PARENT
REMARK Flexibility Score: inf
ROOT
ATOM      1  C   UNL     1       5.794   1.410  -0.230  1.00  0.00     0.080 C 
ENDROOT
BRANCH   1   2
ATOM      2  C   UNL     1       5.116   1.276   1.090  1.00  0.00     0.130 C 
ATOM      3  C   UNL     1       5.378   0.121   1.989  1.00  0.00     0.087 C 
ATOM      4  O   UNL     1       4.319   2.118   1.473  1.00  0.00    -0.300 OA
ENDBRANCH   1   2
BRANCH   1   5
ATOM      5  C   UNL     1       7.272   1.091  -0.124  1.00  0.00     0.043 C 
BRANCH   5   6
ATOM      6  C   UNL     1       7.602  -0.193  -0.767  1.00  0.00    -0.044 A 
ATOM      7  C   UNL     1       7.586  -0.341  -2.159  1.00  0.00     0.008 A 
ATOM      8  C   UNL     1       7.938  -1.279   0.009  1.00  0.00     0.054 A 
ATOM      9  C   UNL     1       7.905  -1.570  -2.706  1.00  0.00     0.051 A 
ATOM     10  C   UNL     1       8.261  -2.519  -0.549  1.00  0.00     0.166 A 
ATOM     11  C   UNL     1       8.244  -2.666  -1.918  1.00  0.00     0.165 A 
ATOM     12  O   UNL     1       8.621  -3.731  -0.001  1.00  0.00    -0.454 OA
ATOM     13  O   UNL     1       8.599  -3.979  -2.185  1.00  0.00    -0.454 OA
ATOM     14  C   UNL     1       8.936  -4.664  -1.002  1.00  0.00     0.468 C 
ENDBRANCH   5   6
ENDBRANCH   1   5
TORSDOF 3
ENDMDL
MODEL 3
REMARK VINA RESULT:      -7.2      2.078      2.607
REMARK SMILES CC(=O)CCc1ccc2c(c1)OCO2
REMARK SMILES IDX 4 1 2 2 1 3 3 4 5 5 6 6 7 7 11 8 8 9 10 10 9 11 12 12 14 13
REMARK SMILES IDX 13 14
REMARK H PARENT
REMARK Flexibility Score: inf
ROOT
ATOM      1  C   UNL     1       5.595   0.052   1.955  1.00  0.00     0.080 C 
ENDROOT
BRANCH   1   2
ATOM      2  C   UNL     1       4.679   1.180   1.628  1.00  0.00     0.130 C 
ATOM      3  C   UNL     1       4.958   2.112   0.503  1.00  0.00     0.087 C 
ATOM      4  O   UNL     1       3.666   1.373   2.280  1.00  0.00    -0.300 OA
ENDBRANCH   1   2
BRANCH   1   5
ATOM      5  C   UNL     1       6.997   0.314   1.441  1.00  0.00     0.043 C 
BRANCH   5   6
ATOM      6  C   UNL     1       7.393  -0.663   0.411  1.00  0.00    -0.044 A 
ATOM      7  C   UNL     1       7.285  -0.374  -0.954  1.00  0.00     0.008 A 
ATOM      8  C   UNL     1       7.884  -1.892   0.789  1.00  0.00     0.054 A 
ATOM      9  C   UNL     1       7.672  -1.330  -1.876  1.00  0.00     0.051 A 
ATOM     10  C   UNL     1       8.276  -2.854  -0.146  1.00  0.00     0.166 A 
ATOM     11  C   UNL     1       8.168  -2.571  -1.489  1.00  0.00     0.165 A 
ATOM     12  O   UNL     1       8.787  -4.129  -0.025  1.00  0.00    -0.454 OA
ATOM     13  O   UNL     1       8.621  -3.689  -2.172  1.00  0.00    -0.454 OA
ATOM     14  C   UNL     1       9.107  -4.666  -1.282  1.00  0.00     0.468 C 
ENDBRANCH   5   6
ENDBRANCH   1   5
TORSDOF 3
ENDMDL
MODEL 4
REMARK VINA RESULT:      -7.1      1.250      1.461
REMARK SMILES CC(=O)CCc1ccc2c(c1)OCO2
REMARK SMILES IDX 4 1 2 2 1 3 3 4 5 5 6 6 7 7 11 8 8 9 10 10 9 11 12 12 14 13
REMARK SMILES IDX 13 14
REMARK H PARENT
REMARK Flexibility Score: inf
ROOT
ATOM      1  C   UNL     1       6.393   1.176   0.936  1.00  0.00     0.080 C 
ENDROOT
BRANCH   1   2
ATOM      2  C   UNL     1       5.661   0.354   1.939  1.00  0.00     0.130 C 
ATOM      3  C   UNL     1       6.254  -0.881   2.519  1.00  0.00     0.087 C 
ATOM      4  O   UNL     1       4.546   0.673   2.318  1.00  0.00    -0.300 OA
ENDBRANCH   1   2
BRANCH   1   5
ATOM      5  C   UNL     1       5.882   0.914  -0.467  1.00  0.00     0.043 C 
BRANCH   5   6
ATOM      6  C   UNL     1       6.826   0.094  -1.248  1.00  0.00    -0.044 A 
ATOM      7  C   UNL     1       7.508   0.614  -2.354  1.00  0.00     0.008 A 
ATOM      8  C   UNL     1       7.051  -1.215  -0.888  1.00  0.00     0.054 A 
ATOM      9  C   UNL     1       8.382  -0.202  -3.048  1.00  0.00     0.051 A 
ATOM     10  C   UNL     1       7.937  -2.036  -1.593  1.00  0.00     0.166 A 
ATOM     11  C   UNL     1       8.607  -1.526  -2.682  1.00  0.00     0.165 A 
ATOM     12  O   UNL     1       8.326  -3.350  -1.438  1.00  0.00    -0.454 OA
ATOM     13  O   UNL     1       9.404  -2.546  -3.177  1.00  0.00    -0.454 OA
ATOM     14  C   UNL     1       9.324  -3.693  -2.364  1.00  0.00     0.468 C 
ENDBRANCH   5   6
ENDBRANCH   1   5
TORSDOF 3
ENDMDL
MODEL 5
REMARK VINA RESULT:      -6.8      1.186      5.166
REMARK SMILES CC(=O)CCc1ccc2c(c1)OCO2
REMARK SMILES IDX 4 1 2 2 1 3 3 4 5 5 6 6 7 7 11 8 8 9 10 10 9 11 12 12 14 13
REMARK SMILES IDX 13 14
REMARK H PARENT
REMARK Flexibility Score: inf
ROOT
ATOM      1  C   UNL     1       8.348   0.189  -2.676  1.00  0.00     0.080 C 
ENDROOT
BRANCH   1   2
ATOM      2  C   UNL     1       8.058  -1.270  -2.766  1.00  0.00     0.130 C 
ATOM      3  C   UNL     1       9.131  -2.264  -3.032  1.00  0.00     0.087 C 
ATOM      4  O   UNL     1       6.922  -1.693  -2.622  1.00  0.00    -0.300 OA
ENDBRANCH   1   2
BRANCH   1   5
ATOM      5  C   UNL     1       8.876   0.561  -1.305  1.00  0.00     0.043 C 
BRANCH   5   6
ATOM      6  C   UNL     1       7.843   0.420  -0.264  1.00  0.00    -0.044 A 
ATOM      7  C   UNL     1       7.951  -0.537   0.752  1.00  0.00     0.008 A 
ATOM      8  C   UNL     1       6.742   1.246  -0.279  1.00  0.00     0.054 A 
ATOM      9  C   UNL     1       6.950  -0.623   1.703  1.00  0.00     0.051 A 
ATOM     10  C   UNL     1       5.733   1.156   0.685  1.00  0.00     0.166 A 
ATOM     11  C   UNL     1       5.838   0.213   1.684  1.00  0.00     0.165 A 
ATOM     12  O   UNL     1       4.558   1.849   0.883  1.00  0.00    -0.454 OA
ATOM     13  O   UNL     1       4.714   0.350   2.484  1.00  0.00    -0.454 OA
ATOM     14  C   UNL     1       3.921   1.435   2.065  1.00  0.00     0.468 C 
ENDBRANCH   5   6
ENDBRANCH   1   5
TORSDOF 3
ENDMDL
