@<TRIPOS>MOLECULE
/home/cewinharhar/GITHUB/reincatalyze/data/processed/docking_pred/2023-May-31-1438_sub9_nm5_bs15_s42_ex16_mel10_mts1000_k50_ec05_g099_lra9e-4_lrc3e-3/5ba5439e64352188cd964ddb86dd28d806e95272_ligand_9.pdbqt
 14 15 0 0 0
SMALL
GASTEIGER

@<TRIPOS>ATOM
      1  C          5.7940    1.4100   -0.2300 C.3     1  UNL1        0.0800
      2  C          5.1160    1.2760    1.0900 C.2     1  UNL1        0.1300
      3  C          5.3780    0.1210    1.9890 C.3     1  UNL1        0.0870
      4  O          4.3190    2.1180    1.4730 O.2     1  UNL1       -0.3000
      5  C          7.2720    1.0910   -0.1240 C.3     1  UNL1        0.0430
      6  C          7.6020   -0.1930   -0.7670 C.2     1  UNL1       -0.0440
      7  C          7.5860   -0.3410   -2.1590 C.2     1  UNL1        0.0080
      8  C          7.9380   -1.2790    0.0090 C.2     1  UNL1        0.0540
      9  C          7.9050   -1.5700   -2.7060 C.2     1  UNL1        0.0510
     10  C          8.2610   -2.5190   -0.5490 C.2     1  UNL1        0.1660
     11  C          8.2440   -2.6660   -1.9180 C.2     1  UNL1        0.1650
     12  O          8.6210   -3.7310   -0.0010 O.2     1  UNL1       -0.4540
     13  O          8.5990   -3.9790   -2.1850 O.2     1  UNL1       -0.4540
     14  C          8.9360   -4.6640   -1.0020 C.3     1  UNL1        0.4680
@<TRIPOS>BOND
     1     9     7    1
     2     9    11    2
     3    13    11    1
     4    13    14    1
     5     7     6    2
     6    11    10    1
     7    14    12    1
     8     6     5    1
     9     6     8    1
    10    10    12    1
    11    10     8    2
    12     1     5    1
    13     1     2    1
    14     2     4    2
    15     2     3    1
