@<TRIPOS>MOLECULE
/home/cewinharhar/GITHUB/reincatalyze/data/processed/docking_pred/2023-May-31-1438_sub9_nm5_bs15_s42_ex16_mel10_mts1000_k50_ec05_g099_lra9e-4_lrc3e-3/5bd4159c0713ad18fb2d2a846002564f6b7df27c_ligand_9.pdbqt
 14 15 0 0 0
SMALL
GASTEIGER

@<TRIPOS>ATOM
      1  C          5.5960    1.8630    1.2930 C.3     1  UNL1        0.0800
      2  C          5.1350    0.6470    2.0190 C.2     1  UNL1        0.1300
      3  C          6.0150   -0.5410    2.1900 C.3     1  UNL1        0.0870
      4  O          4.0140    0.5900    2.4980 O.2     1  UNL1       -0.3000
      5  C          5.4520    1.6960   -0.2070 C.3     1  UNL1        0.0430
      6  C          6.6090    0.9940   -0.7920 C.2     1  UNL1       -0.0440
      7  C          7.9200    1.4310   -0.5700 C.2     1  UNL1        0.0080
      8  C          6.4060   -0.1200   -1.5740 C.2     1  UNL1        0.0540
      9  C          8.9660    0.7310   -1.1440 C.2     1  UNL1        0.0510
     10  C          7.4670   -0.8230   -2.1520 C.2     1  UNL1        0.1660
     11  C          8.7580   -0.3940   -1.9360 C.2     1  UNL1        0.1650
     12  O          7.5260   -1.9410   -2.9570 O.2     1  UNL1       -0.4540
     13  O          9.5900   -1.2670   -2.6180 O.2     1  UNL1       -0.4540
     14  C          8.8570   -2.3150   -3.2050 C.3     1  UNL1        0.4680
@<TRIPOS>BOND
     1    14    12    1
     2    14    13    1
     3    12    10    1
     4    13    11    1
     5    10    11    2
     6    10     8    1
     7    11     9    1
     8     8     6    2
     9     9     7    2
    10     6     7    1
    11     6     5    1
    12     5     1    1
    13     1     2    1
    14     2     3    1
    15     2     4    2
