MODEL 1
REMARK VINA RESULT:      -7.6      0.000      0.000
REMARK SMILES CC(=O)CCc1ccc2c(c1)OCO2
REMARK SMILES IDX 4 1 2 2 1 3 3 4 5 5 6 6 7 7 11 8 8 9 10 10 9 11 12 12 14 13
REMARK SMILES IDX 13 14
REMARK H PARENT
REMARK Flexibility Score: inf
ROOT
ATOM      1  C   UNL     1       5.596   1.863   1.293  1.00  0.00     0.080 C 
ENDROOT
BRANCH   1   2
ATOM      2  C   UNL     1       5.135   0.647   2.019  1.00  0.00     0.130 C 
ATOM      3  C   UNL     1       6.015  -0.541   2.190  1.00  0.00     0.087 C 
ATOM      4  O   UNL     1       4.014   0.590   2.498  1.00  0.00    -0.300 OA
ENDBRANCH   1   2
BRANCH   1   5
ATOM      5  C   UNL     1       5.452   1.696  -0.207  1.00  0.00     0.043 C 
BRANCH   5   6
ATOM      6  C   UNL     1       6.609   0.994  -0.792  1.00  0.00    -0.044 A 
ATOM      7  C   UNL     1       7.920   1.431  -0.570  1.00  0.00     0.008 A 
ATOM      8  C   UNL     1       6.406  -0.120  -1.574  1.00  0.00     0.054 A 
ATOM      9  C   UNL     1       8.966   0.731  -1.144  1.00  0.00     0.051 A 
ATOM     10  C   UNL     1       7.467  -0.823  -2.152  1.00  0.00     0.166 A 
ATOM     11  C   UNL     1       8.758  -0.394  -1.936  1.00  0.00     0.165 A 
ATOM     12  O   UNL     1       7.526  -1.941  -2.957  1.00  0.00    -0.454 OA
ATOM     13  O   UNL     1       9.590  -1.267  -2.618  1.00  0.00    -0.454 OA
ATOM     14  C   UNL     1       8.857  -2.315  -3.205  1.00  0.00     0.468 C 
ENDBRANCH   5   6
ENDBRANCH   1   5
TORSDOF 3
ENDMDL
MODEL 2
REMARK VINA RESULT:      -7.4      1.916      2.385
REMARK SMILES CC(=O)CCc1ccc2c(c1)OCO2
REMARK SMILES IDX 4 1 2 2 1 3 3 4 5 5 6 6 7 7 11 8 8 9 10 10 9 11 12 12 14 13
REMARK SMILES IDX 13 14
REMARK H PARENT
REMARK Flexibility Score: inf
ROOT
ATOM      1  C   UNL     1       5.817   1.390  -0.278  1.00  0.00     0.080 C 
ENDROOT
BRANCH   1   2
ATOM      2  C   UNL     1       5.150   1.282   1.050  1.00  0.00     0.130 C 
ATOM      3  C   UNL     1       5.386   0.123   1.951  1.00  0.00     0.087 C 
ATOM      4  O   UNL     1       4.384   2.150   1.438  1.00  0.00    -0.300 OA
ENDBRANCH   1   2
BRANCH   1   5
ATOM      5  C   UNL     1       7.296   1.075  -0.177  1.00  0.00     0.043 C 
BRANCH   5   6
ATOM      6  C   UNL     1       7.626  -0.212  -0.816  1.00  0.00    -0.044 A 
ATOM      7  C   UNL     1       7.618  -0.362  -2.208  1.00  0.00     0.008 A 
ATOM      8  C   UNL     1       7.953  -1.297  -0.036  1.00  0.00     0.054 A 
ATOM      9  C   UNL     1       7.937  -1.594  -2.751  1.00  0.00     0.051 A 
ATOM     10  C   UNL     1       8.275  -2.540  -0.590  1.00  0.00     0.166 A 
ATOM     11  C   UNL     1       8.266  -2.689  -1.959  1.00  0.00     0.165 A 
ATOM     12  O   UNL     1       8.627  -3.752  -0.037  1.00  0.00    -0.454 OA
ATOM     13  O   UNL     1       8.619  -4.004  -2.221  1.00  0.00    -0.454 OA
ATOM     14  C   UNL     1       8.945  -4.689  -1.035  1.00  0.00     0.468 C 
ENDBRANCH   5   6
ENDBRANCH   1   5
TORSDOF 3
ENDMDL
MODEL 3
REMARK VINA RESULT:      -7.2      2.051      2.616
REMARK SMILES CC(=O)CCc1ccc2c(c1)OCO2
REMARK SMILES IDX 4 1 2 2 1 3 3 4 5 5 6 6 7 7 11 8 8 9 10 10 9 11 12 12 14 13
REMARK SMILES IDX 13 14
REMARK H PARENT
REMARK Flexibility Score: inf
ROOT
ATOM      1  C   UNL     1       5.425  -0.061   2.018  1.00  0.00     0.080 C 
ENDROOT
BRANCH   1   2
ATOM      2  C   UNL     1       4.564   1.128   1.766  1.00  0.00     0.130 C 
ATOM      3  C   UNL     1       4.897   2.124   0.713  1.00  0.00     0.087 C 
ATOM      4  O   UNL     1       3.553   1.320   2.422  1.00  0.00    -0.300 OA
ENDBRANCH   1   2
BRANCH   1   5
ATOM      5  C   UNL     1       6.855   0.194   1.587  1.00  0.00     0.043 C 
BRANCH   5   6
ATOM      6  C   UNL     1       7.280  -0.735   0.526  1.00  0.00    -0.044 A 
ATOM      7  C   UNL     1       7.154  -0.408  -0.829  1.00  0.00     0.008 A 
ATOM      8  C   UNL     1       7.818  -1.957   0.863  1.00  0.00     0.054 A 
ATOM      9  C   UNL     1       7.571  -1.320  -1.782  1.00  0.00     0.051 A 
ATOM     10  C   UNL     1       8.238  -2.875  -0.104  1.00  0.00     0.166 A 
ATOM     11  C   UNL     1       8.113  -2.554  -1.437  1.00  0.00     0.165 A 
ATOM     12  O   UNL     1       8.795  -4.134  -0.025  1.00  0.00    -0.454 OA
ATOM     13  O   UNL     1       8.602  -3.633  -2.157  1.00  0.00    -0.454 OA
ATOM     14  C   UNL     1       9.128  -4.619  -1.300  1.00  0.00     0.468 C 
ENDBRANCH   5   6
ENDBRANCH   1   5
TORSDOF 3
ENDMDL
MODEL 4
REMARK VINA RESULT:      -7.1      1.237      1.425
REMARK SMILES CC(=O)CCc1ccc2c(c1)OCO2
REMARK SMILES IDX 4 1 2 2 1 3 3 4 5 5 6 6 7 7 11 8 8 9 10 10 9 11 12 12 14 13
REMARK SMILES IDX 13 14
REMARK H PARENT
REMARK Flexibility Score: inf
ROOT
ATOM      1  C   UNL     1       6.389   1.213   0.937  1.00  0.00     0.080 C 
ENDROOT
BRANCH   1   2
ATOM      2  C   UNL     1       5.657   0.378   1.929  1.00  0.00     0.130 C 
ATOM      3  C   UNL     1       6.256  -0.856   2.506  1.00  0.00     0.087 C 
ATOM      4  O   UNL     1       4.535   0.684   2.299  1.00  0.00    -0.300 OA
ENDBRANCH   1   2
BRANCH   1   5
ATOM      5  C   UNL     1       5.890   0.959  -0.472  1.00  0.00     0.043 C 
BRANCH   5   6
ATOM      6  C   UNL     1       6.828   0.122  -1.241  1.00  0.00    -0.044 A 
ATOM      7  C   UNL     1       7.518   0.625  -2.351  1.00  0.00     0.008 A 
ATOM      8  C   UNL     1       7.041  -1.185  -0.867  1.00  0.00     0.054 A 
ATOM      9  C   UNL     1       8.386  -0.207  -3.034  1.00  0.00     0.051 A 
ATOM     10  C   UNL     1       7.920  -2.022  -1.561  1.00  0.00     0.166 A 
ATOM     11  C   UNL     1       8.598  -1.529  -2.654  1.00  0.00     0.165 A 
ATOM     12  O   UNL     1       8.297  -3.337  -1.391  1.00  0.00    -0.454 OA
ATOM     13  O   UNL     1       9.387  -2.562  -3.136  1.00  0.00    -0.454 OA
ATOM     14  C   UNL     1       9.295  -3.699  -2.311  1.00  0.00     0.468 C 
ENDBRANCH   5   6
ENDBRANCH   1   5
TORSDOF 3
ENDMDL
MODEL 5
REMARK VINA RESULT:      -7.0      1.941      2.547
REMARK SMILES CC(=O)CCc1ccc2c(c1)OCO2
REMARK SMILES IDX 4 1 2 2 1 3 3 4 5 5 6 6 7 7 11 8 8 9 10 10 9 11 12 12 14 13
REMARK SMILES IDX 13 14
REMARK H PARENT
REMARK Flexibility Score: inf
ROOT
ATOM      1  C   UNL     1       6.654   1.142   1.244  1.00  0.00     0.080 C 
ENDROOT
BRANCH   1   2
ATOM      2  C   UNL     1       5.264   1.601   0.968  1.00  0.00     0.130 C 
ATOM      3  C   UNL     1       4.872   2.150  -0.357  1.00  0.00     0.087 C 
ATOM      4  O   UNL     1       4.402   1.541   1.830  1.00  0.00    -0.300 OA
ENDBRANCH   1   2
BRANCH   1   5
ATOM      5  C   UNL     1       7.531   1.271   0.014  1.00  0.00     0.043 C 
BRANCH   5   6
ATOM      6  C   UNL     1       7.783  -0.037  -0.617  1.00  0.00    -0.044 A 
ATOM      7  C   UNL     1       7.733  -0.202  -2.006  1.00  0.00     0.008 A 
ATOM      8  C   UNL     1       8.079  -1.127   0.168  1.00  0.00     0.054 A 
ATOM      9  C   UNL     1       7.980  -1.453  -2.542  1.00  0.00     0.051 A 
ATOM     10  C   UNL     1       8.328  -2.390  -0.379  1.00  0.00     0.166 A 
ATOM     11  C   UNL     1       8.278  -2.554  -1.745  1.00  0.00     0.165 A 
ATOM     12  O   UNL     1       8.637  -3.612   0.180  1.00  0.00    -0.454 OA
ATOM     13  O   UNL     1       8.561  -3.886  -1.999  1.00  0.00    -0.454 OA
ATOM     14  C   UNL     1       8.885  -4.573  -0.814  1.00  0.00     0.468 C 
ENDBRANCH   5   6
ENDBRANCH   1   5
TORSDOF 3
ENDMDL
