MODEL 1
REMARK VINA RESULT:      -7.6      0.000      0.000
REMARK SMILES CC(=O)CCc1ccc2c(c1)OCO2
REMARK SMILES IDX 4 1 2 2 1 3 3 4 5 5 6 6 7 7 11 8 8 9 10 10 9 11 12 12 14 13
REMARK SMILES IDX 13 14
REMARK H PARENT
REMARK Flexibility Score: inf
ROOT
ATOM      1  C   UNL     1       5.537   1.939   1.257  1.00  0.00     0.080 C 
ENDROOT
BRANCH   1   2
ATOM      2  C   UNL     1       5.119   0.718   2.001  1.00  0.00     0.130 C 
ATOM      3  C   UNL     1       6.039  -0.436   2.187  1.00  0.00     0.087 C 
ATOM      4  O   UNL     1       4.001   0.629   2.483  1.00  0.00    -0.300 OA
ENDBRANCH   1   2
BRANCH   1   5
ATOM      5  C   UNL     1       5.411   1.740  -0.241  1.00  0.00     0.043 C 
BRANCH   5   6
ATOM      6  C   UNL     1       6.576   1.030  -0.798  1.00  0.00    -0.044 A 
ATOM      7  C   UNL     1       7.885   1.450  -0.536  1.00  0.00     0.008 A 
ATOM      8  C   UNL     1       6.383  -0.076  -1.594  1.00  0.00     0.054 A 
ATOM      9  C   UNL     1       8.939   0.743  -1.086  1.00  0.00     0.051 A 
ATOM     10  C   UNL     1       7.452  -0.788  -2.147  1.00  0.00     0.166 A 
ATOM     11  C   UNL     1       8.741  -0.374  -1.891  1.00  0.00     0.165 A 
ATOM     12  O   UNL     1       7.521  -1.900  -2.958  1.00  0.00    -0.454 OA
ATOM     13  O   UNL     1       9.583  -1.252  -2.556  1.00  0.00    -0.454 OA
ATOM     14  C   UNL     1       8.854  -2.288  -3.171  1.00  0.00     0.468 C 
ENDBRANCH   5   6
ENDBRANCH   1   5
TORSDOF 3
ENDMDL
MODEL 2
REMARK VINA RESULT:      -7.4      1.883      2.327
REMARK SMILES CC(=O)CCc1ccc2c(c1)OCO2
REMARK SMILES IDX 4 1 2 2 1 3 3 4 5 5 6 6 7 7 11 8 8 9 10 10 9 11 12 12 14 13
REMARK SMILES IDX 13 14
REMARK H PARENT
REMARK Flexibility Score: inf
ROOT
ATOM      1  C   UNL     1       5.742   1.417  -0.270  1.00  0.00     0.080 C 
ENDROOT
BRANCH   1   2
ATOM      2  C   UNL     1       5.136   1.311   1.087  1.00  0.00     0.130 C 
ATOM      3  C   UNL     1       5.531   0.237   2.037  1.00  0.00     0.087 C 
ATOM      4  O   UNL     1       4.292   2.110   1.460  1.00  0.00    -0.300 OA
ENDBRANCH   1   2
BRANCH   1   5
ATOM      5  C   UNL     1       7.238   1.175  -0.225  1.00  0.00     0.043 C 
BRANCH   5   6
ATOM      6  C   UNL     1       7.602  -0.110  -0.849  1.00  0.00    -0.044 A 
ATOM      7  C   UNL     1       7.663  -0.259  -2.239  1.00  0.00     0.008 A 
ATOM      8  C   UNL     1       7.894  -1.196  -0.055  1.00  0.00     0.054 A 
ATOM      9  C   UNL     1       8.011  -1.488  -2.768  1.00  0.00     0.051 A 
ATOM     10  C   UNL     1       8.247  -2.436  -0.594  1.00  0.00     0.166 A 
ATOM     11  C   UNL     1       8.305  -2.584  -1.962  1.00  0.00     0.165 A 
ATOM     12  O   UNL     1       8.576  -3.649  -0.026  1.00  0.00    -0.454 OA
ATOM     13  O   UNL     1       8.675  -3.897  -2.208  1.00  0.00    -0.454 OA
ATOM     14  C   UNL     1       8.945  -4.582  -1.009  1.00  0.00     0.468 C 
ENDBRANCH   5   6
ENDBRANCH   1   5
TORSDOF 3
ENDMDL
MODEL 3
REMARK VINA RESULT:      -7.2      2.043      2.626
REMARK SMILES CC(=O)CCc1ccc2c(c1)OCO2
REMARK SMILES IDX 4 1 2 2 1 3 3 4 5 5 6 6 7 7 11 8 8 9 10 10 9 11 12 12 14 13
REMARK SMILES IDX 13 14
REMARK H PARENT
REMARK Flexibility Score: inf
ROOT
ATOM      1  C   UNL     1       5.381  -0.076   2.030  1.00  0.00     0.080 C 
ENDROOT
BRANCH   1   2
ATOM      2  C   UNL     1       4.541   1.126   1.771  1.00  0.00     0.130 C 
ATOM      3  C   UNL     1       4.890   2.110   0.712  1.00  0.00     0.087 C 
ATOM      4  O   UNL     1       3.534   1.340   2.427  1.00  0.00    -0.300 OA
ENDBRANCH   1   2
BRANCH   1   5
ATOM      5  C   UNL     1       6.825   0.167   1.638  1.00  0.00     0.043 C 
BRANCH   5   6
ATOM      6  C   UNL     1       7.260  -0.743   0.563  1.00  0.00    -0.044 A 
ATOM      7  C   UNL     1       7.137  -0.396  -0.787  1.00  0.00     0.008 A 
ATOM      8  C   UNL     1       7.806  -1.966   0.884  1.00  0.00     0.054 A 
ATOM      9  C   UNL     1       7.563  -1.290  -1.752  1.00  0.00     0.051 A 
ATOM     10  C   UNL     1       8.236  -2.866  -0.096  1.00  0.00     0.166 A 
ATOM     11  C   UNL     1       8.113  -2.525  -1.424  1.00  0.00     0.165 A 
ATOM     12  O   UNL     1       8.801  -4.122  -0.034  1.00  0.00    -0.454 OA
ATOM     13  O   UNL     1       8.612  -3.590  -2.159  1.00  0.00    -0.454 OA
ATOM     14  C   UNL     1       9.142  -4.585  -1.316  1.00  0.00     0.468 C 
ENDBRANCH   5   6
ENDBRANCH   1   5
TORSDOF 3
ENDMDL
MODEL 4
REMARK VINA RESULT:      -7.1      1.258      1.476
REMARK SMILES CC(=O)CCc1ccc2c(c1)OCO2
REMARK SMILES IDX 4 1 2 2 1 3 3 4 5 5 6 6 7 7 11 8 8 9 10 10 9 11 12 12 14 13
REMARK SMILES IDX 13 14
REMARK H PARENT
REMARK Flexibility Score: inf
ROOT
ATOM      1  C   UNL     1       6.400   1.205   0.925  1.00  0.00     0.080 C 
ENDROOT
BRANCH   1   2
ATOM      2  C   UNL     1       5.699   0.365   1.936  1.00  0.00     0.130 C 
ATOM      3  C   UNL     1       6.334  -0.847   2.520  1.00  0.00     0.087 C 
ATOM      4  O   UNL     1       4.575   0.650   2.317  1.00  0.00    -0.300 OA
ENDBRANCH   1   2
BRANCH   1   5
ATOM      5  C   UNL     1       5.884   0.929  -0.473  1.00  0.00     0.043 C 
BRANCH   5   6
ATOM      6  C   UNL     1       6.824   0.100  -1.248  1.00  0.00    -0.044 A 
ATOM      7  C   UNL     1       7.499   0.607  -2.365  1.00  0.00     0.008 A 
ATOM      8  C   UNL     1       7.054  -1.204  -0.873  1.00  0.00     0.054 A 
ATOM      9  C   UNL     1       8.370  -0.218  -3.054  1.00  0.00     0.051 A 
ATOM     10  C   UNL     1       7.936  -2.033  -1.572  1.00  0.00     0.166 A 
ATOM     11  C   UNL     1       8.599  -1.536  -2.672  1.00  0.00     0.165 A 
ATOM     12  O   UNL     1       8.328  -3.344  -1.402  1.00  0.00    -0.454 OA
ATOM     13  O   UNL     1       9.394  -2.562  -3.158  1.00  0.00    -0.454 OA
ATOM     14  C   UNL     1       9.322  -3.698  -2.330  1.00  0.00     0.468 C 
ENDBRANCH   5   6
ENDBRANCH   1   5
TORSDOF 3
ENDMDL
MODEL 5
REMARK VINA RESULT:      -6.8      1.182      5.162
REMARK SMILES CC(=O)CCc1ccc2c(c1)OCO2
REMARK SMILES IDX 4 1 2 2 1 3 3 4 5 5 6 6 7 7 11 8 8 9 10 10 9 11 12 12 14 13
REMARK SMILES IDX 13 14
REMARK H PARENT
REMARK Flexibility Score: inf
ROOT
ATOM      1  C   UNL     1       8.337   0.190  -2.677  1.00  0.00     0.080 C 
ENDROOT
BRANCH   1   2
ATOM      2  C   UNL     1       8.058  -1.270  -2.770  1.00  0.00     0.130 C 
ATOM      3  C   UNL     1       9.139  -2.257  -3.034  1.00  0.00     0.087 C 
ATOM      4  O   UNL     1       6.924  -1.701  -2.631  1.00  0.00    -0.300 OA
ENDBRANCH   1   2
BRANCH   1   5
ATOM      5  C   UNL     1       8.866   0.564  -1.307  1.00  0.00     0.043 C 
BRANCH   5   6
ATOM      6  C   UNL     1       7.832   0.425  -0.266  1.00  0.00    -0.044 A 
ATOM      7  C   UNL     1       7.939  -0.530   0.751  1.00  0.00     0.008 A 
ATOM      8  C   UNL     1       6.731   1.251  -0.283  1.00  0.00     0.054 A 
ATOM      9  C   UNL     1       6.938  -0.614   1.702  1.00  0.00     0.051 A 
ATOM     10  C   UNL     1       5.722   1.163   0.681  1.00  0.00     0.166 A 
ATOM     11  C   UNL     1       5.826   0.223   1.681  1.00  0.00     0.165 A 
ATOM     12  O   UNL     1       4.548   1.858   0.877  1.00  0.00    -0.454 OA
ATOM     13  O   UNL     1       4.702   0.361   2.480  1.00  0.00    -0.454 OA
ATOM     14  C   UNL     1       3.910   1.446   2.060  1.00  0.00     0.468 C 
ENDBRANCH   5   6
ENDBRANCH   1   5
TORSDOF 3
ENDMDL
