@<TRIPOS>MOLECULE
/home/cewinharhar/GITHUB/reincatalyze/data/processed/docking_pred/2023-May-31-1438_sub9_nm5_bs15_s42_ex16_mel10_mts1000_k50_ec05_g099_lra9e-4_lrc3e-3/5be73a077ea639c014f12358d863af943f9e92ef_ligand_9.pdbqt
 14 15 0 0 0
SMALL
GASTEIGER

@<TRIPOS>ATOM
      1  C          5.3810   -0.0760    2.0300 C.3     1  UNL1        0.0800
      2  C          4.5410    1.1260    1.7710 C.2     1  UNL1        0.1300
      3  C          4.8900    2.1100    0.7120 C.3     1  UNL1        0.0870
      4  O          3.5340    1.3400    2.4270 O.2     1  UNL1       -0.3000
      5  C          6.8250    0.1670    1.6380 C.3     1  UNL1        0.0430
      6  C          7.2600   -0.7430    0.5630 C.2     1  UNL1       -0.0440
      7  C          7.1370   -0.3960   -0.7870 C.2     1  UNL1        0.0080
      8  C          7.8060   -1.9660    0.8840 C.2     1  UNL1        0.0540
      9  C          7.5630   -1.2900   -1.7520 C.2     1  UNL1        0.0510
     10  C          8.2360   -2.8660   -0.0960 C.2     1  UNL1        0.1660
     11  C          8.1130   -2.5250   -1.4240 C.2     1  UNL1        0.1650
     12  O          8.8010   -4.1220   -0.0340 O.2     1  UNL1       -0.4540
     13  O          8.6120   -3.5900   -2.1590 O.2     1  UNL1       -0.4540
     14  C          9.1420   -4.5850   -1.3160 C.3     1  UNL1        0.4680
@<TRIPOS>BOND
     1    13    11    1
     2    13    14    1
     3     9    11    2
     4     9     7    1
     5    11    10    1
     6    14    12    1
     7     7     6    2
     8    10    12    1
     9    10     8    2
    10     6     8    1
    11     6     5    1
    12     3     2    1
    13     5     1    1
    14     2     1    1
    15     2     4    2
