@<TRIPOS>MOLECULE
/home/cewinharhar/GITHUB/reincatalyze/data/processed/docking_pred/2023-May-31-1438_sub9_nm5_bs15_s42_ex16_mel10_mts1000_k50_ec05_g099_lra9e-4_lrc3e-3/5e677739909452415bd62a3bb65a8cc9d063ea2f_ligand_9.pdbqt
 14 15 0 0 0
SMALL
GASTEIGER

@<TRIPOS>ATOM
      1  C          5.7910    1.6090    0.7990 C.3     1  UNL1        0.0800
      2  C          5.3860    0.6070    1.8230 C.2     1  UNL1        0.1300
      3  C          6.2890   -0.5020    2.2310 C.3     1  UNL1        0.0870
      4  O          4.2920    0.6680    2.3610 O.2     1  UNL1       -0.3000
      5  C          5.7290    1.0240   -0.5980 C.3     1  UNL1        0.0430
      6  C          6.9960    0.3720   -0.9740 C.2     1  UNL1       -0.0440
      7  C          8.2340    0.9760   -0.7250 C.2     1  UNL1        0.0080
      8  C          6.9740   -0.8620   -1.5830 C.2     1  UNL1        0.0540
      9  C          9.3900    0.3170   -1.1000 C.2     1  UNL1        0.0510
     10  C          8.1460   -1.5250   -1.9590 C.2     1  UNL1        0.1660
     11  C          9.3640   -0.9310   -1.7160 C.2     1  UNL1        0.1650
     12  O          8.3850   -2.7380   -2.5690 O.2     1  UNL1       -0.4540
     13  O         10.3360   -1.8010   -2.1850 O.2     1  UNL1       -0.4540
     14  C          9.7630   -2.9990   -2.6520 C.3     1  UNL1        0.4680
@<TRIPOS>BOND
     1    14    12    1
     2    14    13    1
     3    12    10    1
     4    13    11    1
     5    10    11    2
     6    10     8    1
     7    11     9    1
     8     8     6    2
     9     9     7    2
    10     6     7    1
    11     6     5    1
    12     5     1    1
    13     1     2    1
    14     2     3    1
    15     2     4    2
