MODEL 1
REMARK VINA RESULT:      -8.2      0.000      0.000
REMARK SMILES CC(=O)CCc1ccc2c(c1)OCO2
REMARK SMILES IDX 4 1 2 2 1 3 3 4 5 5 6 6 7 7 11 8 8 9 10 10 9 11 12 12 14 13
REMARK SMILES IDX 13 14
REMARK H PARENT
REMARK Flexibility Score: inf
ROOT
ATOM      1  C   UNL     1       5.791   1.609   0.799  1.00  0.00     0.080 C 
ENDROOT
BRANCH   1   2
ATOM      2  C   UNL     1       5.386   0.607   1.823  1.00  0.00     0.130 C 
ATOM      3  C   UNL     1       6.289  -0.502   2.231  1.00  0.00     0.087 C 
ATOM      4  O   UNL     1       4.292   0.668   2.361  1.00  0.00    -0.300 OA
ENDBRANCH   1   2
BRANCH   1   5
ATOM      5  C   UNL     1       5.729   1.024  -0.598  1.00  0.00     0.043 C 
BRANCH   5   6
ATOM      6  C   UNL     1       6.996   0.372  -0.974  1.00  0.00    -0.044 A 
ATOM      7  C   UNL     1       8.234   0.976  -0.725  1.00  0.00     0.008 A 
ATOM      8  C   UNL     1       6.974  -0.862  -1.583  1.00  0.00     0.054 A 
ATOM      9  C   UNL     1       9.390   0.317  -1.100  1.00  0.00     0.051 A 
ATOM     10  C   UNL     1       8.146  -1.525  -1.959  1.00  0.00     0.166 A 
ATOM     11  C   UNL     1       9.364  -0.931  -1.716  1.00  0.00     0.165 A 
ATOM     12  O   UNL     1       8.385  -2.738  -2.569  1.00  0.00    -0.454 OA
ATOM     13  O   UNL     1      10.336  -1.801  -2.185  1.00  0.00    -0.454 OA
ATOM     14  C   UNL     1       9.763  -2.999  -2.652  1.00  0.00     0.468 C 
ENDBRANCH   5   6
ENDBRANCH   1   5
TORSDOF 3
ENDMDL
MODEL 2
REMARK VINA RESULT:      -7.7      1.061      1.785
REMARK SMILES CC(=O)CCc1ccc2c(c1)OCO2
REMARK SMILES IDX 4 1 2 2 1 3 3 4 5 5 6 6 7 7 11 8 8 9 10 10 9 11 12 12 14 13
REMARK SMILES IDX 13 14
REMARK H PARENT
REMARK Flexibility Score: inf
ROOT
ATOM      1  C   UNL     1       5.877   1.329  -0.315  1.00  0.00     0.080 C 
ENDROOT
BRANCH   1   2
ATOM      2  C   UNL     1       5.278   1.159   1.038  1.00  0.00     0.130 C 
ATOM      3  C   UNL     1       5.601  -0.014   1.893  1.00  0.00     0.087 C 
ATOM      4  O   UNL     1       4.498   1.984   1.486  1.00  0.00    -0.300 OA
ENDBRANCH   1   2
BRANCH   1   5
ATOM      5  C   UNL     1       7.391   1.298  -0.255  1.00  0.00     0.043 C 
BRANCH   5   6
ATOM      6  C   UNL     1       7.947   0.179  -1.036  1.00  0.00    -0.044 A 
ATOM      7  C   UNL     1       7.327  -0.278  -2.205  1.00  0.00     0.008 A 
ATOM      8  C   UNL     1       9.105  -0.436  -0.618  1.00  0.00     0.054 A 
ATOM      9  C   UNL     1       7.895  -1.332  -2.898  1.00  0.00     0.051 A 
ATOM     10  C   UNL     1       9.676  -1.500  -1.323  1.00  0.00     0.166 A 
ATOM     11  C   UNL     1       9.065  -1.952  -2.472  1.00  0.00     0.165 A 
ATOM     12  O   UNL     1      10.802  -2.267  -1.116  1.00  0.00    -0.454 OA
ATOM     13  O   UNL     1       9.838  -2.997  -2.952  1.00  0.00    -0.454 OA
ATOM     14  C   UNL     1      10.998  -3.171  -2.173  1.00  0.00     0.468 C 
ENDBRANCH   5   6
ENDBRANCH   1   5
TORSDOF 3
ENDMDL
MODEL 3
REMARK VINA RESULT:      -7.5      1.238      2.021
REMARK SMILES CC(=O)CCc1ccc2c(c1)OCO2
REMARK SMILES IDX 4 1 2 2 1 3 3 4 5 5 6 6 7 7 11 8 8 9 10 10 9 11 12 12 14 13
REMARK SMILES IDX 13 14
REMARK H PARENT
REMARK Flexibility Score: inf
ROOT
ATOM      1  C   UNL     1       6.800   0.316   0.978  1.00  0.00     0.080 C 
ENDROOT
BRANCH   1   2
ATOM      2  C   UNL     1       5.507   0.987   1.289  1.00  0.00     0.130 C 
ATOM      3  C   UNL     1       4.982   2.097   0.451  1.00  0.00     0.087 C 
ATOM      4  O   UNL     1       4.838   0.642   2.250  1.00  0.00    -0.300 OA
ENDBRANCH   1   2
BRANCH   1   5
ATOM      5  C   UNL     1       7.451   0.920  -0.251  1.00  0.00     0.043 C 
BRANCH   5   6
ATOM      6  C   UNL     1       8.108  -0.106  -1.081  1.00  0.00    -0.044 A 
ATOM      7  C   UNL     1       7.693  -0.363  -2.393  1.00  0.00     0.008 A 
ATOM      8  C   UNL     1       9.157  -0.832  -0.565  1.00  0.00     0.054 A 
ATOM      9  C   UNL     1       8.347  -1.337  -3.125  1.00  0.00     0.051 A 
ATOM     10  C   UNL     1       9.816  -1.815  -1.310  1.00  0.00     0.166 A 
ATOM     11  C   UNL     1       9.407  -2.070  -2.600  1.00  0.00     0.165 A 
ATOM     12  O   UNL     1      10.868  -2.660  -1.028  1.00  0.00    -0.454 OA
ATOM     13  O   UNL     1      10.226  -3.076  -3.089  1.00  0.00    -0.454 OA
ATOM     14  C   UNL     1      11.224  -3.416  -2.157  1.00  0.00     0.468 C 
ENDBRANCH   5   6
ENDBRANCH   1   5
TORSDOF 3
ENDMDL
MODEL 4
REMARK VINA RESULT:      -7.4      1.392      2.171
REMARK SMILES CC(=O)CCc1ccc2c(c1)OCO2
REMARK SMILES IDX 4 1 2 2 1 3 3 4 5 5 6 6 7 7 11 8 8 9 10 10 9 11 12 12 14 13
REMARK SMILES IDX 13 14
REMARK H PARENT
REMARK Flexibility Score: inf
ROOT
ATOM      1  C   UNL     1       6.658   0.161   1.865  1.00  0.00     0.080 C 
ENDROOT
BRANCH   1   2
ATOM      2  C   UNL     1       5.343   0.838   1.686  1.00  0.00     0.130 C 
ATOM      3  C   UNL     1       5.112   1.819   0.592  1.00  0.00     0.087 C 
ATOM      4  O   UNL     1       4.411   0.605   2.438  1.00  0.00    -0.300 OA
ENDBRANCH   1   2
BRANCH   1   5
ATOM      5  C   UNL     1       6.574  -1.309   1.502  1.00  0.00     0.043 C 
BRANCH   5   6
ATOM      6  C   UNL     1       7.294  -1.605   0.251  1.00  0.00    -0.044 A 
ATOM      7  C   UNL     1       6.867  -1.092  -0.980  1.00  0.00     0.008 A 
ATOM      8  C   UNL     1       8.416  -2.402   0.281  1.00  0.00     0.054 A 
ATOM      9  C   UNL     1       7.584  -1.403  -2.121  1.00  0.00     0.051 A 
ATOM     10  C   UNL     1       9.137  -2.713  -0.875  1.00  0.00     0.166 A 
ATOM     11  C   UNL     1       8.717  -2.209  -2.086  1.00  0.00     0.165 A 
ATOM     12  O   UNL     1      10.266  -3.471  -1.104  1.00  0.00    -0.454 OA
ATOM     13  O   UNL     1       9.607  -2.673  -3.043  1.00  0.00    -0.454 OA
ATOM     14  C   UNL     1      10.656  -3.402  -2.451  1.00  0.00     0.468 C 
ENDBRANCH   5   6
ENDBRANCH   1   5
TORSDOF 3
ENDMDL
MODEL 5
REMARK VINA RESULT:      -7.4      1.499      1.923
REMARK SMILES CC(=O)CCc1ccc2c(c1)OCO2
REMARK SMILES IDX 4 1 2 2 1 3 3 4 5 5 6 6 7 7 11 8 8 9 10 10 9 11 12 12 14 13
REMARK SMILES IDX 13 14
REMARK H PARENT
REMARK Flexibility Score: inf
ROOT
ATOM      1  C   UNL     1       5.813   1.181  -0.440  1.00  0.00     0.080 C 
ENDROOT
BRANCH   1   2
ATOM      2  C   UNL     1       5.222   1.256   0.925  1.00  0.00     0.130 C 
ATOM      3  C   UNL     1       5.550   0.253   1.974  1.00  0.00     0.087 C 
ATOM      4  O   UNL     1       4.446   2.149   1.224  1.00  0.00    -0.300 OA
ENDBRANCH   1   2
BRANCH   1   5
ATOM      5  C   UNL     1       7.323   1.055  -0.381  1.00  0.00     0.043 C 
BRANCH   5   6
ATOM      6  C   UNL     1       7.789  -0.214  -0.966  1.00  0.00    -0.044 A 
ATOM      7  C   UNL     1       8.086  -0.328  -2.329  1.00  0.00     0.008 A 
ATOM      8  C   UNL     1       7.942  -1.321  -0.161  1.00  0.00     0.054 A 
ATOM      9  C   UNL     1       8.521  -1.545  -2.822  1.00  0.00     0.051 A 
ATOM     10  C   UNL     1       8.382  -2.549  -0.664  1.00  0.00     0.166 A 
ATOM     11  C   UNL     1       8.673  -2.662  -2.006  1.00  0.00     0.165 A 
ATOM     12  O   UNL     1       8.610  -3.776  -0.080  1.00  0.00    -0.454 OA
ATOM     13  O   UNL     1       9.080  -3.969  -2.219  1.00  0.00    -0.454 OA
ATOM     14  C   UNL     1       9.142  -4.686  -1.008  1.00  0.00     0.468 C 
ENDBRANCH   5   6
ENDBRANCH   1   5
TORSDOF 3
ENDMDL
