@<TRIPOS>MOLECULE
/home/cewinharhar/GITHUB/reincatalyze/data/processed/docking_pred/2023-May-31-1438_sub9_nm5_bs15_s42_ex16_mel10_mts1000_k50_ec05_g099_lra9e-4_lrc3e-3/5e677739909452415bd62a3bb65a8cc9d063ea2f_ligand_9.pdbqt
 14 15 0 0 0
SMALL
GASTEIGER

@<TRIPOS>ATOM
      1  C          6.8000    0.3160    0.9780 C.3     1  UNL1        0.0800
      2  C          5.5070    0.9870    1.2890 C.2     1  UNL1        0.1300
      3  C          4.9820    2.0970    0.4510 C.3     1  UNL1        0.0870
      4  O          4.8380    0.6420    2.2500 O.2     1  UNL1       -0.3000
      5  C          7.4510    0.9200   -0.2510 C.3     1  UNL1        0.0430
      6  C          8.1080   -0.1060   -1.0810 C.2     1  UNL1       -0.0440
      7  C          7.6930   -0.3630   -2.3930 C.2     1  UNL1        0.0080
      8  C          9.1570   -0.8320   -0.5650 C.2     1  UNL1        0.0540
      9  C          8.3470   -1.3370   -3.1250 C.2     1  UNL1        0.0510
     10  C          9.8160   -1.8150   -1.3100 C.2     1  UNL1        0.1660
     11  C          9.4070   -2.0700   -2.6000 C.2     1  UNL1        0.1650
     12  O         10.8680   -2.6600   -1.0280 O.2     1  UNL1       -0.4540
     13  O         10.2260   -3.0760   -3.0890 O.2     1  UNL1       -0.4540
     14  C         11.2240   -3.4160   -2.1570 C.3     1  UNL1        0.4680
@<TRIPOS>BOND
     1     9    11    2
     2     9     7    1
     3    13    11    1
     4    13    14    1
     5    11    10    1
     6     7     6    2
     7    14    12    1
     8    10    12    1
     9    10     8    2
    10     6     8    1
    11     6     5    1
    12     5     1    1
    13     3     2    1
    14     1     2    1
    15     2     4    2
