@<TRIPOS>MOLECULE
/home/cewinharhar/GITHUB/reincatalyze/data/processed/docking_pred/2023-May-31-1438_sub9_nm5_bs15_s42_ex16_mel10_mts1000_k50_ec05_g099_lra9e-4_lrc3e-3/6047b5c71b47d2a809e14c46b0582b8ae3076bc9_ligand_9.pdbqt
 14 15 0 0 0
SMALL
GASTEIGER

@<TRIPOS>ATOM
      1  C          5.3460   -0.0910    1.9360 C.3     1  UNL1        0.0800
      2  C          4.4660    1.1000    1.7780 C.2     1  UNL1        0.1300
      3  C          4.7490    2.1500    0.7630 C.3     1  UNL1        0.0870
      4  O          3.4810    1.2500    2.4820 O.2     1  UNL1       -0.3000
      5  C          6.8110    0.2960    1.8890 C.3     1  UNL1        0.0430
      6  C          7.4260   -0.0490    0.5950 C.2     1  UNL1       -0.0440
      7  C          7.9480    0.9330   -0.2540 C.2     1  UNL1        0.0080
      8  C          7.4960   -1.3670    0.2030 C.2     1  UNL1        0.0540
      9  C          8.5140    0.5500   -1.4560 C.2     1  UNL1        0.0510
     10  C          8.0700   -1.7490   -1.0130 C.2     1  UNL1        0.1660
     11  C          8.5820   -0.7830   -1.8500 C.2     1  UNL1        0.1650
     12  O          8.2560   -2.9730   -1.6210 O.2     1  UNL1       -0.4540
     13  O          9.0790   -1.4400   -2.9650 O.2     1  UNL1       -0.4540
     14  C          8.9750   -2.8360   -2.8200 C.3     1  UNL1        0.4680
@<TRIPOS>BOND
     1    13    14    1
     2    13    11    1
     3    14    12    1
     4    11     9    2
     5    11    10    1
     6    12    10    1
     7     9     7    1
     8    10     8    2
     9     7     6    2
    10     8     6    1
    11     6     5    1
    12     3     2    1
    13     2     1    1
    14     2     4    2
    15     5     1    1
