@<TRIPOS>MOLECULE
/home/cewinharhar/GITHUB/reincatalyze/data/processed/docking_pred/2023-May-31-1438_sub9_nm5_bs15_s42_ex16_mel10_mts1000_k50_ec05_g099_lra9e-4_lrc3e-3/6047b5c71b47d2a809e14c46b0582b8ae3076bc9_ligand_9.pdbqt
 14 15 0 0 0
SMALL
GASTEIGER

@<TRIPOS>ATOM
      1  C          5.5900    1.8570    1.3090 C.3     1  UNL1        0.0800
      2  C          5.1340    0.6360    2.0300 C.2     1  UNL1        0.1300
      3  C          6.0200   -0.5470    2.2000 C.3     1  UNL1        0.0870
      4  O          4.0120    0.5700    2.5050 O.2     1  UNL1       -0.3000
      5  C          5.4520    1.6930   -0.1920 C.3     1  UNL1        0.0430
      6  C          6.6130    0.9960   -0.7740 C.2     1  UNL1       -0.0440
      7  C          7.9230    1.4230   -0.5300 C.2     1  UNL1        0.0080
      8  C          6.4150   -0.1050   -1.5770 C.2     1  UNL1        0.0540
      9  C          8.9730    0.7280   -1.1030 C.2     1  UNL1        0.0510
     10  C          7.4800   -0.8040   -2.1530 C.2     1  UNL1        0.1660
     11  C          8.7690   -0.3840   -1.9140 C.2     1  UNL1        0.1650
     12  O          7.5430   -1.9090   -2.9750 O.2     1  UNL1       -0.4540
     13  O          9.6070   -1.2490   -2.6000 O.2     1  UNL1       -0.4540
     14  C          8.8760   -2.2850   -3.2120 C.3     1  UNL1        0.4680
@<TRIPOS>BOND
     1    14    12    1
     2    14    13    1
     3    12    10    1
     4    13    11    1
     5    10    11    2
     6    10     8    1
     7    11     9    1
     8     8     6    2
     9     9     7    2
    10     6     7    1
    11     6     5    1
    12     5     1    1
    13     1     2    1
    14     2     3    1
    15     2     4    2
