MODEL 1
REMARK VINA RESULT:      -7.6      0.000      0.000
REMARK SMILES CC(=O)CCc1ccc2c(c1)OCO2
REMARK SMILES IDX 4 1 2 2 1 3 3 4 5 5 6 6 7 7 11 8 8 9 10 10 9 11 12 12 14 13
REMARK SMILES IDX 13 14
REMARK H PARENT
REMARK Flexibility Score: inf
ROOT
ATOM      1  C   UNL     1       5.590   1.857   1.309  1.00  0.00     0.080 C 
ENDROOT
BRANCH   1   2
ATOM      2  C   UNL     1       5.134   0.636   2.030  1.00  0.00     0.130 C 
ATOM      3  C   UNL     1       6.020  -0.547   2.200  1.00  0.00     0.087 C 
ATOM      4  O   UNL     1       4.012   0.570   2.505  1.00  0.00    -0.300 OA
ENDBRANCH   1   2
BRANCH   1   5
ATOM      5  C   UNL     1       5.452   1.693  -0.192  1.00  0.00     0.043 C 
BRANCH   5   6
ATOM      6  C   UNL     1       6.613   0.996  -0.774  1.00  0.00    -0.044 A 
ATOM      7  C   UNL     1       7.923   1.423  -0.530  1.00  0.00     0.008 A 
ATOM      8  C   UNL     1       6.415  -0.105  -1.577  1.00  0.00     0.054 A 
ATOM      9  C   UNL     1       8.973   0.728  -1.103  1.00  0.00     0.051 A 
ATOM     10  C   UNL     1       7.480  -0.804  -2.153  1.00  0.00     0.166 A 
ATOM     11  C   UNL     1       8.769  -0.384  -1.914  1.00  0.00     0.165 A 
ATOM     12  O   UNL     1       7.543  -1.909  -2.975  1.00  0.00    -0.454 OA
ATOM     13  O   UNL     1       9.607  -1.249  -2.600  1.00  0.00    -0.454 OA
ATOM     14  C   UNL     1       8.876  -2.285  -3.212  1.00  0.00     0.468 C 
ENDBRANCH   5   6
ENDBRANCH   1   5
TORSDOF 3
ENDMDL
MODEL 2
REMARK VINA RESULT:      -7.5      1.903      2.354
REMARK SMILES CC(=O)CCc1ccc2c(c1)OCO2
REMARK SMILES IDX 4 1 2 2 1 3 3 4 5 5 6 6 7 7 11 8 8 9 10 10 9 11 12 12 14 13
REMARK SMILES IDX 13 14
REMARK H PARENT
REMARK Flexibility Score: inf
ROOT
ATOM      1  C   UNL     1       5.716   1.388  -0.310  1.00  0.00     0.080 C 
ENDROOT
BRANCH   1   2
ATOM      2  C   UNL     1       5.136   1.291   1.058  1.00  0.00     0.130 C 
ATOM      3  C   UNL     1       5.456   0.156   1.964  1.00  0.00     0.087 C 
ATOM      4  O   UNL     1       4.374   2.148   1.478  1.00  0.00    -0.300 OA
ENDBRANCH   1   2
BRANCH   1   5
ATOM      5  C   UNL     1       7.216   1.167  -0.289  1.00  0.00     0.043 C 
BRANCH   5   6
ATOM      6  C   UNL     1       7.586  -0.128  -0.885  1.00  0.00    -0.044 A 
ATOM      7  C   UNL     1       7.670  -0.300  -2.272  1.00  0.00     0.008 A 
ATOM      8  C   UNL     1       7.862  -1.202  -0.069  1.00  0.00     0.054 A 
ATOM      9  C   UNL     1       8.023  -1.539  -2.775  1.00  0.00     0.051 A 
ATOM     10  C   UNL     1       8.219  -2.452  -0.582  1.00  0.00     0.166 A 
ATOM     11  C   UNL     1       8.300  -2.622  -1.946  1.00  0.00     0.165 A 
ATOM     12  O   UNL     1       8.535  -3.656   0.011  1.00  0.00    -0.454 OA
ATOM     13  O   UNL     1       8.669  -3.940  -2.165  1.00  0.00    -0.454 OA
ATOM     14  C   UNL     1       8.917  -4.606  -0.950  1.00  0.00     0.468 C 
ENDBRANCH   5   6
ENDBRANCH   1   5
TORSDOF 3
ENDMDL
MODEL 3
REMARK VINA RESULT:      -7.2      2.093      2.618
REMARK SMILES CC(=O)CCc1ccc2c(c1)OCO2
REMARK SMILES IDX 4 1 2 2 1 3 3 4 5 5 6 6 7 7 11 8 8 9 10 10 9 11 12 12 14 13
REMARK SMILES IDX 13 14
REMARK H PARENT
REMARK Flexibility Score: inf
ROOT
ATOM      1  C   UNL     1       5.620   0.003   1.970  1.00  0.00     0.080 C 
ENDROOT
BRANCH   1   2
ATOM      2  C   UNL     1       4.695   1.126   1.652  1.00  0.00     0.130 C 
ATOM      3  C   UNL     1       4.950   2.050   0.515  1.00  0.00     0.087 C 
ATOM      4  O   UNL     1       3.693   1.322   2.322  1.00  0.00    -0.300 OA
ENDBRANCH   1   2
BRANCH   1   5
ATOM      5  C   UNL     1       7.016   0.275   1.447  1.00  0.00     0.043 C 
BRANCH   5   6
ATOM      6  C   UNL     1       7.411  -0.698   0.413  1.00  0.00    -0.044 A 
ATOM      7  C   UNL     1       7.294  -0.406  -0.951  1.00  0.00     0.008 A 
ATOM      8  C   UNL     1       7.912  -1.925   0.786  1.00  0.00     0.054 A 
ATOM      9  C   UNL     1       7.681  -1.358  -1.877  1.00  0.00     0.051 A 
ATOM     10  C   UNL     1       8.303  -2.883  -0.154  1.00  0.00     0.166 A 
ATOM     11  C   UNL     1       8.186  -2.598  -1.496  1.00  0.00     0.165 A 
ATOM     12  O   UNL     1       8.821  -4.156  -0.039  1.00  0.00    -0.454 OA
ATOM     13  O   UNL     1       8.641  -3.712  -2.184  1.00  0.00    -0.454 OA
ATOM     14  C   UNL     1       9.137  -4.688  -1.299  1.00  0.00     0.468 C 
ENDBRANCH   5   6
ENDBRANCH   1   5
TORSDOF 3
ENDMDL
MODEL 4
REMARK VINA RESULT:      -7.1      1.242      1.445
REMARK SMILES CC(=O)CCc1ccc2c(c1)OCO2
REMARK SMILES IDX 4 1 2 2 1 3 3 4 5 5 6 6 7 7 11 8 8 9 10 10 9 11 12 12 14 13
REMARK SMILES IDX 13 14
REMARK H PARENT
REMARK Flexibility Score: inf
ROOT
ATOM      1  C   UNL     1       6.377   1.191   0.932  1.00  0.00     0.080 C 
ENDROOT
BRANCH   1   2
ATOM      2  C   UNL     1       5.658   0.370   1.946  1.00  0.00     0.130 C 
ATOM      3  C   UNL     1       6.262  -0.858   2.527  1.00  0.00     0.087 C 
ATOM      4  O   UNL     1       4.543   0.685   2.330  1.00  0.00    -0.300 OA
ENDBRANCH   1   2
BRANCH   1   5
ATOM      5  C   UNL     1       5.864   0.913  -0.467  1.00  0.00     0.043 C 
BRANCH   5   6
ATOM      6  C   UNL     1       6.812   0.096  -1.244  1.00  0.00    -0.044 A 
ATOM      7  C   UNL     1       7.491   0.616  -2.352  1.00  0.00     0.008 A 
ATOM      8  C   UNL     1       7.046  -1.211  -0.880  1.00  0.00     0.054 A 
ATOM      9  C   UNL     1       8.370  -0.198  -3.043  1.00  0.00     0.051 A 
ATOM     10  C   UNL     1       7.936  -2.029  -1.582  1.00  0.00     0.166 A 
ATOM     11  C   UNL     1       8.603  -1.518  -2.673  1.00  0.00     0.165 A 
ATOM     12  O   UNL     1       8.333  -3.340  -1.421  1.00  0.00    -0.454 OA
ATOM     13  O   UNL     1       9.406  -2.536  -3.164  1.00  0.00    -0.454 OA
ATOM     14  C   UNL     1       9.334  -3.680  -2.347  1.00  0.00     0.468 C 
ENDBRANCH   5   6
ENDBRANCH   1   5
TORSDOF 3
ENDMDL
MODEL 5
REMARK VINA RESULT:      -6.8      1.250      1.735
REMARK SMILES CC(=O)CCc1ccc2c(c1)OCO2
REMARK SMILES IDX 4 1 2 2 1 3 3 4 5 5 6 6 7 7 11 8 8 9 10 10 9 11 12 12 14 13
REMARK SMILES IDX 13 14
REMARK H PARENT
REMARK Flexibility Score: inf
ROOT
ATOM      1  C   UNL     1       5.346  -0.091   1.936  1.00  0.00     0.080 C 
ENDROOT
BRANCH   1   2
ATOM      2  C   UNL     1       4.466   1.100   1.778  1.00  0.00     0.130 C 
ATOM      3  C   UNL     1       4.749   2.150   0.763  1.00  0.00     0.087 C 
ATOM      4  O   UNL     1       3.481   1.250   2.482  1.00  0.00    -0.300 OA
ENDBRANCH   1   2
BRANCH   1   5
ATOM      5  C   UNL     1       6.811   0.296   1.889  1.00  0.00     0.043 C 
BRANCH   5   6
ATOM      6  C   UNL     1       7.426  -0.049   0.595  1.00  0.00    -0.044 A 
ATOM      7  C   UNL     1       7.948   0.933  -0.254  1.00  0.00     0.008 A 
ATOM      8  C   UNL     1       7.496  -1.367   0.203  1.00  0.00     0.054 A 
ATOM      9  C   UNL     1       8.514   0.550  -1.456  1.00  0.00     0.051 A 
ATOM     10  C   UNL     1       8.070  -1.749  -1.013  1.00  0.00     0.166 A 
ATOM     11  C   UNL     1       8.582  -0.783  -1.850  1.00  0.00     0.165 A 
ATOM     12  O   UNL     1       8.256  -2.973  -1.621  1.00  0.00    -0.454 OA
ATOM     13  O   UNL     1       9.079  -1.440  -2.965  1.00  0.00    -0.454 OA
ATOM     14  C   UNL     1       8.975  -2.836  -2.820  1.00  0.00     0.468 C 
ENDBRANCH   5   6
ENDBRANCH   1   5
TORSDOF 3
ENDMDL
