@<TRIPOS>MOLECULE
/home/cewinharhar/GITHUB/reincatalyze/data/processed/docking_pred/2023-May-31-1438_sub9_nm5_bs15_s42_ex16_mel10_mts1000_k50_ec05_g099_lra9e-4_lrc3e-3/6070aa1b8336213875ea865ca7f6d729a9af33a9_ligand_9.pdbqt
 14 15 0 0 0
SMALL
GASTEIGER

@<TRIPOS>ATOM
      1  C          5.7830    1.3210   -0.2970 C.3     1  UNL1        0.0800
      2  C          5.2170    1.2300    1.0780 C.2     1  UNL1        0.1300
      3  C          5.4130    0.0220    1.9240 C.3     1  UNL1        0.0870
      4  O          4.5710    2.1500    1.5530 O.2     1  UNL1       -0.3000
      5  C          7.2800    1.0840   -0.2930 C.3     1  UNL1        0.0430
      6  C          7.6290   -0.2170   -0.8900 C.2     1  UNL1       -0.0440
      7  C          7.6320   -0.4100   -2.2760 C.2     1  UNL1        0.0080
      8  C          7.9640   -1.2740   -0.0750 C.2     1  UNL1        0.0540
      9  C          7.9690   -1.6530   -2.7800 C.2     1  UNL1        0.0510
     10  C          8.3050   -2.5290   -0.5900 C.2     1  UNL1        0.1660
     11  C          8.3060   -2.7200   -1.9530 C.2     1  UNL1        0.1650
     12  O          8.6690   -3.7200    0.0020 O.2     1  UNL1       -0.4540
     13  O          8.6760   -4.0380   -2.1730 O.2     1  UNL1       -0.4540
     14  C          9.0030   -4.6820   -0.9650 C.3     1  UNL1        0.4680
@<TRIPOS>BOND
     1     9     7    1
     2     9    11    2
     3     7     6    2
     4    13    11    1
     5    13    14    1
     6    11    10    1
     7    14    12    1
     8     6     5    1
     9     6     8    1
    10    10     8    2
    11    10    12    1
    12     1     5    1
    13     1     2    1
    14     2     4    2
    15     2     3    1
