@<TRIPOS>MOLECULE
/home/cewinharhar/GITHUB/reincatalyze/data/processed/docking_pred/2023-May-31-1438_sub9_nm5_bs15_s42_ex16_mel10_mts1000_k50_ec05_g099_lra9e-4_lrc3e-3/6070aa1b8336213875ea865ca7f6d729a9af33a9_ligand_9.pdbqt
 14 15 0 0 0
SMALL
GASTEIGER

@<TRIPOS>ATOM
      1  C          6.3790    1.2100    0.9490 C.3     1  UNL1        0.0800
      2  C          5.6530    0.3650    1.9370 C.2     1  UNL1        0.1300
      3  C          6.2600   -0.8680    2.5070 C.3     1  UNL1        0.0870
      4  O          4.5290    0.6620    2.3100 O.2     1  UNL1       -0.3000
      5  C          5.8790    0.9620   -0.4600 C.3     1  UNL1        0.0430
      6  C          6.8180    0.1320   -1.2360 C.2     1  UNL1       -0.0440
      7  C          7.5040    0.6420   -2.3440 C.2     1  UNL1        0.0080
      8  C          7.0340   -1.1770   -0.8690 C.2     1  UNL1        0.0540
      9  C          8.3740   -0.1840   -3.0330 C.2     1  UNL1        0.0510
     10  C          7.9150   -2.0080   -1.5680 C.2     1  UNL1        0.1660
     11  C          8.5900   -1.5070   -2.6590 C.2     1  UNL1        0.1650
     12  O          8.2960   -3.3230   -1.4060 O.2     1  UNL1       -0.4540
     13  O          9.3810   -2.5350   -3.1480 O.2     1  UNL1       -0.4540
     14  C          9.2940   -3.6770   -2.3290 C.3     1  UNL1        0.4680
@<TRIPOS>BOND
     1    13    11    1
     2    13    14    1
     3     9    11    2
     4     9     7    1
     5    11    10    1
     6     7     6    2
     7    14    12    1
     8    10    12    1
     9    10     8    2
    10     6     8    1
    11     6     5    1
    12     5     1    1
    13     1     2    1
    14     2     4    2
    15     2     3    1
