MODEL 1
REMARK VINA RESULT:      -7.6      0.000      0.000
REMARK SMILES CC(=O)CCc1ccc2c(c1)OCO2
REMARK SMILES IDX 4 1 2 2 1 3 3 4 5 5 6 6 7 7 11 8 8 9 10 10 9 11 12 12 14 13
REMARK SMILES IDX 13 14
REMARK H PARENT
REMARK Flexibility Score: inf
ROOT
ATOM      1  C   UNL     1       5.505   1.923   1.259  1.00  0.00     0.080 C 
ENDROOT
BRANCH   1   2
ATOM      2  C   UNL     1       5.050   0.709   1.994  1.00  0.00     0.130 C 
ATOM      3  C   UNL     1       5.921  -0.488   2.139  1.00  0.00     0.087 C 
ATOM      4  O   UNL     1       3.941   0.663   2.502  1.00  0.00    -0.300 OA
ENDBRANCH   1   2
BRANCH   1   5
ATOM      5  C   UNL     1       5.385   1.735  -0.240  1.00  0.00     0.043 C 
BRANCH   5   6
ATOM      6  C   UNL     1       6.556   1.035  -0.799  1.00  0.00    -0.044 A 
ATOM      7  C   UNL     1       7.861   1.471  -0.544  1.00  0.00     0.008 A 
ATOM      8  C   UNL     1       6.373  -0.077  -1.589  1.00  0.00     0.054 A 
ATOM      9  C   UNL     1       8.921   0.774  -1.094  1.00  0.00     0.051 A 
ATOM     10  C   UNL     1       7.447  -0.779  -2.142  1.00  0.00     0.166 A 
ATOM     11  C   UNL     1       8.732  -0.350  -1.893  1.00  0.00     0.165 A 
ATOM     12  O   UNL     1       7.526  -1.895  -2.948  1.00  0.00    -0.454 OA
ATOM     13  O   UNL     1       9.581  -1.221  -2.557  1.00  0.00    -0.454 OA
ATOM     14  C   UNL     1       8.863  -2.268  -3.164  1.00  0.00     0.468 C 
ENDBRANCH   5   6
ENDBRANCH   1   5
TORSDOF 3
ENDMDL
MODEL 2
REMARK VINA RESULT:      -7.4      1.935      2.423
REMARK SMILES CC(=O)CCc1ccc2c(c1)OCO2
REMARK SMILES IDX 4 1 2 2 1 3 3 4 5 5 6 6 7 7 11 8 8 9 10 10 9 11 12 12 14 13
REMARK SMILES IDX 13 14
REMARK H PARENT
REMARK Flexibility Score: inf
ROOT
ATOM      1  C   UNL     1       5.783   1.321  -0.297  1.00  0.00     0.080 C 
ENDROOT
BRANCH   1   2
ATOM      2  C   UNL     1       5.217   1.230   1.078  1.00  0.00     0.130 C 
ATOM      3  C   UNL     1       5.413   0.022   1.924  1.00  0.00     0.087 C 
ATOM      4  O   UNL     1       4.571   2.150   1.553  1.00  0.00    -0.300 OA
ENDBRANCH   1   2
BRANCH   1   5
ATOM      5  C   UNL     1       7.280   1.084  -0.293  1.00  0.00     0.043 C 
BRANCH   5   6
ATOM      6  C   UNL     1       7.629  -0.217  -0.890  1.00  0.00    -0.044 A 
ATOM      7  C   UNL     1       7.632  -0.410  -2.276  1.00  0.00     0.008 A 
ATOM      8  C   UNL     1       7.964  -1.274  -0.075  1.00  0.00     0.054 A 
ATOM      9  C   UNL     1       7.969  -1.653  -2.780  1.00  0.00     0.051 A 
ATOM     10  C   UNL     1       8.305  -2.529  -0.590  1.00  0.00     0.166 A 
ATOM     11  C   UNL     1       8.306  -2.720  -1.953  1.00  0.00     0.165 A 
ATOM     12  O   UNL     1       8.669  -3.720   0.002  1.00  0.00    -0.454 OA
ATOM     13  O   UNL     1       8.676  -4.038  -2.173  1.00  0.00    -0.454 OA
ATOM     14  C   UNL     1       9.003  -4.682  -0.965  1.00  0.00     0.468 C 
ENDBRANCH   5   6
ENDBRANCH   1   5
TORSDOF 3
ENDMDL
MODEL 3
REMARK VINA RESULT:      -7.1      2.092      2.608
REMARK SMILES CC(=O)CCc1ccc2c(c1)OCO2
REMARK SMILES IDX 4 1 2 2 1 3 3 4 5 5 6 6 7 7 11 8 8 9 10 10 9 11 12 12 14 13
REMARK SMILES IDX 13 14
REMARK H PARENT
REMARK Flexibility Score: inf
ROOT
ATOM      1  C   UNL     1       5.594   0.019   1.951  1.00  0.00     0.080 C 
ENDROOT
BRANCH   1   2
ATOM      2  C   UNL     1       4.712   1.181   1.649  1.00  0.00     0.130 C 
ATOM      3  C   UNL     1       5.007   2.115   0.530  1.00  0.00     0.087 C 
ATOM      4  O   UNL     1       3.714   1.400   2.317  1.00  0.00    -0.300 OA
ENDBRANCH   1   2
BRANCH   1   5
ATOM      5  C   UNL     1       7.016   0.274   1.492  1.00  0.00     0.043 C 
BRANCH   5   6
ATOM      6  C   UNL     1       7.433  -0.679   0.448  1.00  0.00    -0.044 A 
ATOM      7  C   UNL     1       7.382  -0.348  -0.910  1.00  0.00     0.008 A 
ATOM      8  C   UNL     1       7.888  -1.928   0.808  1.00  0.00     0.054 A 
ATOM      9  C   UNL     1       7.787  -1.283  -1.845  1.00  0.00     0.051 A 
ATOM     10  C   UNL     1       8.297  -2.870  -0.141  1.00  0.00     0.166 A 
ATOM     11  C   UNL     1       8.246  -2.545  -1.479  1.00  0.00     0.165 A 
ATOM     12  O   UNL     1       8.779  -4.157  -0.040  1.00  0.00    -0.454 OA
ATOM     13  O   UNL     1       8.704  -3.651  -2.178  1.00  0.00    -0.454 OA
ATOM     14  C   UNL     1       9.138  -4.662  -1.300  1.00  0.00     0.468 C 
ENDBRANCH   5   6
ENDBRANCH   1   5
TORSDOF 3
ENDMDL
MODEL 4
REMARK VINA RESULT:      -7.1      1.254      1.459
REMARK SMILES CC(=O)CCc1ccc2c(c1)OCO2
REMARK SMILES IDX 4 1 2 2 1 3 3 4 5 5 6 6 7 7 11 8 8 9 10 10 9 11 12 12 14 13
REMARK SMILES IDX 13 14
REMARK H PARENT
REMARK Flexibility Score: inf
ROOT
ATOM      1  C   UNL     1       6.379   1.210   0.949  1.00  0.00     0.080 C 
ENDROOT
BRANCH   1   2
ATOM      2  C   UNL     1       5.653   0.365   1.937  1.00  0.00     0.130 C 
ATOM      3  C   UNL     1       6.260  -0.868   2.507  1.00  0.00     0.087 C 
ATOM      4  O   UNL     1       4.529   0.662   2.310  1.00  0.00    -0.300 OA
ENDBRANCH   1   2
BRANCH   1   5
ATOM      5  C   UNL     1       5.879   0.962  -0.460  1.00  0.00     0.043 C 
BRANCH   5   6
ATOM      6  C   UNL     1       6.818   0.132  -1.236  1.00  0.00    -0.044 A 
ATOM      7  C   UNL     1       7.504   0.642  -2.344  1.00  0.00     0.008 A 
ATOM      8  C   UNL     1       7.034  -1.177  -0.869  1.00  0.00     0.054 A 
ATOM      9  C   UNL     1       8.374  -0.184  -3.033  1.00  0.00     0.051 A 
ATOM     10  C   UNL     1       7.915  -2.008  -1.568  1.00  0.00     0.166 A 
ATOM     11  C   UNL     1       8.590  -1.507  -2.659  1.00  0.00     0.165 A 
ATOM     12  O   UNL     1       8.296  -3.323  -1.406  1.00  0.00    -0.454 OA
ATOM     13  O   UNL     1       9.381  -2.535  -3.148  1.00  0.00    -0.454 OA
ATOM     14  C   UNL     1       9.294  -3.677  -2.329  1.00  0.00     0.468 C 
ENDBRANCH   5   6
ENDBRANCH   1   5
TORSDOF 3
ENDMDL
MODEL 5
REMARK VINA RESULT:      -6.8      1.249      1.747
REMARK SMILES CC(=O)CCc1ccc2c(c1)OCO2
REMARK SMILES IDX 4 1 2 2 1 3 3 4 5 5 6 6 7 7 11 8 8 9 10 10 9 11 12 12 14 13
REMARK SMILES IDX 13 14
REMARK H PARENT
REMARK Flexibility Score: inf
ROOT
ATOM      1  C   UNL     1       5.349  -0.081   1.964  1.00  0.00     0.080 C 
ENDROOT
BRANCH   1   2
ATOM      2  C   UNL     1       4.474   1.111   1.787  1.00  0.00     0.130 C 
ATOM      3  C   UNL     1       4.767   2.150   0.763  1.00  0.00     0.087 C 
ATOM      4  O   UNL     1       3.484   1.271   2.483  1.00  0.00    -0.300 OA
ENDBRANCH   1   2
BRANCH   1   5
ATOM      5  C   UNL     1       6.815   0.299   1.906  1.00  0.00     0.043 C 
BRANCH   5   6
ATOM      6  C   UNL     1       7.420  -0.050   0.609  1.00  0.00    -0.044 A 
ATOM      7  C   UNL     1       7.932   0.930  -0.249  1.00  0.00     0.008 A 
ATOM      8  C   UNL     1       7.491  -1.369   0.222  1.00  0.00     0.054 A 
ATOM      9  C   UNL     1       8.489   0.543  -1.455  1.00  0.00     0.051 A 
ATOM     10  C   UNL     1       8.055  -1.756  -0.997  1.00  0.00     0.166 A 
ATOM     11  C   UNL     1       8.558  -0.792  -1.843  1.00  0.00     0.165 A 
ATOM     12  O   UNL     1       8.240  -2.982  -1.601  1.00  0.00    -0.454 OA
ATOM     13  O   UNL     1       9.047  -1.453  -2.958  1.00  0.00    -0.454 OA
ATOM     14  C   UNL     1       8.948  -2.849  -2.806  1.00  0.00     0.468 C 
ENDBRANCH   5   6
ENDBRANCH   1   5
TORSDOF 3
ENDMDL
