@<TRIPOS>MOLECULE
/home/cewinharhar/GITHUB/reincatalyze/data/processed/docking_pred/2023-May-31-1438_sub9_nm5_bs15_s42_ex16_mel10_mts1000_k50_ec05_g099_lra9e-4_lrc3e-3/6070aa1b8336213875ea865ca7f6d729a9af33a9_ligand_9.pdbqt
 14 15 0 0 0
SMALL
GASTEIGER

@<TRIPOS>ATOM
      1  C          5.5940    0.0190    1.9510 C.3     1  UNL1        0.0800
      2  C          4.7120    1.1810    1.6490 C.2     1  UNL1        0.1300
      3  C          5.0070    2.1150    0.5300 C.3     1  UNL1        0.0870
      4  O          3.7140    1.4000    2.3170 O.2     1  UNL1       -0.3000
      5  C          7.0160    0.2740    1.4920 C.3     1  UNL1        0.0430
      6  C          7.4330   -0.6790    0.4480 C.2     1  UNL1       -0.0440
      7  C          7.3820   -0.3480   -0.9100 C.2     1  UNL1        0.0080
      8  C          7.8880   -1.9280    0.8080 C.2     1  UNL1        0.0540
      9  C          7.7870   -1.2830   -1.8450 C.2     1  UNL1        0.0510
     10  C          8.2970   -2.8700   -0.1410 C.2     1  UNL1        0.1660
     11  C          8.2460   -2.5450   -1.4790 C.2     1  UNL1        0.1650
     12  O          8.7790   -4.1570   -0.0400 O.2     1  UNL1       -0.4540
     13  O          8.7040   -3.6510   -2.1780 O.2     1  UNL1       -0.4540
     14  C          9.1380   -4.6620   -1.3000 C.3     1  UNL1        0.4680
@<TRIPOS>BOND
     1    13    11    1
     2    13    14    1
     3     9    11    2
     4     9     7    1
     5    11    10    1
     6    14    12    1
     7     7     6    2
     8    10    12    1
     9    10     8    2
    10     6     8    1
    11     6     5    1
    12     3     2    1
    13     5     1    1
    14     2     1    1
    15     2     4    2
