@<TRIPOS>MOLECULE
/home/cewinharhar/GITHUB/reincatalyze/data/processed/docking_pred/2023-May-31-1438_sub9_nm5_bs15_s42_ex16_mel10_mts1000_k50_ec05_g099_lra9e-4_lrc3e-3/6070aa1b8336213875ea865ca7f6d729a9af33a9_ligand_9.pdbqt
 14 15 0 0 0
SMALL
GASTEIGER

@<TRIPOS>ATOM
      1  C          5.5050    1.9230    1.2590 C.3     1  UNL1        0.0800
      2  C          5.0500    0.7090    1.9940 C.2     1  UNL1        0.1300
      3  C          5.9210   -0.4880    2.1390 C.3     1  UNL1        0.0870
      4  O          3.9410    0.6630    2.5020 O.2     1  UNL1       -0.3000
      5  C          5.3850    1.7350   -0.2400 C.3     1  UNL1        0.0430
      6  C          6.5560    1.0350   -0.7990 C.2     1  UNL1       -0.0440
      7  C          7.8610    1.4710   -0.5440 C.2     1  UNL1        0.0080
      8  C          6.3730   -0.0770   -1.5890 C.2     1  UNL1        0.0540
      9  C          8.9210    0.7740   -1.0940 C.2     1  UNL1        0.0510
     10  C          7.4470   -0.7790   -2.1420 C.2     1  UNL1        0.1660
     11  C          8.7320   -0.3500   -1.8930 C.2     1  UNL1        0.1650
     12  O          7.5260   -1.8950   -2.9480 O.2     1  UNL1       -0.4540
     13  O          9.5810   -1.2210   -2.5570 O.2     1  UNL1       -0.4540
     14  C          8.8630   -2.2680   -3.1640 C.3     1  UNL1        0.4680
@<TRIPOS>BOND
     1    14    12    1
     2    14    13    1
     3    12    10    1
     4    13    11    1
     5    10    11    2
     6    10     8    1
     7    11     9    1
     8     8     6    2
     9     9     7    2
    10     6     7    1
    11     6     5    1
    12     5     1    1
    13     1     2    1
    14     2     3    1
    15     2     4    2
