@<TRIPOS>MOLECULE
/home/cewinharhar/GITHUB/reincatalyze/data/processed/docking_pred/2023-May-31-1438_sub9_nm5_bs15_s42_ex16_mel10_mts1000_k50_ec05_g099_lra9e-4_lrc3e-3/6070aa1b8336213875ea865ca7f6d729a9af33a9_ligand_9.pdbqt
 14 15 0 0 0
SMALL
GASTEIGER

@<TRIPOS>ATOM
      1  C          5.3490   -0.0810    1.9640 C.3     1  UNL1        0.0800
      2  C          4.4740    1.1110    1.7870 C.2     1  UNL1        0.1300
      3  C          4.7670    2.1500    0.7630 C.3     1  UNL1        0.0870
      4  O          3.4840    1.2710    2.4830 O.2     1  UNL1       -0.3000
      5  C          6.8150    0.2990    1.9060 C.3     1  UNL1        0.0430
      6  C          7.4200   -0.0500    0.6090 C.2     1  UNL1       -0.0440
      7  C          7.9320    0.9300   -0.2490 C.2     1  UNL1        0.0080
      8  C          7.4910   -1.3690    0.2220 C.2     1  UNL1        0.0540
      9  C          8.4890    0.5430   -1.4550 C.2     1  UNL1        0.0510
     10  C          8.0550   -1.7560   -0.9970 C.2     1  UNL1        0.1660
     11  C          8.5580   -0.7920   -1.8430 C.2     1  UNL1        0.1650
     12  O          8.2400   -2.9820   -1.6010 O.2     1  UNL1       -0.4540
     13  O          9.0470   -1.4530   -2.9580 O.2     1  UNL1       -0.4540
     14  C          8.9480   -2.8490   -2.8060 C.3     1  UNL1        0.4680
@<TRIPOS>BOND
     1    13    14    1
     2    13    11    1
     3    14    12    1
     4    11     9    2
     5    11    10    1
     6    12    10    1
     7     9     7    1
     8    10     8    2
     9     7     6    2
    10     8     6    1
    11     6     5    1
    12     3     2    1
    13     2     1    1
    14     2     4    2
    15     5     1    1
