@<TRIPOS>MOLECULE
/home/cewinharhar/GITHUB/reincatalyze/data/processed/docking_pred/2023-May-31-1438_sub9_nm5_bs15_s42_ex16_mel10_mts1000_k50_ec05_g099_lra9e-4_lrc3e-3/62f66f9004302081042513b5faa006f3d97c65a4_ligand_9.pdbqt
 14 15 0 0 0
SMALL
GASTEIGER

@<TRIPOS>ATOM
      1  C          5.8620    1.3160   -0.2900 C.3     1  UNL1        0.0800
      2  C          5.2720    1.1380    1.0660 C.2     1  UNL1        0.1300
      3  C          5.6210   -0.0260    1.9230 C.3     1  UNL1        0.0870
      4  O          4.4770    1.9490    1.5140 O.2     1  UNL1       -0.3000
      5  C          7.3770    1.3010   -0.2370 C.3     1  UNL1        0.0430
      6  C          7.9410    0.1880   -1.0210 C.2     1  UNL1       -0.0440
      7  C          7.3310   -0.2620   -2.1980 C.2     1  UNL1        0.0080
      8  C          9.0960   -0.4290   -0.5970 C.2     1  UNL1        0.0540
      9  C          7.9070   -1.3100   -2.8930 C.2     1  UNL1        0.0510
     10  C          9.6740   -1.4880   -1.3040 C.2     1  UNL1        0.1660
     11  C          9.0740   -1.9320   -2.4610 C.2     1  UNL1        0.1650
     12  O         10.8000   -2.2550   -1.0930 O.2     1  UNL1       -0.4540
     13  O          9.8520   -2.9730   -2.9420 O.2     1  UNL1       -0.4540
     14  C         11.0050   -3.1520   -2.1550 C.3     1  UNL1        0.4680
@<TRIPOS>BOND
     1    13    11    1
     2    13    14    1
     3     9    11    2
     4     9     7    1
     5    11    10    1
     6     7     6    2
     7    14    12    1
     8    10    12    1
     9    10     8    2
    10     6     8    1
    11     6     5    1
    12     1     5    1
    13     1     2    1
    14     2     4    2
    15     2     3    1
