@<TRIPOS>MOLECULE
/home/cewinharhar/GITHUB/reincatalyze/data/processed/docking_pred/2023-May-31-1438_sub9_nm5_bs15_s42_ex16_mel10_mts1000_k50_ec05_g099_lra9e-4_lrc3e-3/62f66f9004302081042513b5faa006f3d97c65a4_ligand_9.pdbqt
 14 15 0 0 0
SMALL
GASTEIGER

@<TRIPOS>ATOM
      1  C          6.8490    0.3230    1.0370 C.3     1  UNL1        0.0800
      2  C          5.5350    0.9590    1.3300 C.2     1  UNL1        0.1300
      3  C          4.9900    2.0510    0.4790 C.3     1  UNL1        0.0870
      4  O          4.8630    0.6000    2.2830 O.2     1  UNL1       -0.3000
      5  C          7.4980    0.9370   -0.1870 C.3     1  UNL1        0.0430
      6  C          8.1220   -0.0850   -1.0460 C.2     1  UNL1       -0.0440
      7  C          7.6810   -0.3120   -2.3540 C.2     1  UNL1        0.0080
      8  C          9.1670   -0.8390   -0.5610 C.2     1  UNL1        0.0540
      9  C          8.3050   -1.2840   -3.1140 C.2     1  UNL1        0.0510
     10  C          9.7950   -1.8200   -1.3330 C.2     1  UNL1        0.1660
     11  C          9.3610   -2.0450   -2.6200 C.2     1  UNL1        0.1650
     12  O         10.8370   -2.6880   -1.0830 O.2     1  UNL1       -0.4540
     13  O         10.1530   -3.0560   -3.1400 O.2     1  UNL1       -0.4540
     14  C         11.1600   -3.4310   -2.2310 C.3     1  UNL1        0.4680
@<TRIPOS>BOND
     1    13    11    1
     2    13    14    1
     3     9    11    2
     4     9     7    1
     5    11    10    1
     6     7     6    2
     7    14    12    1
     8    10    12    1
     9    10     8    2
    10     6     8    1
    11     6     5    1
    12     5     1    1
    13     3     2    1
    14     1     2    1
    15     2     4    2
