MODEL 1
REMARK VINA RESULT:      -8.2      0.000      0.000
REMARK SMILES CC(=O)CCc1ccc2c(c1)OCO2
REMARK SMILES IDX 4 1 2 2 1 3 3 4 5 5 6 6 7 7 11 8 8 9 10 10 9 11 12 12 14 13
REMARK SMILES IDX 13 14
REMARK H PARENT
REMARK Flexibility Score: inf
ROOT
ATOM      1  C   UNL     1       5.842   1.619   0.886  1.00  0.00     0.080 C 
ENDROOT
BRANCH   1   2
ATOM      2  C   UNL     1       5.384   0.599   1.870  1.00  0.00     0.130 C 
ATOM      3  C   UNL     1       6.223  -0.577   2.222  1.00  0.00     0.087 C 
ATOM      4  O   UNL     1       4.299   0.701   2.419  1.00  0.00    -0.300 OA
ENDBRANCH   1   2
BRANCH   1   5
ATOM      5  C   UNL     1       5.756   1.093  -0.533  1.00  0.00     0.043 C 
BRANCH   5   6
ATOM      6  C   UNL     1       7.004   0.424  -0.944  1.00  0.00    -0.044 A 
ATOM      7  C   UNL     1       8.255   1.017  -0.738  1.00  0.00     0.008 A 
ATOM      8  C   UNL     1       6.949  -0.813  -1.544  1.00  0.00     0.054 A 
ATOM      9  C   UNL     1       9.392   0.342  -1.143  1.00  0.00     0.051 A 
ATOM     10  C   UNL     1       8.102  -1.491  -1.952  1.00  0.00     0.166 A 
ATOM     11  C   UNL     1       9.333  -0.909  -1.750  1.00  0.00     0.165 A 
ATOM     12  O   UNL     1       8.309  -2.711  -2.561  1.00  0.00    -0.454 OA
ATOM     13  O   UNL     1      10.281  -1.792  -2.244  1.00  0.00    -0.454 OA
ATOM     14  C   UNL     1       9.680  -2.987  -2.685  1.00  0.00     0.468 C 
ENDBRANCH   5   6
ENDBRANCH   1   5
TORSDOF 3
ENDMDL
MODEL 2
REMARK VINA RESULT:      -7.6      1.080      1.788
REMARK SMILES CC(=O)CCc1ccc2c(c1)OCO2
REMARK SMILES IDX 4 1 2 2 1 3 3 4 5 5 6 6 7 7 11 8 8 9 10 10 9 11 12 12 14 13
REMARK SMILES IDX 13 14
REMARK H PARENT
REMARK Flexibility Score: inf
ROOT
ATOM      1  C   UNL     1       5.862   1.316  -0.290  1.00  0.00     0.080 C 
ENDROOT
BRANCH   1   2
ATOM      2  C   UNL     1       5.272   1.138   1.066  1.00  0.00     0.130 C 
ATOM      3  C   UNL     1       5.621  -0.026   1.923  1.00  0.00     0.087 C 
ATOM      4  O   UNL     1       4.477   1.949   1.514  1.00  0.00    -0.300 OA
ENDBRANCH   1   2
BRANCH   1   5
ATOM      5  C   UNL     1       7.377   1.301  -0.237  1.00  0.00     0.043 C 
BRANCH   5   6
ATOM      6  C   UNL     1       7.941   0.188  -1.021  1.00  0.00    -0.044 A 
ATOM      7  C   UNL     1       7.331  -0.262  -2.198  1.00  0.00     0.008 A 
ATOM      8  C   UNL     1       9.096  -0.429  -0.597  1.00  0.00     0.054 A 
ATOM      9  C   UNL     1       7.907  -1.310  -2.893  1.00  0.00     0.051 A 
ATOM     10  C   UNL     1       9.674  -1.488  -1.304  1.00  0.00     0.166 A 
ATOM     11  C   UNL     1       9.074  -1.932  -2.461  1.00  0.00     0.165 A 
ATOM     12  O   UNL     1      10.800  -2.255  -1.093  1.00  0.00    -0.454 OA
ATOM     13  O   UNL     1       9.852  -2.973  -2.942  1.00  0.00    -0.454 OA
ATOM     14  C   UNL     1      11.005  -3.152  -2.155  1.00  0.00     0.468 C 
ENDBRANCH   5   6
ENDBRANCH   1   5
TORSDOF 3
ENDMDL
MODEL 3
REMARK VINA RESULT:      -7.4      2.006      2.498
REMARK SMILES CC(=O)CCc1ccc2c(c1)OCO2
REMARK SMILES IDX 4 1 2 2 1 3 3 4 5 5 6 6 7 7 11 8 8 9 10 10 9 11 12 12 14 13
REMARK SMILES IDX 13 14
REMARK H PARENT
REMARK Flexibility Score: inf
ROOT
ATOM      1  C   UNL     1       6.177   0.624   1.590  1.00  0.00     0.080 C 
ENDROOT
BRANCH   1   2
ATOM      2  C   UNL     1       5.107   1.535   1.096  1.00  0.00     0.130 C 
ATOM      3  C   UNL     1       5.168   2.150  -0.257  1.00  0.00     0.087 C 
ATOM      4  O   UNL     1       4.142   1.804   1.793  1.00  0.00    -0.300 OA
ENDBRANCH   1   2
BRANCH   1   5
ATOM      5  C   UNL     1       6.475  -0.472   0.585  1.00  0.00     0.043 C 
BRANCH   5   6
ATOM      6  C   UNL     1       7.892  -0.472   0.181  1.00  0.00    -0.044 A 
ATOM      7  C   UNL     1       8.413   0.513  -0.665  1.00  0.00     0.008 A 
ATOM      8  C   UNL     1       8.733  -1.459   0.643  1.00  0.00     0.054 A 
ATOM      9  C   UNL     1       9.752   0.462  -1.010  1.00  0.00     0.051 A 
ATOM     10  C   UNL     1      10.086  -1.506   0.292  1.00  0.00     0.166 A 
ATOM     11  C   UNL     1      10.599  -0.538  -0.542  1.00  0.00     0.165 A 
ATOM     12  O   UNL     1      11.110  -2.370   0.614  1.00  0.00    -0.454 OA
ATOM     13  O   UNL     1      11.943  -0.830  -0.716  1.00  0.00    -0.454 OA
ATOM     14  C   UNL     1      12.329  -1.931   0.071  1.00  0.00     0.468 C 
ENDBRANCH   5   6
ENDBRANCH   1   5
TORSDOF 3
ENDMDL
MODEL 4
REMARK VINA RESULT:      -7.4      1.247      2.017
REMARK SMILES CC(=O)CCc1ccc2c(c1)OCO2
REMARK SMILES IDX 4 1 2 2 1 3 3 4 5 5 6 6 7 7 11 8 8 9 10 10 9 11 12 12 14 13
REMARK SMILES IDX 13 14
REMARK H PARENT
REMARK Flexibility Score: inf
ROOT
ATOM      1  C   UNL     1       6.849   0.323   1.037  1.00  0.00     0.080 C 
ENDROOT
BRANCH   1   2
ATOM      2  C   UNL     1       5.535   0.959   1.330  1.00  0.00     0.130 C 
ATOM      3  C   UNL     1       4.990   2.051   0.479  1.00  0.00     0.087 C 
ATOM      4  O   UNL     1       4.863   0.600   2.283  1.00  0.00    -0.300 OA
ENDBRANCH   1   2
BRANCH   1   5
ATOM      5  C   UNL     1       7.498   0.937  -0.187  1.00  0.00     0.043 C 
BRANCH   5   6
ATOM      6  C   UNL     1       8.122  -0.085  -1.046  1.00  0.00    -0.044 A 
ATOM      7  C   UNL     1       7.681  -0.312  -2.354  1.00  0.00     0.008 A 
ATOM      8  C   UNL     1       9.167  -0.839  -0.561  1.00  0.00     0.054 A 
ATOM      9  C   UNL     1       8.305  -1.284  -3.114  1.00  0.00     0.051 A 
ATOM     10  C   UNL     1       9.795  -1.820  -1.333  1.00  0.00     0.166 A 
ATOM     11  C   UNL     1       9.361  -2.045  -2.620  1.00  0.00     0.165 A 
ATOM     12  O   UNL     1      10.837  -2.688  -1.083  1.00  0.00    -0.454 OA
ATOM     13  O   UNL     1      10.153  -3.056  -3.140  1.00  0.00    -0.454 OA
ATOM     14  C   UNL     1      11.160  -3.431  -2.231  1.00  0.00     0.468 C 
ENDBRANCH   5   6
ENDBRANCH   1   5
TORSDOF 3
ENDMDL
MODEL 5
REMARK VINA RESULT:      -7.3      1.433      2.222
REMARK SMILES CC(=O)CCc1ccc2c(c1)OCO2
REMARK SMILES IDX 4 1 2 2 1 3 3 4 5 5 6 6 7 7 11 8 8 9 10 10 9 11 12 12 14 13
REMARK SMILES IDX 13 14
REMARK H PARENT
REMARK Flexibility Score: inf
ROOT
ATOM      1  C   UNL     1       6.747   0.035   1.729  1.00  0.00     0.080 C 
ENDROOT
BRANCH   1   2
ATOM      2  C   UNL     1       5.461   0.775   1.592  1.00  0.00     0.130 C 
ATOM      3  C   UNL     1       5.217   1.715   0.466  1.00  0.00     0.087 C 
ATOM      4  O   UNL     1       4.565   0.631   2.408  1.00  0.00    -0.300 OA
ENDBRANCH   1   2
BRANCH   1   5
ATOM      5  C   UNL     1       6.595  -1.414   1.308  1.00  0.00     0.043 C 
BRANCH   5   6
ATOM      6  C   UNL     1       7.368  -1.712   0.090  1.00  0.00    -0.044 A 
ATOM      7  C   UNL     1       6.998  -1.196  -1.158  1.00  0.00     0.008 A 
ATOM      8  C   UNL     1       8.483  -2.515   0.169  1.00  0.00     0.054 A 
ATOM      9  C   UNL     1       7.762  -1.510  -2.267  1.00  0.00     0.051 A 
ATOM     10  C   UNL     1       9.252  -2.829  -0.955  1.00  0.00     0.166 A 
ATOM     11  C   UNL     1       8.889  -2.323  -2.183  1.00  0.00     0.165 A 
ATOM     12  O   UNL     1      10.386  -3.593  -1.135  1.00  0.00    -0.454 OA
ATOM     13  O   UNL     1       9.817  -2.790  -3.101  1.00  0.00    -0.454 OA
ATOM     14  C   UNL     1      10.835  -3.525  -2.464  1.00  0.00     0.468 C 
ENDBRANCH   5   6
ENDBRANCH   1   5
TORSDOF 3
ENDMDL
