@<TRIPOS>MOLECULE
/home/cewinharhar/GITHUB/reincatalyze/data/processed/docking_pred/2023-May-31-1438_sub9_nm5_bs15_s42_ex16_mel10_mts1000_k50_ec05_g099_lra9e-4_lrc3e-3/62f66f9004302081042513b5faa006f3d97c65a4_ligand_9.pdbqt
 14 15 0 0 0
SMALL
GASTEIGER

@<TRIPOS>ATOM
      1  C          6.7470    0.0350    1.7290 C.3     1  UNL1        0.0800
      2  C          5.4610    0.7750    1.5920 C.2     1  UNL1        0.1300
      3  C          5.2170    1.7150    0.4660 C.3     1  UNL1        0.0870
      4  O          4.5650    0.6310    2.4080 O.2     1  UNL1       -0.3000
      5  C          6.5950   -1.4140    1.3080 C.3     1  UNL1        0.0430
      6  C          7.3680   -1.7120    0.0900 C.2     1  UNL1       -0.0440
      7  C          6.9980   -1.1960   -1.1580 C.2     1  UNL1        0.0080
      8  C          8.4830   -2.5150    0.1690 C.2     1  UNL1        0.0540
      9  C          7.7620   -1.5100   -2.2670 C.2     1  UNL1        0.0510
     10  C          9.2520   -2.8290   -0.9550 C.2     1  UNL1        0.1660
     11  C          8.8890   -2.3230   -2.1830 C.2     1  UNL1        0.1650
     12  O         10.3860   -3.5930   -1.1350 O.2     1  UNL1       -0.4540
     13  O          9.8170   -2.7900   -3.1010 O.2     1  UNL1       -0.4540
     14  C         10.8350   -3.5250   -2.4640 C.3     1  UNL1        0.4680
@<TRIPOS>BOND
     1    13    14    1
     2    13    11    1
     3    14    12    1
     4     9    11    2
     5     9     7    1
     6    11    10    1
     7     7     6    2
     8    12    10    1
     9    10     8    2
    10     6     8    1
    11     6     5    1
    12     3     2    1
    13     5     1    1
    14     2     1    1
    15     2     4    2
