@<TRIPOS>MOLECULE
/home/cewinharhar/GITHUB/reincatalyze/data/processed/docking_pred/2023-May-31-1438_sub9_nm5_bs15_s42_ex16_mel10_mts1000_k50_ec05_g099_lra9e-4_lrc3e-3/62f66f9004302081042513b5faa006f3d97c65a4_ligand_9.pdbqt
 14 15 0 0 0
SMALL
GASTEIGER

@<TRIPOS>ATOM
      1  C          5.8420    1.6190    0.8860 C.3     1  UNL1        0.0800
      2  C          5.3840    0.5990    1.8700 C.2     1  UNL1        0.1300
      3  C          6.2230   -0.5770    2.2220 C.3     1  UNL1        0.0870
      4  O          4.2990    0.7010    2.4190 O.2     1  UNL1       -0.3000
      5  C          5.7560    1.0930   -0.5330 C.3     1  UNL1        0.0430
      6  C          7.0040    0.4240   -0.9440 C.2     1  UNL1       -0.0440
      7  C          8.2550    1.0170   -0.7380 C.2     1  UNL1        0.0080
      8  C          6.9490   -0.8130   -1.5440 C.2     1  UNL1        0.0540
      9  C          9.3920    0.3420   -1.1430 C.2     1  UNL1        0.0510
     10  C          8.1020   -1.4910   -1.9520 C.2     1  UNL1        0.1660
     11  C          9.3330   -0.9090   -1.7500 C.2     1  UNL1        0.1650
     12  O          8.3090   -2.7110   -2.5610 O.2     1  UNL1       -0.4540
     13  O         10.2810   -1.7920   -2.2440 O.2     1  UNL1       -0.4540
     14  C          9.6800   -2.9870   -2.6850 C.3     1  UNL1        0.4680
@<TRIPOS>BOND
     1    14    12    1
     2    14    13    1
     3    12    10    1
     4    13    11    1
     5    10    11    2
     6    10     8    1
     7    11     9    1
     8     8     6    2
     9     9     7    2
    10     6     7    1
    11     6     5    1
    12     5     1    1
    13     1     2    1
    14     2     3    1
    15     2     4    2
