@<TRIPOS>MOLECULE
/home/cewinharhar/GITHUB/reincatalyze/data/processed/docking_pred/2023-May-31-1438_sub9_nm5_bs15_s42_ex16_mel10_mts1000_k50_ec05_g099_lra9e-4_lrc3e-3/62f66f9004302081042513b5faa006f3d97c65a4_ligand_9.pdbqt
 14 15 0 0 0
SMALL
GASTEIGER

@<TRIPOS>ATOM
      1  C          6.1770    0.6240    1.5900 C.3     1  UNL1        0.0800
      2  C          5.1070    1.5350    1.0960 C.2     1  UNL1        0.1300
      3  C          5.1680    2.1500   -0.2570 C.3     1  UNL1        0.0870
      4  O          4.1420    1.8040    1.7930 O.2     1  UNL1       -0.3000
      5  C          6.4750   -0.4720    0.5850 C.3     1  UNL1        0.0430
      6  C          7.8920   -0.4720    0.1810 C.2     1  UNL1       -0.0440
      7  C          8.4130    0.5130   -0.6650 C.2     1  UNL1        0.0080
      8  C          8.7330   -1.4590    0.6430 C.2     1  UNL1        0.0540
      9  C          9.7520    0.4620   -1.0100 C.2     1  UNL1        0.0510
     10  C         10.0860   -1.5060    0.2920 C.2     1  UNL1        0.1660
     11  C         10.5990   -0.5380   -0.5420 C.2     1  UNL1        0.1650
     12  O         11.1100   -2.3700    0.6140 O.2     1  UNL1       -0.4540
     13  O         11.9430   -0.8300   -0.7160 O.2     1  UNL1       -0.4540
     14  C         12.3290   -1.9310    0.0710 C.3     1  UNL1        0.4680
@<TRIPOS>BOND
     1     9     7    1
     2     9    11    2
     3    13    11    1
     4    13    14    1
     5     7     6    2
     6    11    10    1
     7     3     2    1
     8    14    12    1
     9     6     5    1
    10     6     8    1
    11    10    12    1
    12    10     8    2
    13     5     1    1
    14     2     1    1
    15     2     4    2
