@<TRIPOS>MOLECULE
/home/cewinharhar/GITHUB/reincatalyze/data/processed/docking_pred/2023-May-31-1438_sub9_nm5_bs15_s42_ex16_mel10_mts1000_k50_ec05_g099_lra9e-4_lrc3e-3/64ade7361adfbcba1ebdf367c3e16aacabd62181_ligand_9.pdbqt
 14 15 0 0 0
SMALL
GASTEIGER

@<TRIPOS>ATOM
      1  C          5.8760    1.3600   -0.2930 C.3     1  UNL1        0.0800
      2  C          5.2710    1.1670    1.0540 C.2     1  UNL1        0.1300
      3  C          5.6050   -0.0100    1.8990 C.3     1  UNL1        0.0870
      4  O          4.4770    1.9770    1.5060 O.2     1  UNL1       -0.3000
      5  C          7.3900    1.3140   -0.2290 C.3     1  UNL1        0.0430
      6  C          7.9370    0.1970   -1.0200 C.2     1  UNL1       -0.0440
      7  C          7.3090   -0.2500   -2.1880 C.2     1  UNL1        0.0080
      8  C          9.0930   -0.4270   -0.6110 C.2     1  UNL1        0.0540
      9  C          7.8690   -1.3020   -2.8900 C.2     1  UNL1        0.0510
     10  C          9.6560   -1.4890   -1.3240 C.2     1  UNL1        0.1660
     11  C          9.0380   -1.9310   -2.4730 C.2     1  UNL1        0.1650
     12  O         10.7790   -2.2630   -1.1270 O.2     1  UNL1       -0.4540
     13  O          9.8040   -2.9770   -2.9630 O.2     1  UNL1       -0.4540
     14  C         10.9660   -3.1620   -2.1910 C.3     1  UNL1        0.4680
@<TRIPOS>BOND
     1    13    11    1
     2    13    14    1
     3     9    11    2
     4     9     7    1
     5    11    10    1
     6    14    12    1
     7     7     6    2
     8    10    12    1
     9    10     8    2
    10     6     8    1
    11     6     5    1
    12     1     5    1
    13     1     2    1
    14     2     4    2
    15     2     3    1
