MODEL 1
REMARK VINA RESULT:      -8.2      0.000      0.000
REMARK SMILES CC(=O)CCc1ccc2c(c1)OCO2
REMARK SMILES IDX 4 1 2 2 1 3 3 4 5 5 6 6 7 7 11 8 8 9 10 10 9 11 12 12 14 13
REMARK SMILES IDX 13 14
REMARK H PARENT
REMARK Flexibility Score: inf
ROOT
ATOM      1  C   UNL     1       5.859   1.587   0.902  1.00  0.00     0.080 C 
ENDROOT
BRANCH   1   2
ATOM      2  C   UNL     1       5.375   0.556   1.862  1.00  0.00     0.130 C 
ATOM      3  C   UNL     1       6.191  -0.640   2.202  1.00  0.00     0.087 C 
ATOM      4  O   UNL     1       4.285   0.665   2.401  1.00  0.00    -0.300 OA
ENDBRANCH   1   2
BRANCH   1   5
ATOM      5  C   UNL     1       5.777   1.089  -0.527  1.00  0.00     0.043 C 
BRANCH   5   6
ATOM      6  C   UNL     1       7.022   0.422  -0.946  1.00  0.00    -0.044 A 
ATOM      7  C   UNL     1       8.273   1.019  -0.757  1.00  0.00     0.008 A 
ATOM      8  C   UNL     1       6.965  -0.821  -1.536  1.00  0.00     0.054 A 
ATOM      9  C   UNL     1       9.408   0.345  -1.170  1.00  0.00     0.051 A 
ATOM     10  C   UNL     1       8.115  -1.499  -1.951  1.00  0.00     0.166 A 
ATOM     11  C   UNL     1       9.347  -0.911  -1.767  1.00  0.00     0.165 A 
ATOM     12  O   UNL     1       8.319  -2.722  -2.554  1.00  0.00    -0.454 OA
ATOM     13  O   UNL     1      10.291  -1.795  -2.264  1.00  0.00    -0.454 OA
ATOM     14  C   UNL     1       9.690  -2.995  -2.689  1.00  0.00     0.468 C 
ENDBRANCH   5   6
ENDBRANCH   1   5
TORSDOF 3
ENDMDL
MODEL 2
REMARK VINA RESULT:      -7.7      1.075      1.782
REMARK SMILES CC(=O)CCc1ccc2c(c1)OCO2
REMARK SMILES IDX 4 1 2 2 1 3 3 4 5 5 6 6 7 7 11 8 8 9 10 10 9 11 12 12 14 13
REMARK SMILES IDX 13 14
REMARK H PARENT
REMARK Flexibility Score: inf
ROOT
ATOM      1  C   UNL     1       5.876   1.360  -0.293  1.00  0.00     0.080 C 
ENDROOT
BRANCH   1   2
ATOM      2  C   UNL     1       5.271   1.167   1.054  1.00  0.00     0.130 C 
ATOM      3  C   UNL     1       5.605  -0.010   1.899  1.00  0.00     0.087 C 
ATOM      4  O   UNL     1       4.477   1.977   1.506  1.00  0.00    -0.300 OA
ENDBRANCH   1   2
BRANCH   1   5
ATOM      5  C   UNL     1       7.390   1.314  -0.229  1.00  0.00     0.043 C 
BRANCH   5   6
ATOM      6  C   UNL     1       7.937   0.197  -1.020  1.00  0.00    -0.044 A 
ATOM      7  C   UNL     1       7.309  -0.250  -2.188  1.00  0.00     0.008 A 
ATOM      8  C   UNL     1       9.093  -0.427  -0.611  1.00  0.00     0.054 A 
ATOM      9  C   UNL     1       7.869  -1.302  -2.890  1.00  0.00     0.051 A 
ATOM     10  C   UNL     1       9.656  -1.489  -1.324  1.00  0.00     0.166 A 
ATOM     11  C   UNL     1       9.038  -1.931  -2.473  1.00  0.00     0.165 A 
ATOM     12  O   UNL     1      10.779  -2.263  -1.127  1.00  0.00    -0.454 OA
ATOM     13  O   UNL     1       9.804  -2.977  -2.963  1.00  0.00    -0.454 OA
ATOM     14  C   UNL     1      10.966  -3.162  -2.191  1.00  0.00     0.468 C 
ENDBRANCH   5   6
ENDBRANCH   1   5
TORSDOF 3
ENDMDL
MODEL 3
REMARK VINA RESULT:      -7.4      1.241      2.011
REMARK SMILES CC(=O)CCc1ccc2c(c1)OCO2
REMARK SMILES IDX 4 1 2 2 1 3 3 4 5 5 6 6 7 7 11 8 8 9 10 10 9 11 12 12 14 13
REMARK SMILES IDX 13 14
REMARK H PARENT
REMARK Flexibility Score: inf
ROOT
ATOM      1  C   UNL     1       6.613   0.140   1.039  1.00  0.00     0.080 C 
ENDROOT
BRANCH   1   2
ATOM      2  C   UNL     1       5.389   0.930   1.347  1.00  0.00     0.130 C 
ATOM      3  C   UNL     1       4.979   2.092   0.513  1.00  0.00     0.087 C 
ATOM      4  O   UNL     1       4.682   0.645   2.300  1.00  0.00    -0.300 OA
ENDBRANCH   1   2
BRANCH   1   5
ATOM      5  C   UNL     1       7.444   0.809  -0.038  1.00  0.00     0.043 C 
BRANCH   5   6
ATOM      6  C   UNL     1       8.080  -0.178  -0.929  1.00  0.00    -0.044 A 
ATOM      7  C   UNL     1       7.627  -0.385  -2.237  1.00  0.00     0.008 A 
ATOM      8  C   UNL     1       9.149  -0.917  -0.475  1.00  0.00     0.054 A 
ATOM      9  C   UNL     1       8.264  -1.324  -3.027  1.00  0.00     0.051 A 
ATOM     10  C   UNL     1       9.790  -1.865  -1.279  1.00  0.00     0.166 A 
ATOM     11  C   UNL     1       9.344  -2.070  -2.565  1.00  0.00     0.165 A 
ATOM     12  O   UNL     1      10.855  -2.714  -1.063  1.00  0.00    -0.454 OA
ATOM     13  O   UNL     1      10.153  -3.050  -3.119  1.00  0.00    -0.454 OA
ATOM     14  C   UNL     1      11.181  -3.421  -2.232  1.00  0.00     0.468 C 
ENDBRANCH   5   6
ENDBRANCH   1   5
TORSDOF 3
ENDMDL
MODEL 4
REMARK VINA RESULT:      -7.4      1.420      2.183
REMARK SMILES CC(=O)CCc1ccc2c(c1)OCO2
REMARK SMILES IDX 4 1 2 2 1 3 3 4 5 5 6 6 7 7 11 8 8 9 10 10 9 11 12 12 14 13
REMARK SMILES IDX 13 14
REMARK H PARENT
REMARK Flexibility Score: inf
ROOT
ATOM      1  C   UNL     1       6.666   0.146   1.830  1.00  0.00     0.080 C 
ENDROOT
BRANCH   1   2
ATOM      2  C   UNL     1       5.366   0.849   1.648  1.00  0.00     0.130 C 
ATOM      3  C   UNL     1       5.152   1.822   0.544  1.00  0.00     0.087 C 
ATOM      4  O   UNL     1       4.432   0.644   2.407  1.00  0.00    -0.300 OA
ENDBRANCH   1   2
BRANCH   1   5
ATOM      5  C   UNL     1       6.559  -1.318   1.451  1.00  0.00     0.043 C 
BRANCH   5   6
ATOM      6  C   UNL     1       7.289  -1.616   0.207  1.00  0.00    -0.044 A 
ATOM      7  C   UNL     1       6.868  -1.112  -1.029  1.00  0.00     0.008 A 
ATOM      8  C   UNL     1       8.416  -2.406   0.249  1.00  0.00     0.054 A 
ATOM      9  C   UNL     1       7.594  -1.424  -2.164  1.00  0.00     0.051 A 
ATOM     10  C   UNL     1       9.147  -2.718  -0.901  1.00  0.00     0.166 A 
ATOM     11  C   UNL     1       8.733  -2.223  -2.118  1.00  0.00     0.165 A 
ATOM     12  O   UNL     1      10.282  -3.470  -1.118  1.00  0.00    -0.454 OA
ATOM     13  O   UNL     1       9.632  -2.686  -3.066  1.00  0.00    -0.454 OA
ATOM     14  C   UNL     1      10.681  -3.405  -2.463  1.00  0.00     0.468 C 
ENDBRANCH   5   6
ENDBRANCH   1   5
TORSDOF 3
ENDMDL
MODEL 5
REMARK VINA RESULT:      -7.3      1.944      2.444
REMARK SMILES CC(=O)CCc1ccc2c(c1)OCO2
REMARK SMILES IDX 4 1 2 2 1 3 3 4 5 5 6 6 7 7 11 8 8 9 10 10 9 11 12 12 14 13
REMARK SMILES IDX 13 14
REMARK H PARENT
REMARK Flexibility Score: inf
ROOT
ATOM      1  C   UNL     1       6.125   0.058   1.900  1.00  0.00     0.080 C 
ENDROOT
BRANCH   1   2
ATOM      2  C   UNL     1       5.018   1.023   1.656  1.00  0.00     0.130 C 
ATOM      3  C   UNL     1       5.078   2.019   0.552  1.00  0.00     0.087 C 
ATOM      4  O   UNL     1       4.021   1.024   2.361  1.00  0.00    -0.300 OA
ENDBRANCH   1   2
BRANCH   1   5
ATOM      5  C   UNL     1       6.397  -0.789   0.672  1.00  0.00     0.043 C 
BRANCH   5   6
ATOM      6  C   UNL     1       7.805  -0.698   0.246  1.00  0.00    -0.044 A 
ATOM      7  C   UNL     1       8.256   0.339  -0.578  1.00  0.00     0.008 A 
ATOM      8  C   UNL     1       8.708  -1.650   0.665  1.00  0.00     0.054 A 
ATOM      9  C   UNL     1       9.589   0.374  -0.944  1.00  0.00     0.051 A 
ATOM     10  C   UNL     1      10.054  -1.610   0.292  1.00  0.00     0.166 A 
ATOM     11  C   UNL     1      10.499  -0.590  -0.520  1.00  0.00     0.165 A 
ATOM     12  O   UNL     1      11.131  -2.424   0.572  1.00  0.00    -0.454 OA
ATOM     13  O   UNL     1      11.854  -0.801  -0.723  1.00  0.00    -0.454 OA
ATOM     14  C   UNL     1      12.314  -1.902   0.024  1.00  0.00     0.468 C 
ENDBRANCH   5   6
ENDBRANCH   1   5
TORSDOF 3
ENDMDL
