@<TRIPOS>MOLECULE
/home/cewinharhar/GITHUB/reincatalyze/data/processed/docking_pred/2023-May-31-1438_sub9_nm5_bs15_s42_ex16_mel10_mts1000_k50_ec05_g099_lra9e-4_lrc3e-3/64ade7361adfbcba1ebdf367c3e16aacabd62181_ligand_9.pdbqt
 14 15 0 0 0
SMALL
GASTEIGER

@<TRIPOS>ATOM
      1  C          5.8590    1.5870    0.9020 C.3     1  UNL1        0.0800
      2  C          5.3750    0.5560    1.8620 C.2     1  UNL1        0.1300
      3  C          6.1910   -0.6400    2.2020 C.3     1  UNL1        0.0870
      4  O          4.2850    0.6650    2.4010 O.2     1  UNL1       -0.3000
      5  C          5.7770    1.0890   -0.5270 C.3     1  UNL1        0.0430
      6  C          7.0220    0.4220   -0.9460 C.2     1  UNL1       -0.0440
      7  C          8.2730    1.0190   -0.7570 C.2     1  UNL1        0.0080
      8  C          6.9650   -0.8210   -1.5360 C.2     1  UNL1        0.0540
      9  C          9.4080    0.3450   -1.1700 C.2     1  UNL1        0.0510
     10  C          8.1150   -1.4990   -1.9510 C.2     1  UNL1        0.1660
     11  C          9.3470   -0.9110   -1.7670 C.2     1  UNL1        0.1650
     12  O          8.3190   -2.7220   -2.5540 O.2     1  UNL1       -0.4540
     13  O         10.2910   -1.7950   -2.2640 O.2     1  UNL1       -0.4540
     14  C          9.6900   -2.9950   -2.6890 C.3     1  UNL1        0.4680
@<TRIPOS>BOND
     1    14    12    1
     2    14    13    1
     3    12    10    1
     4    13    11    1
     5    10    11    2
     6    10     8    1
     7    11     9    1
     8     8     6    2
     9     9     7    2
    10     6     7    1
    11     6     5    1
    12     5     1    1
    13     1     2    1
    14     2     3    1
    15     2     4    2
