@<TRIPOS>MOLECULE
/home/cewinharhar/GITHUB/reincatalyze/data/processed/docking_pred/2023-May-31-1438_sub9_nm5_bs15_s42_ex16_mel10_mts1000_k50_ec05_g099_lra9e-4_lrc3e-3/64ade7361adfbcba1ebdf367c3e16aacabd62181_ligand_9.pdbqt
 14 15 0 0 0
SMALL
GASTEIGER

@<TRIPOS>ATOM
      1  C          6.6660    0.1460    1.8300 C.3     1  UNL1        0.0800
      2  C          5.3660    0.8490    1.6480 C.2     1  UNL1        0.1300
      3  C          5.1520    1.8220    0.5440 C.3     1  UNL1        0.0870
      4  O          4.4320    0.6440    2.4070 O.2     1  UNL1       -0.3000
      5  C          6.5590   -1.3180    1.4510 C.3     1  UNL1        0.0430
      6  C          7.2890   -1.6160    0.2070 C.2     1  UNL1       -0.0440
      7  C          6.8680   -1.1120   -1.0290 C.2     1  UNL1        0.0080
      8  C          8.4160   -2.4060    0.2490 C.2     1  UNL1        0.0540
      9  C          7.5940   -1.4240   -2.1640 C.2     1  UNL1        0.0510
     10  C          9.1470   -2.7180   -0.9010 C.2     1  UNL1        0.1660
     11  C          8.7330   -2.2230   -2.1180 C.2     1  UNL1        0.1650
     12  O         10.2820   -3.4700   -1.1180 O.2     1  UNL1       -0.4540
     13  O          9.6320   -2.6860   -3.0660 O.2     1  UNL1       -0.4540
     14  C         10.6810   -3.4050   -2.4630 C.3     1  UNL1        0.4680
@<TRIPOS>BOND
     1    13    14    1
     2    13    11    1
     3    14    12    1
     4     9    11    2
     5     9     7    1
     6    11    10    1
     7    12    10    1
     8     7     6    2
     9    10     8    2
    10     6     8    1
    11     6     5    1
    12     3     2    1
    13     5     1    1
    14     2     1    1
    15     2     4    2
