@<TRIPOS>MOLECULE
/home/cewinharhar/GITHUB/reincatalyze/data/processed/docking_pred/2023-May-31-1438_sub9_nm5_bs15_s42_ex16_mel10_mts1000_k50_ec05_g099_lra9e-4_lrc3e-3/64ade7361adfbcba1ebdf367c3e16aacabd62181_ligand_9.pdbqt
 14 15 0 0 0
SMALL
GASTEIGER

@<TRIPOS>ATOM
      1  C          6.6130    0.1400    1.0390 C.3     1  UNL1        0.0800
      2  C          5.3890    0.9300    1.3470 C.2     1  UNL1        0.1300
      3  C          4.9790    2.0920    0.5130 C.3     1  UNL1        0.0870
      4  O          4.6820    0.6450    2.3000 O.2     1  UNL1       -0.3000
      5  C          7.4440    0.8090   -0.0380 C.3     1  UNL1        0.0430
      6  C          8.0800   -0.1780   -0.9290 C.2     1  UNL1       -0.0440
      7  C          7.6270   -0.3850   -2.2370 C.2     1  UNL1        0.0080
      8  C          9.1490   -0.9170   -0.4750 C.2     1  UNL1        0.0540
      9  C          8.2640   -1.3240   -3.0270 C.2     1  UNL1        0.0510
     10  C          9.7900   -1.8650   -1.2790 C.2     1  UNL1        0.1660
     11  C          9.3440   -2.0700   -2.5650 C.2     1  UNL1        0.1650
     12  O         10.8550   -2.7140   -1.0630 O.2     1  UNL1       -0.4540
     13  O         10.1530   -3.0500   -3.1190 O.2     1  UNL1       -0.4540
     14  C         11.1810   -3.4210   -2.2320 C.3     1  UNL1        0.4680
@<TRIPOS>BOND
     1    13    11    1
     2    13    14    1
     3     9    11    2
     4     9     7    1
     5    11    10    1
     6     7     6    2
     7    14    12    1
     8    10    12    1
     9    10     8    2
    10     6     8    1
    11     6     5    1
    12     5     1    1
    13     3     2    1
    14     1     2    1
    15     2     4    2
