@<TRIPOS>MOLECULE
/home/cewinharhar/GITHUB/reincatalyze/data/processed/docking_pred/2023-May-31-1438_sub9_nm5_bs15_s42_ex16_mel10_mts1000_k50_ec05_g099_lra9e-4_lrc3e-3/64ade7361adfbcba1ebdf367c3e16aacabd62181_ligand_9.pdbqt
 14 15 0 0 0
SMALL
GASTEIGER

@<TRIPOS>ATOM
      1  C          6.1250    0.0580    1.9000 C.3     1  UNL1        0.0800
      2  C          5.0180    1.0230    1.6560 C.2     1  UNL1        0.1300
      3  C          5.0780    2.0190    0.5520 C.3     1  UNL1        0.0870
      4  O          4.0210    1.0240    2.3610 O.2     1  UNL1       -0.3000
      5  C          6.3970   -0.7890    0.6720 C.3     1  UNL1        0.0430
      6  C          7.8050   -0.6980    0.2460 C.2     1  UNL1       -0.0440
      7  C          8.2560    0.3390   -0.5780 C.2     1  UNL1        0.0080
      8  C          8.7080   -1.6500    0.6650 C.2     1  UNL1        0.0540
      9  C          9.5890    0.3740   -0.9440 C.2     1  UNL1        0.0510
     10  C         10.0540   -1.6100    0.2920 C.2     1  UNL1        0.1660
     11  C         10.4990   -0.5900   -0.5200 C.2     1  UNL1        0.1650
     12  O         11.1310   -2.4240    0.5720 O.2     1  UNL1       -0.4540
     13  O         11.8540   -0.8010   -0.7230 O.2     1  UNL1       -0.4540
     14  C         12.3140   -1.9020    0.0240 C.3     1  UNL1        0.4680
@<TRIPOS>BOND
     1     9     7    1
     2     9    11    2
     3    13    11    1
     4    13    14    1
     5     7     6    2
     6    11    10    1
     7    14    12    1
     8     6     8    1
     9     6     5    1
    10    10    12    1
    11    10     8    2
    12     3     2    1
    13     5     1    1
    14     2     1    1
    15     2     4    2
