MODEL 1
REMARK VINA RESULT:      -7.7      0.000      0.000
REMARK SMILES CC(=O)CCc1ccc2c(c1)OCO2
REMARK SMILES IDX 4 1 2 2 1 3 3 4 5 5 6 6 7 7 11 8 8 9 10 10 9 11 12 12 14 13
REMARK SMILES IDX 13 14
REMARK H PARENT
REMARK Flexibility Score: inf
ROOT
ATOM      1  C   UNL     1       5.506   1.922   1.258  1.00  0.00     0.080 C 
ENDROOT
BRANCH   1   2
ATOM      2  C   UNL     1       5.047   0.712   1.995  1.00  0.00     0.130 C 
ATOM      3  C   UNL     1       5.914  -0.487   2.144  1.00  0.00     0.087 C 
ATOM      4  O   UNL     1       3.937   0.670   2.501  1.00  0.00    -0.300 OA
ENDBRANCH   1   2
BRANCH   1   5
ATOM      5  C   UNL     1       5.386   1.733  -0.241  1.00  0.00     0.043 C 
BRANCH   5   6
ATOM      6  C   UNL     1       6.556   1.032  -0.799  1.00  0.00    -0.044 A 
ATOM      7  C   UNL     1       7.861   1.469  -0.547  1.00  0.00     0.008 A 
ATOM      8  C   UNL     1       6.372  -0.082  -1.586  1.00  0.00     0.054 A 
ATOM      9  C   UNL     1       8.920   0.770  -1.097  1.00  0.00     0.051 A 
ATOM     10  C   UNL     1       7.446  -0.785  -2.140  1.00  0.00     0.166 A 
ATOM     11  C   UNL     1       8.731  -0.355  -1.893  1.00  0.00     0.165 A 
ATOM     12  O   UNL     1       7.524  -1.902  -2.943  1.00  0.00    -0.454 OA
ATOM     13  O   UNL     1       9.580  -1.227  -2.557  1.00  0.00    -0.454 OA
ATOM     14  C   UNL     1       8.860  -2.276  -3.160  1.00  0.00     0.468 C 
ENDBRANCH   5   6
ENDBRANCH   1   5
TORSDOF 3
ENDMDL
MODEL 2
REMARK VINA RESULT:      -7.3      2.051      2.630
REMARK SMILES CC(=O)CCc1ccc2c(c1)OCO2
REMARK SMILES IDX 4 1 2 2 1 3 3 4 5 5 6 6 7 7 11 8 8 9 10 10 9 11 12 12 14 13
REMARK SMILES IDX 13 14
REMARK H PARENT
REMARK Flexibility Score: inf
ROOT
ATOM      1  C   UNL     1       5.396  -0.061   2.008  1.00  0.00     0.080 C 
ENDROOT
BRANCH   1   2
ATOM      2  C   UNL     1       4.558   1.146   1.767  1.00  0.00     0.130 C 
ATOM      3  C   UNL     1       4.893   2.129   0.702  1.00  0.00     0.087 C 
ATOM      4  O   UNL     1       3.565   1.366   2.443  1.00  0.00    -0.300 OA
ENDBRANCH   1   2
BRANCH   1   5
ATOM      5  C   UNL     1       6.836   0.178   1.602  1.00  0.00     0.043 C 
BRANCH   5   6
ATOM      6  C   UNL     1       7.264  -0.744   0.535  1.00  0.00    -0.044 A 
ATOM      7  C   UNL     1       7.122  -0.416  -0.818  1.00  0.00     0.008 A 
ATOM      8  C   UNL     1       7.819  -1.960   0.866  1.00  0.00     0.054 A 
ATOM      9  C   UNL     1       7.542  -1.321  -1.776  1.00  0.00     0.051 A 
ATOM     10  C   UNL     1       8.242  -2.871  -0.106  1.00  0.00     0.166 A 
ATOM     11  C   UNL     1       8.102  -2.549  -1.438  1.00  0.00     0.165 A 
ATOM     12  O   UNL     1       8.815  -4.123  -0.035  1.00  0.00    -0.454 OA
ATOM     13  O   UNL     1       8.598  -3.621  -2.164  1.00  0.00    -0.454 OA
ATOM     14  C   UNL     1       9.143  -4.602  -1.314  1.00  0.00     0.468 C 
ENDBRANCH   5   6
ENDBRANCH   1   5
TORSDOF 3
ENDMDL
MODEL 3
REMARK VINA RESULT:      -7.2      1.706      2.112
REMARK SMILES CC(=O)CCc1ccc2c(c1)OCO2
REMARK SMILES IDX 4 1 2 2 1 3 3 4 5 5 6 6 7 7 11 8 8 9 10 10 9 11 12 12 14 13
REMARK SMILES IDX 13 14
REMARK H PARENT
REMARK Flexibility Score: inf
ROOT
ATOM      1  C   UNL     1       5.583   1.592   0.085  1.00  0.00     0.080 C 
ENDROOT
BRANCH   1   2
ATOM      2  C   UNL     1       4.950   1.160   1.362  1.00  0.00     0.130 C 
ATOM      3  C   UNL     1       5.428  -0.036   2.105  1.00  0.00     0.087 C 
ATOM      4  O   UNL     1       4.013   1.780   1.838  1.00  0.00    -0.300 OA
ENDBRANCH   1   2
BRANCH   1   5
ATOM      5  C   UNL     1       7.071   1.302   0.083  1.00  0.00     0.043 C 
BRANCH   5   6
ATOM      6  C   UNL     1       7.387   0.073  -0.666  1.00  0.00    -0.044 A 
ATOM      7  C   UNL     1       7.211  -0.007  -2.052  1.00  0.00     0.008 A 
ATOM      8  C   UNL     1       7.871  -1.028   0.003  1.00  0.00     0.054 A 
ATOM      9  C   UNL     1       7.526  -1.186  -2.702  1.00  0.00     0.051 A 
ATOM     10  C   UNL     1       8.188  -2.218  -0.658  1.00  0.00     0.166 A 
ATOM     11  C   UNL     1       8.014  -2.298  -2.022  1.00  0.00     0.165 A 
ATOM     12  O   UNL     1       8.675  -3.433  -0.225  1.00  0.00    -0.454 OA
ATOM     13  O   UNL     1       8.403  -3.573  -2.402  1.00  0.00    -0.454 OA
ATOM     14  C   UNL     1       8.914  -4.296  -1.308  1.00  0.00     0.468 C 
ENDBRANCH   5   6
ENDBRANCH   1   5
TORSDOF 3
ENDMDL
MODEL 4
REMARK VINA RESULT:      -7.1      1.258      1.476
REMARK SMILES CC(=O)CCc1ccc2c(c1)OCO2
REMARK SMILES IDX 4 1 2 2 1 3 3 4 5 5 6 6 7 7 11 8 8 9 10 10 9 11 12 12 14 13
REMARK SMILES IDX 13 14
REMARK H PARENT
REMARK Flexibility Score: inf
ROOT
ATOM      1  C   UNL     1       6.374   1.202   0.910  1.00  0.00     0.080 C 
ENDROOT
BRANCH   1   2
ATOM      2  C   UNL     1       5.660   0.390   1.934  1.00  0.00     0.130 C 
ATOM      3  C   UNL     1       6.265  -0.837   2.518  1.00  0.00     0.087 C 
ATOM      4  O   UNL     1       4.549   0.711   2.326  1.00  0.00    -0.300 OA
ENDBRANCH   1   2
BRANCH   1   5
ATOM      5  C   UNL     1       5.859   0.905  -0.485  1.00  0.00     0.043 C 
BRANCH   5   6
ATOM      6  C   UNL     1       6.812   0.086  -1.255  1.00  0.00    -0.044 A 
ATOM      7  C   UNL     1       7.499   0.604  -2.359  1.00  0.00     0.008 A 
ATOM      8  C   UNL     1       7.041  -1.220  -0.888  1.00  0.00     0.054 A 
ATOM      9  C   UNL     1       8.381  -0.211  -3.043  1.00  0.00     0.051 A 
ATOM     10  C   UNL     1       7.934  -2.041  -1.583  1.00  0.00     0.166 A 
ATOM     11  C   UNL     1       8.610  -1.532  -2.670  1.00  0.00     0.165 A 
ATOM     12  O   UNL     1       8.329  -3.352  -1.419  1.00  0.00    -0.454 OA
ATOM     13  O   UNL     1       9.414  -2.552  -3.155  1.00  0.00    -0.454 OA
ATOM     14  C   UNL     1       9.335  -3.694  -2.337  1.00  0.00     0.468 C 
ENDBRANCH   5   6
ENDBRANCH   1   5
TORSDOF 3
ENDMDL
MODEL 5
REMARK VINA RESULT:      -7.0      1.955      2.535
REMARK SMILES CC(=O)CCc1ccc2c(c1)OCO2
REMARK SMILES IDX 4 1 2 2 1 3 3 4 5 5 6 6 7 7 11 8 8 9 10 10 9 11 12 12 14 13
REMARK SMILES IDX 13 14
REMARK H PARENT
REMARK Flexibility Score: inf
ROOT
ATOM      1  C   UNL     1       6.944   0.927   1.176  1.00  0.00     0.080 C 
ENDROOT
BRANCH   1   2
ATOM      2  C   UNL     1       5.497   1.123   1.469  1.00  0.00     0.130 C 
ATOM      3  C   UNL     1       4.687   2.147   0.756  1.00  0.00     0.087 C 
ATOM      4  O   UNL     1       4.931   0.443   2.310  1.00  0.00    -0.300 OA
ENDBRANCH   1   2
BRANCH   1   5
ATOM      5  C   UNL     1       7.226   1.044  -0.309  1.00  0.00     0.043 C 
BRANCH   5   6
ATOM      6  C   UNL     1       7.588  -0.256  -0.901  1.00  0.00    -0.044 A 
ATOM      7  C   UNL     1       7.625  -0.446  -2.287  1.00  0.00     0.008 A 
ATOM      8  C   UNL     1       7.902  -1.315  -0.080  1.00  0.00     0.054 A 
ATOM      9  C   UNL     1       7.973  -1.689  -2.785  1.00  0.00     0.051 A 
ATOM     10  C   UNL     1       8.254  -2.569  -0.588  1.00  0.00     0.166 A 
ATOM     11  C   UNL     1       8.289  -2.757  -1.952  1.00  0.00     0.165 A 
ATOM     12  O   UNL     1       8.602  -3.762   0.010  1.00  0.00    -0.454 OA
ATOM     13  O   UNL     1       8.663  -4.075  -2.165  1.00  0.00    -0.454 OA
ATOM     14  C   UNL     1       8.960  -4.722  -0.951  1.00  0.00     0.468 C 
ENDBRANCH   5   6
ENDBRANCH   1   5
TORSDOF 3
ENDMDL
