@<TRIPOS>MOLECULE
/home/cewinharhar/GITHUB/reincatalyze/data/processed/docking_pred/2023-May-31-1438_sub9_nm5_bs15_s42_ex16_mel10_mts1000_k50_ec05_g099_lra9e-4_lrc3e-3/650932a4c96e02f0afcc120cab6b741f416c7ae8_ligand_9.pdbqt
 14 15 0 0 0
SMALL
GASTEIGER

@<TRIPOS>ATOM
      1  C          5.5830    1.5920    0.0850 C.3     1  UNL1        0.0800
      2  C          4.9500    1.1600    1.3620 C.2     1  UNL1        0.1300
      3  C          5.4280   -0.0360    2.1050 C.3     1  UNL1        0.0870
      4  O          4.0130    1.7800    1.8380 O.2     1  UNL1       -0.3000
      5  C          7.0710    1.3020    0.0830 C.3     1  UNL1        0.0430
      6  C          7.3870    0.0730   -0.6660 C.2     1  UNL1       -0.0440
      7  C          7.2110   -0.0070   -2.0520 C.2     1  UNL1        0.0080
      8  C          7.8710   -1.0280    0.0030 C.2     1  UNL1        0.0540
      9  C          7.5260   -1.1860   -2.7020 C.2     1  UNL1        0.0510
     10  C          8.1880   -2.2180   -0.6580 C.2     1  UNL1        0.1660
     11  C          8.0140   -2.2980   -2.0220 C.2     1  UNL1        0.1650
     12  O          8.6750   -3.4330   -0.2250 O.2     1  UNL1       -0.4540
     13  O          8.4030   -3.5730   -2.4020 O.2     1  UNL1       -0.4540
     14  C          8.9140   -4.2960   -1.3080 C.3     1  UNL1        0.4680
@<TRIPOS>BOND
     1     9     7    1
     2     9    11    2
     3    13    11    1
     4    13    14    1
     5     7     6    2
     6    11    10    1
     7    14    12    1
     8     6     8    1
     9     6     5    1
    10    10    12    1
    11    10     8    2
    12     5     1    1
    13     1     2    1
    14     2     4    2
    15     2     3    1
