@<TRIPOS>MOLECULE
/home/cewinharhar/GITHUB/reincatalyze/data/processed/docking_pred/2023-May-31-1438_sub9_nm5_bs15_s42_ex16_mel10_mts1000_k50_ec05_g099_lra9e-4_lrc3e-3/650932a4c96e02f0afcc120cab6b741f416c7ae8_ligand_9.pdbqt
 14 15 0 0 0
SMALL
GASTEIGER

@<TRIPOS>ATOM
      1  C          5.5060    1.9220    1.2580 C.3     1  UNL1        0.0800
      2  C          5.0470    0.7120    1.9950 C.2     1  UNL1        0.1300
      3  C          5.9140   -0.4870    2.1440 C.3     1  UNL1        0.0870
      4  O          3.9370    0.6700    2.5010 O.2     1  UNL1       -0.3000
      5  C          5.3860    1.7330   -0.2410 C.3     1  UNL1        0.0430
      6  C          6.5560    1.0320   -0.7990 C.2     1  UNL1       -0.0440
      7  C          7.8610    1.4690   -0.5470 C.2     1  UNL1        0.0080
      8  C          6.3720   -0.0820   -1.5860 C.2     1  UNL1        0.0540
      9  C          8.9200    0.7700   -1.0970 C.2     1  UNL1        0.0510
     10  C          7.4460   -0.7850   -2.1400 C.2     1  UNL1        0.1660
     11  C          8.7310   -0.3550   -1.8930 C.2     1  UNL1        0.1650
     12  O          7.5240   -1.9020   -2.9430 O.2     1  UNL1       -0.4540
     13  O          9.5800   -1.2270   -2.5570 O.2     1  UNL1       -0.4540
     14  C          8.8600   -2.2760   -3.1600 C.3     1  UNL1        0.4680
@<TRIPOS>BOND
     1    14    12    1
     2    14    13    1
     3    12    10    1
     4    13    11    1
     5    10    11    2
     6    10     8    1
     7    11     9    1
     8     8     6    2
     9     9     7    2
    10     6     7    1
    11     6     5    1
    12     5     1    1
    13     1     2    1
    14     2     3    1
    15     2     4    2
