@<TRIPOS>MOLECULE
/home/cewinharhar/GITHUB/reincatalyze/data/processed/docking_pred/2023-May-31-1438_sub9_nm5_bs15_s42_ex16_mel10_mts1000_k50_ec05_g099_lra9e-4_lrc3e-3/65610c622cc3bd86a4d466f03d6f61670904542e_ligand_9.pdbqt
 14 15 0 0 0
SMALL
GASTEIGER

@<TRIPOS>ATOM
      1  C          5.3290   -0.0940    1.9430 C.3     1  UNL1        0.0800
      2  C          4.4640    1.1060    1.7740 C.2     1  UNL1        0.1300
      3  C          4.7660    2.1500    0.7590 C.3     1  UNL1        0.0870
      4  O          3.4750    1.2680    2.4710 O.2     1  UNL1       -0.3000
      5  C          6.7990    0.2760    1.9020 C.3     1  UNL1        0.0430
      6  C          7.4110   -0.0610    0.6050 C.2     1  UNL1       -0.0440
      7  C          7.9270    0.9270   -0.2410 C.2     1  UNL1        0.0080
      8  C          7.4860   -1.3770    0.2070 C.2     1  UNL1        0.0540
      9  C          8.4910    0.5510   -1.4470 C.2     1  UNL1        0.0510
     10  C          8.0570   -1.7520   -1.0120 C.2     1  UNL1        0.1660
     11  C          8.5640   -0.7800   -1.8460 C.2     1  UNL1        0.1650
     12  O          8.2470   -2.9730   -1.6250 O.2     1  UNL1       -0.4540
     13  O          9.0600   -1.4310   -2.9650 O.2     1  UNL1       -0.4540
     14  C          8.9620   -2.8280   -2.8260 C.3     1  UNL1        0.4680
@<TRIPOS>BOND
     1    13    14    1
     2    13    11    1
     3    14    12    1
     4    11     9    2
     5    11    10    1
     6    12    10    1
     7     9     7    1
     8    10     8    2
     9     7     6    2
    10     8     6    1
    11     6     5    1
    12     3     2    1
    13     2     1    1
    14     2     4    2
    15     5     1    1
