MODEL 1
REMARK VINA RESULT:      -7.6      0.000      0.000
REMARK SMILES CC(=O)CCc1ccc2c(c1)OCO2
REMARK SMILES IDX 4 1 2 2 1 3 3 4 5 5 6 6 7 7 11 8 8 9 10 10 9 11 12 12 14 13
REMARK SMILES IDX 13 14
REMARK H PARENT
REMARK Flexibility Score: inf
ROOT
ATOM      1  C   UNL     1       5.554   1.892   1.299  1.00  0.00     0.080 C 
ENDROOT
BRANCH   1   2
ATOM      2  C   UNL     1       5.101   0.668   2.016  1.00  0.00     0.130 C 
ATOM      3  C   UNL     1       5.988  -0.514   2.180  1.00  0.00     0.087 C 
ATOM      4  O   UNL     1       3.979   0.600   2.493  1.00  0.00    -0.300 OA
ENDBRANCH   1   2
BRANCH   1   5
ATOM      5  C   UNL     1       5.425   1.730  -0.203  1.00  0.00     0.043 C 
BRANCH   5   6
ATOM      6  C   UNL     1       6.585   1.027  -0.778  1.00  0.00    -0.044 A 
ATOM      7  C   UNL     1       7.895   1.458  -0.541  1.00  0.00     0.008 A 
ATOM      8  C   UNL     1       6.387  -0.083  -1.567  1.00  0.00     0.054 A 
ATOM      9  C   UNL     1       8.945   0.757  -1.106  1.00  0.00     0.051 A 
ATOM     10  C   UNL     1       7.451  -0.789  -2.136  1.00  0.00     0.166 A 
ATOM     11  C   UNL     1       8.741  -0.365  -1.904  1.00  0.00     0.165 A 
ATOM     12  O   UNL     1       7.515  -1.904  -2.945  1.00  0.00    -0.454 OA
ATOM     13  O   UNL     1       9.578  -1.238  -2.581  1.00  0.00    -0.454 OA
ATOM     14  C   UNL     1       8.847  -2.281  -3.180  1.00  0.00     0.468 C 
ENDBRANCH   5   6
ENDBRANCH   1   5
TORSDOF 3
ENDMDL
MODEL 2
REMARK VINA RESULT:      -7.5      1.922      2.370
REMARK SMILES CC(=O)CCc1ccc2c(c1)OCO2
REMARK SMILES IDX 4 1 2 2 1 3 3 4 5 5 6 6 7 7 11 8 8 9 10 10 9 11 12 12 14 13
REMARK SMILES IDX 13 14
REMARK H PARENT
REMARK Flexibility Score: inf
ROOT
ATOM      1  C   UNL     1       5.699   1.321  -0.299  1.00  0.00     0.080 C 
ENDROOT
BRANCH   1   2
ATOM      2  C   UNL     1       5.065   1.259   1.047  1.00  0.00     0.130 C 
ATOM      3  C   UNL     1       5.307   0.120   1.972  1.00  0.00     0.087 C 
ATOM      4  O   UNL     1       4.321   2.147   1.431  1.00  0.00    -0.300 OA
ENDBRANCH   1   2
BRANCH   1   5
ATOM      5  C   UNL     1       7.195   1.092  -0.213  1.00  0.00     0.043 C 
BRANCH   5   6
ATOM      6  C   UNL     1       7.590  -0.184  -0.835  1.00  0.00    -0.044 A 
ATOM      7  C   UNL     1       7.687  -0.325  -2.224  1.00  0.00     0.008 A 
ATOM      8  C   UNL     1       7.874  -1.271  -0.039  1.00  0.00     0.054 A 
ATOM      9  C   UNL     1       8.062  -1.547  -2.750  1.00  0.00     0.051 A 
ATOM     10  C   UNL     1       8.254  -2.505  -0.576  1.00  0.00     0.166 A 
ATOM     11  C   UNL     1       8.349  -2.644  -1.943  1.00  0.00     0.165 A 
ATOM     12  O   UNL     1       8.583  -3.716  -0.007  1.00  0.00    -0.454 OA
ATOM     13  O   UNL     1       8.739  -3.951  -2.187  1.00  0.00    -0.454 OA
ATOM     14  C   UNL     1       8.987  -4.640  -0.985  1.00  0.00     0.468 C 
ENDBRANCH   5   6
ENDBRANCH   1   5
TORSDOF 3
ENDMDL
MODEL 3
REMARK VINA RESULT:      -7.2      2.057      2.632
REMARK SMILES CC(=O)CCc1ccc2c(c1)OCO2
REMARK SMILES IDX 4 1 2 2 1 3 3 4 5 5 6 6 7 7 11 8 8 9 10 10 9 11 12 12 14 13
REMARK SMILES IDX 13 14
REMARK H PARENT
REMARK Flexibility Score: inf
ROOT
ATOM      1  C   UNL     1       5.394  -0.074   2.014  1.00  0.00     0.080 C 
ENDROOT
BRANCH   1   2
ATOM      2  C   UNL     1       4.567   1.140   1.769  1.00  0.00     0.130 C 
ATOM      3  C   UNL     1       4.922   2.127   0.714  1.00  0.00     0.087 C 
ATOM      4  O   UNL     1       3.567   1.362   2.433  1.00  0.00    -0.300 OA
ENDBRANCH   1   2
BRANCH   1   5
ATOM      5  C   UNL     1       6.841   0.159   1.629  1.00  0.00     0.043 C 
BRANCH   5   6
ATOM      6  C   UNL     1       7.276  -0.755   0.557  1.00  0.00    -0.044 A 
ATOM      7  C   UNL     1       7.156  -0.410  -0.794  1.00  0.00     0.008 A 
ATOM      8  C   UNL     1       7.816  -1.979   0.882  1.00  0.00     0.054 A 
ATOM      9  C   UNL     1       7.581  -1.308  -1.756  1.00  0.00     0.051 A 
ATOM     10  C   UNL     1       8.245  -2.883  -0.095  1.00  0.00     0.166 A 
ATOM     11  C   UNL     1       8.126  -2.544  -1.425  1.00  0.00     0.165 A 
ATOM     12  O   UNL     1       8.806  -4.140  -0.030  1.00  0.00    -0.454 OA
ATOM     13  O   UNL     1       8.623  -3.612  -2.156  1.00  0.00    -0.454 OA
ATOM     14  C   UNL     1       9.148  -4.607  -1.310  1.00  0.00     0.468 C 
ENDBRANCH   5   6
ENDBRANCH   1   5
TORSDOF 3
ENDMDL
MODEL 4
REMARK VINA RESULT:      -7.1      1.240      1.426
REMARK SMILES CC(=O)CCc1ccc2c(c1)OCO2
REMARK SMILES IDX 4 1 2 2 1 3 3 4 5 5 6 6 7 7 11 8 8 9 10 10 9 11 12 12 14 13
REMARK SMILES IDX 13 14
REMARK H PARENT
REMARK Flexibility Score: inf
ROOT
ATOM      1  C   UNL     1       6.336   1.252   0.886  1.00  0.00     0.080 C 
ENDROOT
BRANCH   1   2
ATOM      2  C   UNL     1       5.668   0.414   1.920  1.00  0.00     0.130 C 
ATOM      3  C   UNL     1       6.321  -0.797   2.485  1.00  0.00     0.087 C 
ATOM      4  O   UNL     1       4.556   0.699   2.335  1.00  0.00    -0.300 OA
ENDBRANCH   1   2
BRANCH   1   5
ATOM      5  C   UNL     1       5.819   0.930  -0.503  1.00  0.00     0.043 C 
BRANCH   5   6
ATOM      6  C   UNL     1       6.784   0.122  -1.270  1.00  0.00    -0.044 A 
ATOM      7  C   UNL     1       7.490   0.657  -2.354  1.00  0.00     0.008 A 
ATOM      8  C   UNL     1       7.005  -1.191  -0.921  1.00  0.00     0.054 A 
ATOM      9  C   UNL     1       8.383  -0.148  -3.037  1.00  0.00     0.051 A 
ATOM     10  C   UNL     1       7.910  -2.001  -1.614  1.00  0.00     0.166 A 
ATOM     11  C   UNL     1       8.604  -1.475  -2.681  1.00  0.00     0.165 A 
ATOM     12  O   UNL     1       8.300  -3.315  -1.465  1.00  0.00    -0.454 OA
ATOM     13  O   UNL     1       9.415  -2.487  -3.169  1.00  0.00    -0.454 OA
ATOM     14  C   UNL     1       9.321  -3.643  -2.371  1.00  0.00     0.468 C 
ENDBRANCH   5   6
ENDBRANCH   1   5
TORSDOF 3
ENDMDL
MODEL 5
REMARK VINA RESULT:      -6.8      1.247      1.741
REMARK SMILES CC(=O)CCc1ccc2c(c1)OCO2
REMARK SMILES IDX 4 1 2 2 1 3 3 4 5 5 6 6 7 7 11 8 8 9 10 10 9 11 12 12 14 13
REMARK SMILES IDX 13 14
REMARK H PARENT
REMARK Flexibility Score: inf
ROOT
ATOM      1  C   UNL     1       5.329  -0.094   1.943  1.00  0.00     0.080 C 
ENDROOT
BRANCH   1   2
ATOM      2  C   UNL     1       4.464   1.106   1.774  1.00  0.00     0.130 C 
ATOM      3  C   UNL     1       4.766   2.150   0.759  1.00  0.00     0.087 C 
ATOM      4  O   UNL     1       3.475   1.268   2.471  1.00  0.00    -0.300 OA
ENDBRANCH   1   2
BRANCH   1   5
ATOM      5  C   UNL     1       6.799   0.276   1.902  1.00  0.00     0.043 C 
BRANCH   5   6
ATOM      6  C   UNL     1       7.411  -0.061   0.605  1.00  0.00    -0.044 A 
ATOM      7  C   UNL     1       7.927   0.927  -0.241  1.00  0.00     0.008 A 
ATOM      8  C   UNL     1       7.486  -1.377   0.207  1.00  0.00     0.054 A 
ATOM      9  C   UNL     1       8.491   0.551  -1.447  1.00  0.00     0.051 A 
ATOM     10  C   UNL     1       8.057  -1.752  -1.012  1.00  0.00     0.166 A 
ATOM     11  C   UNL     1       8.564  -0.780  -1.846  1.00  0.00     0.165 A 
ATOM     12  O   UNL     1       8.247  -2.973  -1.625  1.00  0.00    -0.454 OA
ATOM     13  O   UNL     1       9.060  -1.431  -2.965  1.00  0.00    -0.454 OA
ATOM     14  C   UNL     1       8.962  -2.828  -2.826  1.00  0.00     0.468 C 
ENDBRANCH   5   6
ENDBRANCH   1   5
TORSDOF 3
ENDMDL
