@<TRIPOS>MOLECULE
/home/cewinharhar/GITHUB/reincatalyze/data/processed/docking_pred/2023-May-31-1438_sub9_nm5_bs15_s42_ex16_mel10_mts1000_k50_ec05_g099_lra9e-4_lrc3e-3/65610c622cc3bd86a4d466f03d6f61670904542e_ligand_9.pdbqt
 14 15 0 0 0
SMALL
GASTEIGER

@<TRIPOS>ATOM
      1  C          6.3360    1.2520    0.8860 C.3     1  UNL1        0.0800
      2  C          5.6680    0.4140    1.9200 C.2     1  UNL1        0.1300
      3  C          6.3210   -0.7970    2.4850 C.3     1  UNL1        0.0870
      4  O          4.5560    0.6990    2.3350 O.2     1  UNL1       -0.3000
      5  C          5.8190    0.9300   -0.5030 C.3     1  UNL1        0.0430
      6  C          6.7840    0.1220   -1.2700 C.2     1  UNL1       -0.0440
      7  C          7.4900    0.6570   -2.3540 C.2     1  UNL1        0.0080
      8  C          7.0050   -1.1910   -0.9210 C.2     1  UNL1        0.0540
      9  C          8.3830   -0.1480   -3.0370 C.2     1  UNL1        0.0510
     10  C          7.9100   -2.0010   -1.6140 C.2     1  UNL1        0.1660
     11  C          8.6040   -1.4750   -2.6810 C.2     1  UNL1        0.1650
     12  O          8.3000   -3.3150   -1.4650 O.2     1  UNL1       -0.4540
     13  O          9.4150   -2.4870   -3.1690 O.2     1  UNL1       -0.4540
     14  C          9.3210   -3.6430   -2.3710 C.3     1  UNL1        0.4680
@<TRIPOS>BOND
     1    13    11    1
     2    13    14    1
     3     9    11    2
     4     9     7    1
     5    11    10    1
     6    14    12    1
     7     7     6    2
     8    10    12    1
     9    10     8    2
    10     6     8    1
    11     6     5    1
    12     5     1    1
    13     1     2    1
    14     2     4    2
    15     2     3    1
