@<TRIPOS>MOLECULE
/home/cewinharhar/GITHUB/reincatalyze/data/processed/docking_pred/2023-May-31-1438_sub9_nm5_bs15_s42_ex16_mel10_mts1000_k50_ec05_g099_lra9e-4_lrc3e-3/67714d3181cdcfbe83529be90e704c7fe5693ba3_ligand_9.pdbqt
 14 15 0 0 0
SMALL
GASTEIGER

@<TRIPOS>ATOM
      1  C          5.8480    1.5850    0.8780 C.3     1  UNL1        0.0800
      2  C          5.3740    0.5690    1.8590 C.2     1  UNL1        0.1300
      3  C          6.1970   -0.6180    2.2130 C.3     1  UNL1        0.0870
      4  O          4.2880    0.6840    2.4040 O.2     1  UNL1       -0.3000
      5  C          5.7590    1.0620   -0.5420 C.3     1  UNL1        0.0430
      6  C          7.0080    0.4020   -0.9610 C.2     1  UNL1       -0.0440
      7  C          8.2550    1.0100   -0.7780 C.2     1  UNL1        0.0080
      8  C          6.9590   -0.8430   -1.5460 C.2     1  UNL1        0.0540
      9  C          9.3940    0.3420   -1.1900 C.2     1  UNL1        0.0510
     10  C          8.1140   -1.5140   -1.9600 C.2     1  UNL1        0.1660
     11  C          9.3410   -0.9160   -1.7810 C.2     1  UNL1        0.1650
     12  O          8.3260   -2.7390   -2.5580 O.2     1  UNL1       -0.4540
     13  O         10.2910   -1.7950   -2.2770 O.2     1  UNL1       -0.4540
     14  C          9.6980   -3.0010   -2.6960 C.3     1  UNL1        0.4680
@<TRIPOS>BOND
     1    14    12    1
     2    14    13    1
     3    12    10    1
     4    13    11    1
     5    10    11    2
     6    10     8    1
     7    11     9    1
     8     8     6    2
     9     9     7    2
    10     6     7    1
    11     6     5    1
    12     5     1    1
    13     1     2    1
    14     2     3    1
    15     2     4    2
