@<TRIPOS>MOLECULE
/home/cewinharhar/GITHUB/reincatalyze/data/processed/docking_pred/2023-May-31-1438_sub9_nm5_bs15_s42_ex16_mel10_mts1000_k50_ec05_g099_lra9e-4_lrc3e-3/67714d3181cdcfbe83529be90e704c7fe5693ba3_ligand_9.pdbqt
 14 15 0 0 0
SMALL
GASTEIGER

@<TRIPOS>ATOM
      1  C          5.8540    1.3580   -0.2820 C.3     1  UNL1        0.0800
      2  C          5.2510    1.1550    1.0650 C.2     1  UNL1        0.1300
      3  C          5.6050   -0.0160    1.9100 C.3     1  UNL1        0.0870
      4  O          4.4420    1.9500    1.5150 O.2     1  UNL1       -0.3000
      5  C          7.3680    1.3090   -0.2200 C.3     1  UNL1        0.0430
      6  C          7.9110    0.1850   -1.0040 C.2     1  UNL1       -0.0440
      7  C          7.2610   -0.2930   -2.1470 C.2     1  UNL1        0.0080
      8  C          9.0870   -0.4140   -0.6120 C.2     1  UNL1        0.0540
      9  C          7.8180   -1.3500   -2.8430 C.2     1  UNL1        0.0510
     10  C          9.6460   -1.4820   -1.3200 C.2     1  UNL1        0.1660
     11  C          9.0060   -1.9540   -2.4440 C.2     1  UNL1        0.1650
     12  O         10.7860   -2.2370   -1.1370 O.2     1  UNL1       -0.4540
     13  O          9.7750   -2.9990   -2.9340 O.2     1  UNL1       -0.4540
     14  C         10.9580   -3.1520   -2.1880 C.3     1  UNL1        0.4680
@<TRIPOS>BOND
     1    13    11    1
     2    13    14    1
     3     9    11    2
     4     9     7    1
     5    11    10    1
     6    14    12    1
     7     7     6    2
     8    10    12    1
     9    10     8    2
    10     6     8    1
    11     6     5    1
    12     1     5    1
    13     1     2    1
    14     2     4    2
    15     2     3    1
