@<TRIPOS>MOLECULE
/home/cewinharhar/GITHUB/reincatalyze/data/processed/docking_pred/2023-May-31-1438_sub9_nm5_bs15_s42_ex16_mel10_mts1000_k50_ec05_g099_lra9e-4_lrc3e-3/67714d3181cdcfbe83529be90e704c7fe5693ba3_ligand_9.pdbqt
 14 15 0 0 0
SMALL
GASTEIGER

@<TRIPOS>ATOM
      1  C          6.1390   -0.4740    1.8150 C.3     1  UNL1        0.0800
      2  C          5.1510    0.6400    1.7640 C.2     1  UNL1        0.1300
      3  C          5.2760    1.7500    0.7830 C.3     1  UNL1        0.0870
      4  O          4.2040    0.6730    2.5330 O.2     1  UNL1       -0.3000
      5  C          6.4480   -0.9990    0.4270 C.3     1  UNL1        0.0430
      6  C          7.8770   -0.8590    0.0950 C.2     1  UNL1       -0.0440
      7  C          8.3510    0.2160   -0.6650 C.2     1  UNL1        0.0080
      8  C          8.7760   -1.8010    0.5400 C.2     1  UNL1        0.0540
      9  C          9.7030    0.2960   -0.9440 C.2     1  UNL1        0.0510
     10  C         10.1430   -1.7160    0.2560 C.2     1  UNL1        0.1660
     11  C         10.6100   -0.6590   -0.4930 C.2     1  UNL1        0.1650
     12  O         11.2210   -2.5120    0.5770 O.2     1  UNL1       -0.4540
     13  O         11.9800   -0.8290   -0.6160 O.2     1  UNL1       -0.4540
     14  C         12.4220   -1.9420    0.1230 C.3     1  UNL1        0.4680
@<TRIPOS>BOND
     1     9     7    1
     2     9    11    2
     3     7     6    2
     4    13    11    1
     5    13    14    1
     6    11    10    1
     7     6     5    1
     8     6     8    1
     9    14    12    1
    10    10     8    2
    11    10    12    1
    12     5     1    1
    13     3     2    1
    14     2     1    1
    15     2     4    2
