MODEL 1
REMARK VINA RESULT:      -8.2      0.000      0.000
REMARK SMILES CC(=O)CCc1ccc2c(c1)OCO2
REMARK SMILES IDX 4 1 2 2 1 3 3 4 5 5 6 6 7 7 11 8 8 9 10 10 9 11 12 12 14 13
REMARK SMILES IDX 13 14
REMARK H PARENT
REMARK Flexibility Score: inf
ROOT
ATOM      1  C   UNL     1       5.848   1.585   0.878  1.00  0.00     0.080 C 
ENDROOT
BRANCH   1   2
ATOM      2  C   UNL     1       5.374   0.569   1.859  1.00  0.00     0.130 C 
ATOM      3  C   UNL     1       6.197  -0.618   2.213  1.00  0.00     0.087 C 
ATOM      4  O   UNL     1       4.288   0.684   2.404  1.00  0.00    -0.300 OA
ENDBRANCH   1   2
BRANCH   1   5
ATOM      5  C   UNL     1       5.759   1.062  -0.542  1.00  0.00     0.043 C 
BRANCH   5   6
ATOM      6  C   UNL     1       7.008   0.402  -0.961  1.00  0.00    -0.044 A 
ATOM      7  C   UNL     1       8.255   1.010  -0.778  1.00  0.00     0.008 A 
ATOM      8  C   UNL     1       6.959  -0.843  -1.546  1.00  0.00     0.054 A 
ATOM      9  C   UNL     1       9.394   0.342  -1.190  1.00  0.00     0.051 A 
ATOM     10  C   UNL     1       8.114  -1.514  -1.960  1.00  0.00     0.166 A 
ATOM     11  C   UNL     1       9.341  -0.916  -1.781  1.00  0.00     0.165 A 
ATOM     12  O   UNL     1       8.326  -2.739  -2.558  1.00  0.00    -0.454 OA
ATOM     13  O   UNL     1      10.291  -1.795  -2.277  1.00  0.00    -0.454 OA
ATOM     14  C   UNL     1       9.698  -3.001  -2.696  1.00  0.00     0.468 C 
ENDBRANCH   5   6
ENDBRANCH   1   5
TORSDOF 3
ENDMDL
MODEL 2
REMARK VINA RESULT:      -7.7      1.064      1.776
REMARK SMILES CC(=O)CCc1ccc2c(c1)OCO2
REMARK SMILES IDX 4 1 2 2 1 3 3 4 5 5 6 6 7 7 11 8 8 9 10 10 9 11 12 12 14 13
REMARK SMILES IDX 13 14
REMARK H PARENT
REMARK Flexibility Score: inf
ROOT
ATOM      1  C   UNL     1       5.854   1.358  -0.282  1.00  0.00     0.080 C 
ENDROOT
BRANCH   1   2
ATOM      2  C   UNL     1       5.251   1.155   1.065  1.00  0.00     0.130 C 
ATOM      3  C   UNL     1       5.605  -0.016   1.910  1.00  0.00     0.087 C 
ATOM      4  O   UNL     1       4.442   1.950   1.515  1.00  0.00    -0.300 OA
ENDBRANCH   1   2
BRANCH   1   5
ATOM      5  C   UNL     1       7.368   1.309  -0.220  1.00  0.00     0.043 C 
BRANCH   5   6
ATOM      6  C   UNL     1       7.911   0.185  -1.004  1.00  0.00    -0.044 A 
ATOM      7  C   UNL     1       7.261  -0.293  -2.147  1.00  0.00     0.008 A 
ATOM      8  C   UNL     1       9.087  -0.414  -0.612  1.00  0.00     0.054 A 
ATOM      9  C   UNL     1       7.818  -1.350  -2.843  1.00  0.00     0.051 A 
ATOM     10  C   UNL     1       9.646  -1.482  -1.320  1.00  0.00     0.166 A 
ATOM     11  C   UNL     1       9.006  -1.954  -2.444  1.00  0.00     0.165 A 
ATOM     12  O   UNL     1      10.786  -2.237  -1.137  1.00  0.00    -0.454 OA
ATOM     13  O   UNL     1       9.775  -2.999  -2.934  1.00  0.00    -0.454 OA
ATOM     14  C   UNL     1      10.958  -3.152  -2.188  1.00  0.00     0.468 C 
ENDBRANCH   5   6
ENDBRANCH   1   5
TORSDOF 3
ENDMDL
MODEL 3
REMARK VINA RESULT:      -7.5      1.250      1.994
REMARK SMILES CC(=O)CCc1ccc2c(c1)OCO2
REMARK SMILES IDX 4 1 2 2 1 3 3 4 5 5 6 6 7 7 11 8 8 9 10 10 9 11 12 12 14 13
REMARK SMILES IDX 13 14
REMARK H PARENT
REMARK Flexibility Score: inf
ROOT
ATOM      1  C   UNL     1       6.620   0.159   1.021  1.00  0.00     0.080 C 
ENDROOT
BRANCH   1   2
ATOM      2  C   UNL     1       5.401   0.954   1.334  1.00  0.00     0.130 C 
ATOM      3  C   UNL     1       4.971   2.094   0.481  1.00  0.00     0.087 C 
ATOM      4  O   UNL     1       4.714   0.691   2.309  1.00  0.00    -0.300 OA
ENDBRANCH   1   2
BRANCH   1   5
ATOM      5  C   UNL     1       7.456   0.831  -0.050  1.00  0.00     0.043 C 
BRANCH   5   6
ATOM      6  C   UNL     1       8.095  -0.152  -0.943  1.00  0.00    -0.044 A 
ATOM      7  C   UNL     1       7.678  -0.318  -2.268  1.00  0.00     0.008 A 
ATOM      8  C   UNL     1       9.129  -0.929  -0.472  1.00  0.00     0.054 A 
ATOM      9  C   UNL     1       8.316  -1.256  -3.060  1.00  0.00     0.051 A 
ATOM     10  C   UNL     1       9.771  -1.876  -1.277  1.00  0.00     0.166 A 
ATOM     11  C   UNL     1       9.361  -2.041  -2.581  1.00  0.00     0.165 A 
ATOM     12  O   UNL     1      10.806  -2.757  -1.047  1.00  0.00    -0.454 OA
ATOM     13  O   UNL     1      10.161  -3.029  -3.131  1.00  0.00    -0.454 OA
ATOM     14  C   UNL     1      11.151  -3.447  -2.221  1.00  0.00     0.468 C 
ENDBRANCH   5   6
ENDBRANCH   1   5
TORSDOF 3
ENDMDL
MODEL 4
REMARK VINA RESULT:      -7.4      1.444      2.153
REMARK SMILES CC(=O)CCc1ccc2c(c1)OCO2
REMARK SMILES IDX 4 1 2 2 1 3 3 4 5 5 6 6 7 7 11 8 8 9 10 10 9 11 12 12 14 13
REMARK SMILES IDX 13 14
REMARK H PARENT
REMARK Flexibility Score: inf
ROOT
ATOM      1  C   UNL     1       6.676   0.331   1.632  1.00  0.00     0.080 C 
ENDROOT
BRANCH   1   2
ATOM      2  C   UNL     1       5.364   1.023   1.492  1.00  0.00     0.130 C 
ATOM      3  C   UNL     1       5.105   1.989   0.391  1.00  0.00     0.087 C 
ATOM      4  O   UNL     1       4.459   0.816   2.283  1.00  0.00    -0.300 OA
ENDBRANCH   1   2
BRANCH   1   5
ATOM      5  C   UNL     1       6.555  -1.146   1.313  1.00  0.00     0.043 C 
BRANCH   5   6
ATOM      6  C   UNL     1       7.294  -1.504   0.090  1.00  0.00    -0.044 A 
ATOM      7  C   UNL     1       6.865  -1.084  -1.175  1.00  0.00     0.008 A 
ATOM      8  C   UNL     1       8.437  -2.266   0.181  1.00  0.00     0.054 A 
ATOM      9  C   UNL     1       7.600  -1.450  -2.288  1.00  0.00     0.051 A 
ATOM     10  C   UNL     1       9.176  -2.633  -0.947  1.00  0.00     0.166 A 
ATOM     11  C   UNL     1       8.754  -2.221  -2.192  1.00  0.00     0.165 A 
ATOM     12  O   UNL     1      10.327  -3.373  -1.117  1.00  0.00    -0.454 OA
ATOM     13  O   UNL     1       9.665  -2.722  -3.109  1.00  0.00    -0.454 OA
ATOM     14  C   UNL     1      10.727  -3.382  -2.463  1.00  0.00     0.468 C 
ENDBRANCH   5   6
ENDBRANCH   1   5
TORSDOF 3
ENDMDL
MODEL 5
REMARK VINA RESULT:      -7.3      1.954      2.478
REMARK SMILES CC(=O)CCc1ccc2c(c1)OCO2
REMARK SMILES IDX 4 1 2 2 1 3 3 4 5 5 6 6 7 7 11 8 8 9 10 10 9 11 12 12 14 13
REMARK SMILES IDX 13 14
REMARK H PARENT
REMARK Flexibility Score: inf
ROOT
ATOM      1  C   UNL     1       6.139  -0.474   1.815  1.00  0.00     0.080 C 
ENDROOT
BRANCH   1   2
ATOM      2  C   UNL     1       5.151   0.640   1.764  1.00  0.00     0.130 C 
ATOM      3  C   UNL     1       5.276   1.750   0.783  1.00  0.00     0.087 C 
ATOM      4  O   UNL     1       4.204   0.673   2.533  1.00  0.00    -0.300 OA
ENDBRANCH   1   2
BRANCH   1   5
ATOM      5  C   UNL     1       6.448  -0.999   0.427  1.00  0.00     0.043 C 
BRANCH   5   6
ATOM      6  C   UNL     1       7.877  -0.859   0.095  1.00  0.00    -0.044 A 
ATOM      7  C   UNL     1       8.351   0.216  -0.665  1.00  0.00     0.008 A 
ATOM      8  C   UNL     1       8.776  -1.801   0.540  1.00  0.00     0.054 A 
ATOM      9  C   UNL     1       9.703   0.296  -0.944  1.00  0.00     0.051 A 
ATOM     10  C   UNL     1      10.143  -1.716   0.256  1.00  0.00     0.166 A 
ATOM     11  C   UNL     1      10.610  -0.659  -0.493  1.00  0.00     0.165 A 
ATOM     12  O   UNL     1      11.221  -2.512   0.577  1.00  0.00    -0.454 OA
ATOM     13  O   UNL     1      11.980  -0.829  -0.616  1.00  0.00    -0.454 OA
ATOM     14  C   UNL     1      12.422  -1.942   0.123  1.00  0.00     0.468 C 
ENDBRANCH   5   6
ENDBRANCH   1   5
TORSDOF 3
ENDMDL
