@<TRIPOS>MOLECULE
/home/cewinharhar/GITHUB/reincatalyze/data/processed/docking_pred/2023-May-31-1438_sub9_nm5_bs15_s42_ex16_mel10_mts1000_k50_ec05_g099_lra9e-4_lrc3e-3/67714d3181cdcfbe83529be90e704c7fe5693ba3_ligand_9.pdbqt
 14 15 0 0 0
SMALL
GASTEIGER

@<TRIPOS>ATOM
      1  C          6.6200    0.1590    1.0210 C.3     1  UNL1        0.0800
      2  C          5.4010    0.9540    1.3340 C.2     1  UNL1        0.1300
      3  C          4.9710    2.0940    0.4810 C.3     1  UNL1        0.0870
      4  O          4.7140    0.6910    2.3090 O.2     1  UNL1       -0.3000
      5  C          7.4560    0.8310   -0.0500 C.3     1  UNL1        0.0430
      6  C          8.0950   -0.1520   -0.9430 C.2     1  UNL1       -0.0440
      7  C          7.6780   -0.3180   -2.2680 C.2     1  UNL1        0.0080
      8  C          9.1290   -0.9290   -0.4720 C.2     1  UNL1        0.0540
      9  C          8.3160   -1.2560   -3.0600 C.2     1  UNL1        0.0510
     10  C          9.7710   -1.8760   -1.2770 C.2     1  UNL1        0.1660
     11  C          9.3610   -2.0410   -2.5810 C.2     1  UNL1        0.1650
     12  O         10.8060   -2.7570   -1.0470 O.2     1  UNL1       -0.4540
     13  O         10.1610   -3.0290   -3.1310 O.2     1  UNL1       -0.4540
     14  C         11.1510   -3.4470   -2.2210 C.3     1  UNL1        0.4680
@<TRIPOS>BOND
     1    13    11    1
     2    13    14    1
     3     9    11    2
     4     9     7    1
     5    11    10    1
     6     7     6    2
     7    14    12    1
     8    10    12    1
     9    10     8    2
    10     6     8    1
    11     6     5    1
    12     5     1    1
    13     3     2    1
    14     1     2    1
    15     2     4    2
