@<TRIPOS>MOLECULE
/home/cewinharhar/GITHUB/reincatalyze/data/processed/docking_pred/2023-May-31-1438_sub9_nm5_bs15_s42_ex16_mel10_mts1000_k50_ec05_g099_lra9e-4_lrc3e-3/67714d3181cdcfbe83529be90e704c7fe5693ba3_ligand_9.pdbqt
 14 15 0 0 0
SMALL
GASTEIGER

@<TRIPOS>ATOM
      1  C          6.6760    0.3310    1.6320 C.3     1  UNL1        0.0800
      2  C          5.3640    1.0230    1.4920 C.2     1  UNL1        0.1300
      3  C          5.1050    1.9890    0.3910 C.3     1  UNL1        0.0870
      4  O          4.4590    0.8160    2.2830 O.2     1  UNL1       -0.3000
      5  C          6.5550   -1.1460    1.3130 C.3     1  UNL1        0.0430
      6  C          7.2940   -1.5040    0.0900 C.2     1  UNL1       -0.0440
      7  C          6.8650   -1.0840   -1.1750 C.2     1  UNL1        0.0080
      8  C          8.4370   -2.2660    0.1810 C.2     1  UNL1        0.0540
      9  C          7.6000   -1.4500   -2.2880 C.2     1  UNL1        0.0510
     10  C          9.1760   -2.6330   -0.9470 C.2     1  UNL1        0.1660
     11  C          8.7540   -2.2210   -2.1920 C.2     1  UNL1        0.1650
     12  O         10.3270   -3.3730   -1.1170 O.2     1  UNL1       -0.4540
     13  O          9.6650   -2.7220   -3.1090 O.2     1  UNL1       -0.4540
     14  C         10.7270   -3.3820   -2.4630 C.3     1  UNL1        0.4680
@<TRIPOS>BOND
     1    13    14    1
     2    13    11    1
     3    14    12    1
     4     9    11    2
     5     9     7    1
     6    11    10    1
     7     7     6    2
     8    12    10    1
     9    10     8    2
    10     6     8    1
    11     6     5    1
    12     3     2    1
    13     5     1    1
    14     2     1    1
    15     2     4    2
