@<TRIPOS>MOLECULE
/home/cewinharhar/GITHUB/reincatalyze/data/processed/docking_pred/2023-May-31-1438_sub9_nm5_bs15_s42_ex16_mel10_mts1000_k50_ec05_g099_lra9e-4_lrc3e-3/677496c5c46bc5e4ac1ff58ba47d0b72a83fedc5_ligand_9.pdbqt
 14 15 0 0 0
SMALL
GASTEIGER

@<TRIPOS>ATOM
      1  C          6.3810    1.2170    0.8780 C.3     1  UNL1        0.0800
      2  C          5.6920    0.3940    1.9110 C.2     1  UNL1        0.1300
      3  C          6.3150   -0.8330    2.4740 C.3     1  UNL1        0.0870
      4  O          4.5880    0.7050    2.3260 O.2     1  UNL1       -0.3000
      5  C          5.8730    0.8930   -0.5130 C.3     1  UNL1        0.0430
      6  C          6.8330    0.0670   -1.2660 C.2     1  UNL1       -0.0440
      7  C          7.5420    0.5790   -2.3590 C.2     1  UNL1        0.0080
      8  C          7.0480   -1.2400   -0.8930 C.2     1  UNL1        0.0540
      9  C          8.4310   -0.2430   -3.0280 C.2     1  UNL1        0.0510
     10  C          7.9490   -2.0670   -1.5720 C.2     1  UNL1        0.1660
     11  C          8.6450   -1.5640   -2.6480 C.2     1  UNL1        0.1650
     12  O          8.3320   -3.3800   -1.4000 O.2     1  UNL1       -0.4540
     13  O          9.4510   -2.5890   -3.1190 O.2     1  UNL1       -0.4540
     14  C          9.3510   -3.7300   -2.3000 C.3     1  UNL1        0.4680
@<TRIPOS>BOND
     1    13    11    1
     2    13    14    1
     3     9    11    2
     4     9     7    1
     5    11    10    1
     6     7     6    2
     7    14    12    1
     8    10    12    1
     9    10     8    2
    10     6     8    1
    11     6     5    1
    12     5     1    1
    13     1     2    1
    14     2     4    2
    15     2     3    1
