@<TRIPOS>MOLECULE
/home/cewinharhar/GITHUB/reincatalyze/data/processed/docking_pred/2023-May-31-1438_sub9_nm5_bs15_s42_ex16_mel10_mts1000_k50_ec05_g099_lra9e-4_lrc3e-3/677496c5c46bc5e4ac1ff58ba47d0b72a83fedc5_ligand_9.pdbqt
 14 15 0 0 0
SMALL
GASTEIGER

@<TRIPOS>ATOM
      1  C          5.5110    1.9450    1.2620 C.3     1  UNL1        0.0800
      2  C          5.0870    0.7270    2.0070 C.2     1  UNL1        0.1300
      3  C          5.9970   -0.4370    2.1820 C.3     1  UNL1        0.0870
      4  O          3.9730    0.6490    2.4970 O.2     1  UNL1       -0.3000
      5  C          5.3860    1.7460   -0.2360 C.3     1  UNL1        0.0430
      6  C          6.5560    1.0460   -0.7940 C.2     1  UNL1       -0.0440
      7  C          7.8610    1.4830   -0.5410 C.2     1  UNL1        0.0080
      8  C          6.3730   -0.0670   -1.5830 C.2     1  UNL1        0.0540
      9  C          8.9210    0.7850   -1.0910 C.2     1  UNL1        0.0510
     10  C          7.4470   -0.7690   -2.1370 C.2     1  UNL1        0.1660
     11  C          8.7320   -0.3400   -1.8890 C.2     1  UNL1        0.1650
     12  O          7.5250   -1.8860   -2.9420 O.2     1  UNL1       -0.4540
     13  O          9.5810   -1.2110   -2.5530 O.2     1  UNL1       -0.4540
     14  C          8.8620   -2.2590   -3.1580 C.3     1  UNL1        0.4680
@<TRIPOS>BOND
     1    14    12    1
     2    14    13    1
     3    12    10    1
     4    13    11    1
     5    10    11    2
     6    10     8    1
     7    11     9    1
     8     8     6    2
     9     9     7    2
    10     6     7    1
    11     6     5    1
    12     5     1    1
    13     1     2    1
    14     2     3    1
    15     2     4    2
