MODEL 1
REMARK VINA RESULT:      -7.6      0.000      0.000
REMARK SMILES CC(=O)CCc1ccc2c(c1)OCO2
REMARK SMILES IDX 4 1 2 2 1 3 3 4 5 5 6 6 7 7 11 8 8 9 10 10 9 11 12 12 14 13
REMARK SMILES IDX 13 14
REMARK H PARENT
REMARK Flexibility Score: inf
ROOT
ATOM      1  C   UNL     1       5.511   1.945   1.262  1.00  0.00     0.080 C 
ENDROOT
BRANCH   1   2
ATOM      2  C   UNL     1       5.087   0.727   2.007  1.00  0.00     0.130 C 
ATOM      3  C   UNL     1       5.997  -0.437   2.182  1.00  0.00     0.087 C 
ATOM      4  O   UNL     1       3.973   0.649   2.497  1.00  0.00    -0.300 OA
ENDBRANCH   1   2
BRANCH   1   5
ATOM      5  C   UNL     1       5.386   1.746  -0.236  1.00  0.00     0.043 C 
BRANCH   5   6
ATOM      6  C   UNL     1       6.556   1.046  -0.794  1.00  0.00    -0.044 A 
ATOM      7  C   UNL     1       7.861   1.483  -0.541  1.00  0.00     0.008 A 
ATOM      8  C   UNL     1       6.373  -0.067  -1.583  1.00  0.00     0.054 A 
ATOM      9  C   UNL     1       8.921   0.785  -1.091  1.00  0.00     0.051 A 
ATOM     10  C   UNL     1       7.447  -0.769  -2.137  1.00  0.00     0.166 A 
ATOM     11  C   UNL     1       8.732  -0.340  -1.889  1.00  0.00     0.165 A 
ATOM     12  O   UNL     1       7.525  -1.886  -2.942  1.00  0.00    -0.454 OA
ATOM     13  O   UNL     1       9.581  -1.211  -2.553  1.00  0.00    -0.454 OA
ATOM     14  C   UNL     1       8.862  -2.259  -3.158  1.00  0.00     0.468 C 
ENDBRANCH   5   6
ENDBRANCH   1   5
TORSDOF 3
ENDMDL
MODEL 2
REMARK VINA RESULT:      -7.4      1.938      2.407
REMARK SMILES CC(=O)CCc1ccc2c(c1)OCO2
REMARK SMILES IDX 4 1 2 2 1 3 3 4 5 5 6 6 7 7 11 8 8 9 10 10 9 11 12 12 14 13
REMARK SMILES IDX 13 14
REMARK H PARENT
REMARK Flexibility Score: inf
ROOT
ATOM      1  C   UNL     1       5.703   1.239  -0.316  1.00  0.00     0.080 C 
ENDROOT
BRANCH   1   2
ATOM      2  C   UNL     1       5.140   1.212   1.063  1.00  0.00     0.130 C 
ATOM      3  C   UNL     1       5.348   0.051   1.969  1.00  0.00     0.087 C 
ATOM      4  O   UNL     1       4.487   2.150   1.491  1.00  0.00    -0.300 OA
ENDBRANCH   1   2
BRANCH   1   5
ATOM      5  C   UNL     1       7.209   1.065  -0.299  1.00  0.00     0.043 C 
BRANCH   5   6
ATOM      6  C   UNL     1       7.617  -0.221  -0.892  1.00  0.00    -0.044 A 
ATOM      7  C   UNL     1       7.765  -0.376  -2.276  1.00  0.00     0.008 A 
ATOM      8  C   UNL     1       7.864  -1.301  -0.076  1.00  0.00     0.054 A 
ATOM      9  C   UNL     1       8.152  -1.607  -2.775  1.00  0.00     0.051 A 
ATOM     10  C   UNL     1       8.256  -2.543  -0.586  1.00  0.00     0.166 A 
ATOM     11  C   UNL     1       8.400  -2.697  -1.947  1.00  0.00     0.165 A 
ATOM     12  O   UNL     1       8.555  -3.750   0.008  1.00  0.00    -0.454 OA
ATOM     13  O   UNL     1       8.790  -4.009  -2.162  1.00  0.00    -0.454 OA
ATOM     14  C   UNL     1       8.988  -4.687  -0.945  1.00  0.00     0.468 C 
ENDBRANCH   5   6
ENDBRANCH   1   5
TORSDOF 3
ENDMDL
MODEL 3
REMARK VINA RESULT:      -7.2      2.047      2.620
REMARK SMILES CC(=O)CCc1ccc2c(c1)OCO2
REMARK SMILES IDX 4 1 2 2 1 3 3 4 5 5 6 6 7 7 11 8 8 9 10 10 9 11 12 12 14 13
REMARK SMILES IDX 13 14
REMARK H PARENT
REMARK Flexibility Score: inf
ROOT
ATOM      1  C   UNL     1       5.440  -0.025   2.048  1.00  0.00     0.080 C 
ENDROOT
BRANCH   1   2
ATOM      2  C   UNL     1       4.562   1.146   1.773  1.00  0.00     0.130 C 
ATOM      3  C   UNL     1       4.884   2.131   0.706  1.00  0.00     0.087 C 
ATOM      4  O   UNL     1       3.546   1.333   2.422  1.00  0.00    -0.300 OA
ENDBRANCH   1   2
BRANCH   1   5
ATOM      5  C   UNL     1       6.865   0.238   1.601  1.00  0.00     0.043 C 
BRANCH   5   6
ATOM      6  C   UNL     1       7.285  -0.693   0.539  1.00  0.00    -0.044 A 
ATOM      7  C   UNL     1       7.160  -0.364  -0.816  1.00  0.00     0.008 A 
ATOM      8  C   UNL     1       7.817  -1.917   0.875  1.00  0.00     0.054 A 
ATOM      9  C   UNL     1       7.573  -1.277  -1.769  1.00  0.00     0.051 A 
ATOM     10  C   UNL     1       8.233  -2.836  -0.092  1.00  0.00     0.166 A 
ATOM     11  C   UNL     1       8.109  -2.514  -1.425  1.00  0.00     0.165 A 
ATOM     12  O   UNL     1       8.784  -4.098  -0.014  1.00  0.00    -0.454 OA
ATOM     13  O   UNL     1       8.593  -3.595  -2.146  1.00  0.00    -0.454 OA
ATOM     14  C   UNL     1       9.115  -4.583  -1.290  1.00  0.00     0.468 C 
ENDBRANCH   5   6
ENDBRANCH   1   5
TORSDOF 3
ENDMDL
MODEL 4
REMARK VINA RESULT:      -7.1      1.267      1.501
REMARK SMILES CC(=O)CCc1ccc2c(c1)OCO2
REMARK SMILES IDX 4 1 2 2 1 3 3 4 5 5 6 6 7 7 11 8 8 9 10 10 9 11 12 12 14 13
REMARK SMILES IDX 13 14
REMARK H PARENT
REMARK Flexibility Score: inf
ROOT
ATOM      1  C   UNL     1       6.381   1.217   0.878  1.00  0.00     0.080 C 
ENDROOT
BRANCH   1   2
ATOM      2  C   UNL     1       5.692   0.394   1.911  1.00  0.00     0.130 C 
ATOM      3  C   UNL     1       6.315  -0.833   2.474  1.00  0.00     0.087 C 
ATOM      4  O   UNL     1       4.588   0.705   2.326  1.00  0.00    -0.300 OA
ENDBRANCH   1   2
BRANCH   1   5
ATOM      5  C   UNL     1       5.873   0.893  -0.513  1.00  0.00     0.043 C 
BRANCH   5   6
ATOM      6  C   UNL     1       6.833   0.067  -1.266  1.00  0.00    -0.044 A 
ATOM      7  C   UNL     1       7.542   0.579  -2.359  1.00  0.00     0.008 A 
ATOM      8  C   UNL     1       7.048  -1.240  -0.893  1.00  0.00     0.054 A 
ATOM      9  C   UNL     1       8.431  -0.243  -3.028  1.00  0.00     0.051 A 
ATOM     10  C   UNL     1       7.949  -2.067  -1.572  1.00  0.00     0.166 A 
ATOM     11  C   UNL     1       8.645  -1.564  -2.648  1.00  0.00     0.165 A 
ATOM     12  O   UNL     1       8.332  -3.380  -1.400  1.00  0.00    -0.454 OA
ATOM     13  O   UNL     1       9.451  -2.589  -3.119  1.00  0.00    -0.454 OA
ATOM     14  C   UNL     1       9.351  -3.730  -2.300  1.00  0.00     0.468 C 
ENDBRANCH   5   6
ENDBRANCH   1   5
TORSDOF 3
ENDMDL
MODEL 5
REMARK VINA RESULT:      -7.0      1.948      2.495
REMARK SMILES CC(=O)CCc1ccc2c(c1)OCO2
REMARK SMILES IDX 4 1 2 2 1 3 3 4 5 5 6 6 7 7 11 8 8 9 10 10 9 11 12 12 14 13
REMARK SMILES IDX 13 14
REMARK H PARENT
REMARK Flexibility Score: inf
ROOT
ATOM      1  C   UNL     1       6.931   0.976   1.252  1.00  0.00     0.080 C 
ENDROOT
BRANCH   1   2
ATOM      2  C   UNL     1       5.462   1.150   1.431  1.00  0.00     0.130 C 
ATOM      3  C   UNL     1       4.693   2.150   0.643  1.00  0.00     0.087 C 
ATOM      4  O   UNL     1       4.845   0.473   2.236  1.00  0.00    -0.300 OA
ENDBRANCH   1   2
BRANCH   1   5
ATOM      5  C   UNL     1       7.331   1.136  -0.201  1.00  0.00     0.043 C 
BRANCH   5   6
ATOM      6  C   UNL     1       7.681  -0.157  -0.817  1.00  0.00    -0.044 A 
ATOM      7  C   UNL     1       7.774  -0.306  -2.205  1.00  0.00     0.008 A 
ATOM      8  C   UNL     1       7.927  -1.249  -0.016  1.00  0.00     0.054 A 
ATOM      9  C   UNL     1       8.107  -1.543  -2.726  1.00  0.00     0.051 A 
ATOM     10  C   UNL     1       8.264  -2.497  -0.548  1.00  0.00     0.166 A 
ATOM     11  C   UNL     1       8.355  -2.646  -1.914  1.00  0.00     0.165 A 
ATOM     12  O   UNL     1       8.550  -3.717   0.028  1.00  0.00    -0.454 OA
ATOM     13  O   UNL     1       8.699  -3.967  -2.152  1.00  0.00    -0.454 OA
ATOM     14  C   UNL     1       8.922  -4.659  -0.946  1.00  0.00     0.468 C 
ENDBRANCH   5   6
ENDBRANCH   1   5
TORSDOF 3
ENDMDL
