@<TRIPOS>MOLECULE
/home/cewinharhar/GITHUB/reincatalyze/data/processed/docking_pred/2023-May-31-1438_sub9_nm5_bs15_s42_ex16_mel10_mts1000_k50_ec05_g099_lra9e-4_lrc3e-3/677496c5c46bc5e4ac1ff58ba47d0b72a83fedc5_ligand_9.pdbqt
 14 15 0 0 0
SMALL
GASTEIGER

@<TRIPOS>ATOM
      1  C          6.9310    0.9760    1.2520 C.3     1  UNL1        0.0800
      2  C          5.4620    1.1500    1.4310 C.2     1  UNL1        0.1300
      3  C          4.6930    2.1500    0.6430 C.3     1  UNL1        0.0870
      4  O          4.8450    0.4730    2.2360 O.2     1  UNL1       -0.3000
      5  C          7.3310    1.1360   -0.2010 C.3     1  UNL1        0.0430
      6  C          7.6810   -0.1570   -0.8170 C.2     1  UNL1       -0.0440
      7  C          7.7740   -0.3060   -2.2050 C.2     1  UNL1        0.0080
      8  C          7.9270   -1.2490   -0.0160 C.2     1  UNL1        0.0540
      9  C          8.1070   -1.5430   -2.7260 C.2     1  UNL1        0.0510
     10  C          8.2640   -2.4970   -0.5480 C.2     1  UNL1        0.1660
     11  C          8.3550   -2.6460   -1.9140 C.2     1  UNL1        0.1650
     12  O          8.5500   -3.7170    0.0280 O.2     1  UNL1       -0.4540
     13  O          8.6990   -3.9670   -2.1520 O.2     1  UNL1       -0.4540
     14  C          8.9220   -4.6590   -0.9460 C.3     1  UNL1        0.4680
@<TRIPOS>BOND
     1     9     7    1
     2     9    11    2
     3     7     6    2
     4    13    11    1
     5    13    14    1
     6    11    10    1
     7    14    12    1
     8     6     5    1
     9     6     8    1
    10    10     8    2
    11    10    12    1
    12     5     1    1
    13     3     2    1
    14     1     2    1
    15     2     4    2
