@<TRIPOS>MOLECULE
/home/cewinharhar/GITHUB/reincatalyze/data/processed/docking_pred/2023-May-31-1438_sub9_nm5_bs15_s42_ex16_mel10_mts1000_k50_ec05_g099_lra9e-4_lrc3e-3/67ebe37560d6b2ff0daae954040d2bc7ae74be81_ligand_9.pdbqt
 14 15 0 0 0
SMALL
GASTEIGER

@<TRIPOS>ATOM
      1  C          5.5810    1.8710    1.2800 C.3     1  UNL1        0.0800
      2  C          5.1230    0.6570    2.0130 C.2     1  UNL1        0.1300
      3  C          6.0060   -0.5250    2.1950 C.3     1  UNL1        0.0870
      4  O          4.0000    0.5990    2.4880 O.2     1  UNL1       -0.3000
      5  C          5.4410    1.6940   -0.2190 C.3     1  UNL1        0.0430
      6  C          6.6020    0.9940   -0.7970 C.2     1  UNL1       -0.0440
      7  C          7.9110    1.4370   -0.5740 C.2     1  UNL1        0.0080
      8  C          6.4060   -0.1250   -1.5750 C.2     1  UNL1        0.0540
      9  C          8.9610    0.7390   -1.1420 C.2     1  UNL1        0.0510
     10  C          7.4710   -0.8270   -2.1460 C.2     1  UNL1        0.1660
     11  C          8.7590   -0.3910   -1.9290 C.2     1  UNL1        0.1650
     12  O          7.5360   -1.9490   -2.9460 O.2     1  UNL1       -0.4540
     13  O          9.5970   -1.2640   -2.6050 O.2     1  UNL1       -0.4540
     14  C          8.8690   -2.3190   -3.1880 C.3     1  UNL1        0.4680
@<TRIPOS>BOND
     1    14    12    1
     2    14    13    1
     3    12    10    1
     4    13    11    1
     5    10    11    2
     6    10     8    1
     7    11     9    1
     8     8     6    2
     9     9     7    2
    10     6     7    1
    11     6     5    1
    12     5     1    1
    13     1     2    1
    14     2     3    1
    15     2     4    2
