@<TRIPOS>MOLECULE
/home/cewinharhar/GITHUB/reincatalyze/data/processed/docking_pred/2023-May-31-1438_sub9_nm5_bs15_s42_ex16_mel10_mts1000_k50_ec05_g099_lra9e-4_lrc3e-3/681e80220216c71ec10eb1429598bf11558fcb24_ligand_9.pdbqt
 14 15 0 0 0
SMALL
GASTEIGER

@<TRIPOS>ATOM
      1  C          6.3760    1.1830    0.9590 C.3     1  UNL1        0.0800
      2  C          5.6440    0.3470    1.9510 C.2     1  UNL1        0.1300
      3  C          6.2400   -0.8920    2.5190 C.3     1  UNL1        0.0870
      4  O          4.5260    0.6570    2.3290 O.2     1  UNL1       -0.3000
      5  C          5.8740    0.9320   -0.4490 C.3     1  UNL1        0.0430
      6  C          6.8200    0.1120   -1.2280 C.2     1  UNL1       -0.0440
      7  C          7.5070    0.6340   -2.3290 C.2     1  UNL1        0.0080
      8  C          7.0410   -1.1990   -0.8710 C.2     1  UNL1        0.0540
      9  C          8.3830   -0.1820   -3.0220 C.2     1  UNL1        0.0510
     10  C          7.9270   -2.0200   -1.5740 C.2     1  UNL1        0.1660
     11  C          8.6040   -1.5070   -2.6590 C.2     1  UNL1        0.1650
     12  O          8.3130   -3.3340   -1.4200 O.2     1  UNL1       -0.4540
     13  O          9.4000   -2.5280   -3.1530 O.2     1  UNL1       -0.4540
     14  C          9.3150   -3.6770   -2.3440 C.3     1  UNL1        0.4680
@<TRIPOS>BOND
     1    13    11    1
     2    13    14    1
     3     9    11    2
     4     9     7    1
     5    11    10    1
     6    14    12    1
     7     7     6    2
     8    10    12    1
     9    10     8    2
    10     6     8    1
    11     6     5    1
    12     5     1    1
    13     1     2    1
    14     2     4    2
    15     2     3    1
