@<TRIPOS>MOLECULE
/home/cewinharhar/GITHUB/reincatalyze/data/processed/docking_pred/2023-May-31-1438_sub9_nm5_bs15_s42_ex16_mel10_mts1000_k50_ec05_g099_lra9e-4_lrc3e-3/681e80220216c71ec10eb1429598bf11558fcb24_ligand_9.pdbqt
 14 15 0 0 0
SMALL
GASTEIGER

@<TRIPOS>ATOM
      1  C          8.3020    0.1930   -2.6800 C.3     1  UNL1        0.0800
      2  C          8.0350   -1.2700   -2.7660 C.2     1  UNL1        0.1300
      3  C          9.1230   -2.2470   -3.0380 C.3     1  UNL1        0.0870
      4  O          6.9080   -1.7110   -2.6150 O.2     1  UNL1       -0.3000
      5  C          8.8310    0.5760   -1.3120 C.3     1  UNL1        0.0430
      6  C          7.8040    0.4240   -0.2660 C.2     1  UNL1       -0.0440
      7  C          7.9130   -0.5500    0.7330 C.2     1  UNL1        0.0080
      8  C          6.7080    1.2560   -0.2610 C.2     1  UNL1        0.0540
      9  C          6.9190   -0.6450    1.6890 C.2     1  UNL1        0.0510
     10  C          5.7050    1.1560    0.7080 C.2     1  UNL1        0.1660
     11  C          5.8110    0.1980    1.6910 C.2     1  UNL1        0.1650
     12  O          4.5350    1.8530    0.9260 O.2     1  UNL1       -0.4540
     13  O          4.6940    0.3280    2.5000 O.2     1  UNL1       -0.4540
     14  C          3.9040    1.4240    2.1050 C.3     1  UNL1        0.4680
@<TRIPOS>BOND
     1     3     2    1
     2     2     1    1
     3     2     4    2
     4     1     5    1
     5     5     6    1
     6     6     8    2
     7     6     7    1
     8     8    10    1
     9    10    12    1
    10    10    11    2
    11     7     9    2
    12    12    14    1
    13     9    11    1
    14    11    13    1
    15    14    13    1
