MODEL 1
REMARK VINA RESULT:      -7.6      0.000      0.000
REMARK SMILES CC(=O)CCc1ccc2c(c1)OCO2
REMARK SMILES IDX 4 1 2 2 1 3 3 4 5 5 6 6 7 7 11 8 8 9 10 10 9 11 12 12 14 13
REMARK SMILES IDX 13 14
REMARK H PARENT
REMARK Flexibility Score: inf
ROOT
ATOM      1  C   UNL     1       5.606   1.856   1.296  1.00  0.00     0.080 C 
ENDROOT
BRANCH   1   2
ATOM      2  C   UNL     1       5.155   0.644   2.035  1.00  0.00     0.130 C 
ATOM      3  C   UNL     1       6.043  -0.535   2.217  1.00  0.00     0.087 C 
ATOM      4  O   UNL     1       4.034   0.583   2.515  1.00  0.00    -0.300 OA
ENDBRANCH   1   2
BRANCH   1   5
ATOM      5  C   UNL     1       5.453   1.677  -0.201  1.00  0.00     0.043 C 
BRANCH   5   6
ATOM      6  C   UNL     1       6.611   0.980  -0.789  1.00  0.00    -0.044 A 
ATOM      7  C   UNL     1       7.920   1.430  -0.583  1.00  0.00     0.008 A 
ATOM      8  C   UNL     1       6.412  -0.144  -1.560  1.00  0.00     0.054 A 
ATOM      9  C   UNL     1       8.967   0.735  -1.160  1.00  0.00     0.051 A 
ATOM     10  C   UNL     1       7.474  -0.843  -2.140  1.00  0.00     0.166 A 
ATOM     11  C   UNL     1       8.762  -0.400  -1.938  1.00  0.00     0.165 A 
ATOM     12  O   UNL     1       7.536  -1.968  -2.934  1.00  0.00    -0.454 OA
ATOM     13  O   UNL     1       9.597  -1.272  -2.619  1.00  0.00    -0.454 OA
ATOM     14  C   UNL     1       8.868  -2.333  -3.189  1.00  0.00     0.468 C 
ENDBRANCH   5   6
ENDBRANCH   1   5
TORSDOF 3
ENDMDL
MODEL 2
REMARK VINA RESULT:      -7.4      1.881      2.333
REMARK SMILES CC(=O)CCc1ccc2c(c1)OCO2
REMARK SMILES IDX 4 1 2 2 1 3 3 4 5 5 6 6 7 7 11 8 8 9 10 10 9 11 12 12 14 13
REMARK SMILES IDX 13 14
REMARK H PARENT
REMARK Flexibility Score: inf
ROOT
ATOM      1  C   UNL     1       5.767   1.439  -0.346  1.00  0.00     0.080 C 
ENDROOT
BRANCH   1   2
ATOM      2  C   UNL     1       5.131   1.341   0.997  1.00  0.00     0.130 C 
ATOM      3  C   UNL     1       5.494   0.264   1.956  1.00  0.00     0.087 C 
ATOM      4  O   UNL     1       4.287   2.149   1.351  1.00  0.00    -0.300 OA
ENDBRANCH   1   2
BRANCH   1   5
ATOM      5  C   UNL     1       7.259   1.184  -0.269  1.00  0.00     0.043 C 
BRANCH   5   6
ATOM      6  C   UNL     1       7.624  -0.111  -0.871  1.00  0.00    -0.044 A 
ATOM      7  C   UNL     1       7.710  -0.276  -2.258  1.00  0.00     0.008 A 
ATOM      8  C   UNL     1       7.891  -1.190  -0.059  1.00  0.00     0.054 A 
ATOM      9  C   UNL     1       8.058  -1.515  -2.766  1.00  0.00     0.051 A 
ATOM     10  C   UNL     1       8.243  -2.440  -0.577  1.00  0.00     0.166 A 
ATOM     11  C   UNL     1       8.326  -2.604  -1.942  1.00  0.00     0.165 A 
ATOM     12  O   UNL     1       8.550  -3.648   0.011  1.00  0.00    -0.454 OA
ATOM     13  O   UNL     1       8.688  -3.923  -2.166  1.00  0.00    -0.454 OA
ATOM     14  C   UNL     1       8.929  -4.597  -0.954  1.00  0.00     0.468 C 
ENDBRANCH   5   6
ENDBRANCH   1   5
TORSDOF 3
ENDMDL
MODEL 3
REMARK VINA RESULT:      -7.1      2.039      2.610
REMARK SMILES CC(=O)CCc1ccc2c(c1)OCO2
REMARK SMILES IDX 4 1 2 2 1 3 3 4 5 5 6 6 7 7 11 8 8 9 10 10 9 11 12 12 14 13
REMARK SMILES IDX 13 14
REMARK H PARENT
REMARK Flexibility Score: inf
ROOT
ATOM      1  C   UNL     1       5.407  -0.061   2.008  1.00  0.00     0.080 C 
ENDROOT
BRANCH   1   2
ATOM      2  C   UNL     1       4.571   1.148   1.764  1.00  0.00     0.130 C 
ATOM      3  C   UNL     1       4.914   2.133   0.703  1.00  0.00     0.087 C 
ATOM      4  O   UNL     1       3.575   1.366   2.433  1.00  0.00    -0.300 OA
ENDBRANCH   1   2
BRANCH   1   5
ATOM      5  C   UNL     1       6.850   0.177   1.609  1.00  0.00     0.043 C 
BRANCH   5   6
ATOM      6  C   UNL     1       7.281  -0.745   0.543  1.00  0.00    -0.044 A 
ATOM      7  C   UNL     1       7.159  -0.410  -0.811  1.00  0.00     0.008 A 
ATOM      8  C   UNL     1       7.821  -1.967   0.875  1.00  0.00     0.054 A 
ATOM      9  C   UNL     1       7.582  -1.315  -1.767  1.00  0.00     0.051 A 
ATOM     10  C   UNL     1       8.248  -2.878  -0.096  1.00  0.00     0.166 A 
ATOM     11  C   UNL     1       8.127  -2.549  -1.428  1.00  0.00     0.165 A 
ATOM     12  O   UNL     1       8.808  -4.136  -0.023  1.00  0.00    -0.454 OA
ATOM     13  O   UNL     1       8.621  -3.622  -2.152  1.00  0.00    -0.454 OA
ATOM     14  C   UNL     1       9.147  -4.612  -1.300  1.00  0.00     0.468 C 
ENDBRANCH   5   6
ENDBRANCH   1   5
TORSDOF 3
ENDMDL
MODEL 4
REMARK VINA RESULT:      -7.0      1.964      2.490
REMARK SMILES CC(=O)CCc1ccc2c(c1)OCO2
REMARK SMILES IDX 4 1 2 2 1 3 3 4 5 5 6 6 7 7 11 8 8 9 10 10 9 11 12 12 14 13
REMARK SMILES IDX 13 14
REMARK H PARENT
REMARK Flexibility Score: inf
ROOT
ATOM      1  C   UNL     1       6.779   0.798   1.435  1.00  0.00     0.080 C 
ENDROOT
BRANCH   1   2
ATOM      2  C   UNL     1       5.336   1.165   1.479  1.00  0.00     0.130 C 
ATOM      3  C   UNL     1       4.749   2.143   0.525  1.00  0.00     0.087 C 
ATOM      4  O   UNL     1       4.589   0.670   2.308  1.00  0.00    -0.300 OA
ENDBRANCH   1   2
BRANCH   1   5
ATOM      5  C   UNL     1       7.364   1.032   0.056  1.00  0.00     0.043 C 
BRANCH   5   6
ATOM      6  C   UNL     1       7.689  -0.236  -0.622  1.00  0.00    -0.044 A 
ATOM      7  C   UNL     1       7.704  -0.339  -2.017  1.00  0.00     0.008 A 
ATOM      8  C   UNL     1       7.990  -1.352   0.127  1.00  0.00     0.054 A 
ATOM      9  C   UNL     1       8.017  -1.555  -2.597  1.00  0.00     0.051 A 
ATOM     10  C   UNL     1       8.307  -2.578  -0.464  1.00  0.00     0.166 A 
ATOM     11  C   UNL     1       8.320  -2.681  -1.838  1.00  0.00     0.165 A 
ATOM     12  O   UNL     1       8.636  -3.814   0.052  1.00  0.00    -0.454 OA
ATOM     13  O   UNL     1       8.662  -3.990  -2.139  1.00  0.00    -0.454 OA
ATOM     14  C   UNL     1       8.959  -4.719  -0.972  1.00  0.00     0.468 C 
ENDBRANCH   5   6
ENDBRANCH   1   5
TORSDOF 3
ENDMDL
MODEL 5
REMARK VINA RESULT:      -7.0      1.219      1.404
REMARK SMILES CC(=O)CCc1ccc2c(c1)OCO2
REMARK SMILES IDX 4 1 2 2 1 3 3 4 5 5 6 6 7 7 11 8 8 9 10 10 9 11 12 12 14 13
REMARK SMILES IDX 13 14
REMARK H PARENT
REMARK Flexibility Score: inf
ROOT
ATOM      1  C   UNL     1       6.370   1.223   0.903  1.00  0.00     0.080 C 
ENDROOT
BRANCH   1   2
ATOM      2  C   UNL     1       5.651   0.404   1.918  1.00  0.00     0.130 C 
ATOM      3  C   UNL     1       6.245  -0.835   2.486  1.00  0.00     0.087 C 
ATOM      4  O   UNL     1       4.544   0.730   2.315  1.00  0.00    -0.300 OA
ENDBRANCH   1   2
BRANCH   1   5
ATOM      5  C   UNL     1       5.865   0.935  -0.496  1.00  0.00     0.043 C 
BRANCH   5   6
ATOM      6  C   UNL     1       6.816   0.110  -1.262  1.00  0.00    -0.044 A 
ATOM      7  C   UNL     1       7.516   0.625  -2.359  1.00  0.00     0.008 A 
ATOM      8  C   UNL     1       7.031  -1.200  -0.897  1.00  0.00     0.054 A 
ATOM      9  C   UNL     1       8.397  -0.196  -3.039  1.00  0.00     0.051 A 
ATOM     10  C   UNL     1       7.924  -2.026  -1.587  1.00  0.00     0.166 A 
ATOM     11  C   UNL     1       8.612  -1.520  -2.667  1.00  0.00     0.165 A 
ATOM     12  O   UNL     1       8.305  -3.340  -1.424  1.00  0.00    -0.454 OA
ATOM     13  O   UNL     1       9.411  -2.544  -3.149  1.00  0.00    -0.454 OA
ATOM     14  C   UNL     1       9.316  -3.689  -2.335  1.00  0.00     0.468 C 
ENDBRANCH   5   6
ENDBRANCH   1   5
TORSDOF 3
ENDMDL
