@<TRIPOS>MOLECULE
/home/cewinharhar/GITHUB/reincatalyze/data/processed/docking_pred/2023-May-31-1438_sub9_nm5_bs15_s42_ex16_mel10_mts1000_k50_ec05_g099_lra9e-4_lrc3e-3/69e2ce579100b0ee4b56c8bb4a95d1562fd611af_ligand_9.pdbqt
 14 15 0 0 0
SMALL
GASTEIGER

@<TRIPOS>ATOM
      1  C          5.4070   -0.0610    2.0080 C.3     1  UNL1        0.0800
      2  C          4.5710    1.1480    1.7640 C.2     1  UNL1        0.1300
      3  C          4.9140    2.1330    0.7030 C.3     1  UNL1        0.0870
      4  O          3.5750    1.3660    2.4330 O.2     1  UNL1       -0.3000
      5  C          6.8500    0.1770    1.6090 C.3     1  UNL1        0.0430
      6  C          7.2810   -0.7450    0.5430 C.2     1  UNL1       -0.0440
      7  C          7.1590   -0.4100   -0.8110 C.2     1  UNL1        0.0080
      8  C          7.8210   -1.9670    0.8750 C.2     1  UNL1        0.0540
      9  C          7.5820   -1.3150   -1.7670 C.2     1  UNL1        0.0510
     10  C          8.2480   -2.8780   -0.0960 C.2     1  UNL1        0.1660
     11  C          8.1270   -2.5490   -1.4280 C.2     1  UNL1        0.1650
     12  O          8.8080   -4.1360   -0.0230 O.2     1  UNL1       -0.4540
     13  O          8.6210   -3.6220   -2.1520 O.2     1  UNL1       -0.4540
     14  C          9.1470   -4.6120   -1.3000 C.3     1  UNL1        0.4680
@<TRIPOS>BOND
     1    13    11    1
     2    13    14    1
     3     9    11    2
     4     9     7    1
     5    11    10    1
     6    14    12    1
     7     7     6    2
     8    10    12    1
     9    10     8    2
    10     6     8    1
    11     6     5    1
    12     3     2    1
    13     5     1    1
    14     2     1    1
    15     2     4    2
