@<TRIPOS>MOLECULE
/home/cewinharhar/GITHUB/reincatalyze/data/processed/docking_pred/2023-May-31-1438_sub9_nm5_bs15_s42_ex16_mel10_mts1000_k50_ec05_g099_lra9e-4_lrc3e-3/69e2ce579100b0ee4b56c8bb4a95d1562fd611af_ligand_9.pdbqt
 14 15 0 0 0
SMALL
GASTEIGER

@<TRIPOS>ATOM
      1  C          6.3700    1.2230    0.9030 C.3     1  UNL1        0.0800
      2  C          5.6510    0.4040    1.9180 C.2     1  UNL1        0.1300
      3  C          6.2450   -0.8350    2.4860 C.3     1  UNL1        0.0870
      4  O          4.5440    0.7300    2.3150 O.2     1  UNL1       -0.3000
      5  C          5.8650    0.9350   -0.4960 C.3     1  UNL1        0.0430
      6  C          6.8160    0.1100   -1.2620 C.2     1  UNL1       -0.0440
      7  C          7.5160    0.6250   -2.3590 C.2     1  UNL1        0.0080
      8  C          7.0310   -1.2000   -0.8970 C.2     1  UNL1        0.0540
      9  C          8.3970   -0.1960   -3.0390 C.2     1  UNL1        0.0510
     10  C          7.9240   -2.0260   -1.5870 C.2     1  UNL1        0.1660
     11  C          8.6120   -1.5200   -2.6670 C.2     1  UNL1        0.1650
     12  O          8.3050   -3.3400   -1.4240 O.2     1  UNL1       -0.4540
     13  O          9.4110   -2.5440   -3.1490 O.2     1  UNL1       -0.4540
     14  C          9.3160   -3.6890   -2.3350 C.3     1  UNL1        0.4680
@<TRIPOS>BOND
     1    13    11    1
     2    13    14    1
     3     9    11    2
     4     9     7    1
     5    11    10    1
     6     7     6    2
     7    14    12    1
     8    10    12    1
     9    10     8    2
    10     6     8    1
    11     6     5    1
    12     5     1    1
    13     1     2    1
    14     2     4    2
    15     2     3    1
