@<TRIPOS>MOLECULE
/home/cewinharhar/GITHUB/reincatalyze/data/processed/docking_pred/2023-May-31-1438_sub9_nm5_bs15_s42_ex16_mel10_mts1000_k50_ec05_g099_lra9e-4_lrc3e-3/6b061a7890d75c8b26c884693b3b8f9ee5a9c423_ligand_9.pdbqt
 14 15 0 0 0
SMALL
GASTEIGER

@<TRIPOS>ATOM
      1  C          6.6300    0.0430    1.8840 C.3     1  UNL1        0.0800
      2  C          5.3590    0.7920    1.6830 C.2     1  UNL1        0.1300
      3  C          5.1900    1.7560    0.5620 C.3     1  UNL1        0.0870
      4  O          4.4130    0.6360    2.4380 O.2     1  UNL1       -0.3000
      5  C          6.4940   -1.4010    1.4420 C.3     1  UNL1        0.0430
      6  C          7.2530   -1.6690    0.2080 C.2     1  UNL1       -0.0440
      7  C          6.8660   -1.1260   -1.0230 C.2     1  UNL1        0.0080
      8  C          8.3710   -2.4700    0.2550 C.2     1  UNL1        0.0540
      9  C          7.6180   -1.4110   -2.1480 C.2     1  UNL1        0.0510
     10  C          9.1280   -2.7550   -0.8860 C.2     1  UNL1        0.1660
     11  C          8.7480   -2.2220   -2.0970 C.2     1  UNL1        0.1650
     12  O         10.2620   -3.5110   -1.0970 O.2     1  UNL1       -0.4540
     13  O          9.6660   -2.6650   -3.0360 O.2     1  UNL1       -0.4540
     14  C         10.6940   -3.4110   -2.4290 C.3     1  UNL1        0.4680
@<TRIPOS>BOND
     1    13    14    1
     2    13    11    1
     3    14    12    1
     4     9    11    2
     5     9     7    1
     6    11    10    1
     7    12    10    1
     8     7     6    2
     9    10     8    2
    10     6     8    1
    11     6     5    1
    12     3     2    1
    13     5     1    1
    14     2     1    1
    15     2     4    2
