MODEL 1
REMARK VINA RESULT:      -8.2      0.000      0.000
REMARK SMILES CC(=O)CCc1ccc2c(c1)OCO2
REMARK SMILES IDX 4 1 2 2 1 3 3 4 5 5 6 6 7 7 11 8 8 9 10 10 9 11 12 12 14 13
REMARK SMILES IDX 13 14
REMARK H PARENT
REMARK Flexibility Score: inf
ROOT
ATOM      1  C   UNL     1       5.840   1.612   0.877  1.00  0.00     0.080 C 
ENDROOT
BRANCH   1   2
ATOM      2  C   UNL     1       5.394   0.592   1.867  1.00  0.00     0.130 C 
ATOM      3  C   UNL     1       6.247  -0.572   2.226  1.00  0.00     0.087 C 
ATOM      4  O   UNL     1       4.307   0.683   2.415  1.00  0.00    -0.300 OA
ENDBRANCH   1   2
BRANCH   1   5
ATOM      5  C   UNL     1       5.744   1.082  -0.540  1.00  0.00     0.043 C 
BRANCH   5   6
ATOM      6  C   UNL     1       6.990   0.416  -0.959  1.00  0.00    -0.044 A 
ATOM      7  C   UNL     1       8.242   1.009  -0.759  1.00  0.00     0.008 A 
ATOM      8  C   UNL     1       6.933  -0.820  -1.562  1.00  0.00     0.054 A 
ATOM      9  C   UNL     1       9.377   0.337  -1.172  1.00  0.00     0.051 A 
ATOM     10  C   UNL     1       8.084  -1.496  -1.978  1.00  0.00     0.166 A 
ATOM     11  C   UNL     1       9.316  -0.913  -1.782  1.00  0.00     0.165 A 
ATOM     12  O   UNL     1       8.289  -2.714  -2.591  1.00  0.00    -0.454 OA
ATOM     13  O   UNL     1      10.261  -1.794  -2.283  1.00  0.00    -0.454 OA
ATOM     14  C   UNL     1       9.660  -2.988  -2.723  1.00  0.00     0.468 C 
ENDBRANCH   5   6
ENDBRANCH   1   5
TORSDOF 3
ENDMDL
MODEL 2
REMARK VINA RESULT:      -7.7      1.094      1.789
REMARK SMILES CC(=O)CCc1ccc2c(c1)OCO2
REMARK SMILES IDX 4 1 2 2 1 3 3 4 5 5 6 6 7 7 11 8 8 9 10 10 9 11 12 12 14 13
REMARK SMILES IDX 13 14
REMARK H PARENT
REMARK Flexibility Score: inf
ROOT
ATOM      1  C   UNL     1       5.888   1.330  -0.300  1.00  0.00     0.080 C 
ENDROOT
BRANCH   1   2
ATOM      2  C   UNL     1       5.282   1.147   1.049  1.00  0.00     0.130 C 
ATOM      3  C   UNL     1       5.605  -0.031   1.897  1.00  0.00     0.087 C 
ATOM      4  O   UNL     1       4.498   1.966   1.500  1.00  0.00    -0.300 OA
ENDBRANCH   1   2
BRANCH   1   5
ATOM      5  C   UNL     1       7.402   1.300  -0.232  1.00  0.00     0.043 C 
BRANCH   5   6
ATOM      6  C   UNL     1       7.963   0.195  -1.029  1.00  0.00    -0.044 A 
ATOM      7  C   UNL     1       7.372  -0.218  -2.228  1.00  0.00     0.008 A 
ATOM      8  C   UNL     1       9.097  -0.452  -0.594  1.00  0.00     0.054 A 
ATOM      9  C   UNL     1       7.944  -1.261  -2.934  1.00  0.00     0.051 A 
ATOM     10  C   UNL     1       9.672  -1.505  -1.311  1.00  0.00     0.166 A 
ATOM     11  C   UNL     1       9.090  -1.913  -2.491  1.00  0.00     0.165 A 
ATOM     12  O   UNL     1      10.779  -2.297  -1.093  1.00  0.00    -0.454 OA
ATOM     13  O   UNL     1       9.861  -2.957  -2.978  1.00  0.00    -0.454 OA
ATOM     14  C   UNL     1      10.993  -3.174  -2.169  1.00  0.00     0.468 C 
ENDBRANCH   5   6
ENDBRANCH   1   5
TORSDOF 3
ENDMDL
MODEL 3
REMARK VINA RESULT:      -7.5      1.254      2.041
REMARK SMILES CC(=O)CCc1ccc2c(c1)OCO2
REMARK SMILES IDX 4 1 2 2 1 3 3 4 5 5 6 6 7 7 11 8 8 9 10 10 9 11 12 12 14 13
REMARK SMILES IDX 13 14
REMARK H PARENT
REMARK Flexibility Score: inf
ROOT
ATOM      1  C   UNL     1       6.887   0.392   0.981  1.00  0.00     0.080 C 
ENDROOT
BRANCH   1   2
ATOM      2  C   UNL     1       5.556   0.984   1.291  1.00  0.00     0.130 C 
ATOM      3  C   UNL     1       4.975   2.075   0.464  1.00  0.00     0.087 C 
ATOM      4  O   UNL     1       4.899   0.587   2.240  1.00  0.00    -0.300 OA
ENDBRANCH   1   2
BRANCH   1   5
ATOM      5  C   UNL     1       7.458   0.962  -0.303  1.00  0.00     0.043 C 
BRANCH   5   6
ATOM      6  C   UNL     1       8.112  -0.077  -1.118  1.00  0.00    -0.044 A 
ATOM      7  C   UNL     1       7.692  -0.357  -2.424  1.00  0.00     0.008 A 
ATOM      8  C   UNL     1       9.163  -0.794  -0.594  1.00  0.00     0.054 A 
ATOM      9  C   UNL     1       8.344  -1.343  -3.142  1.00  0.00     0.051 A 
ATOM     10  C   UNL     1       9.820  -1.790  -1.325  1.00  0.00     0.166 A 
ATOM     11  C   UNL     1       9.406  -2.066  -2.609  1.00  0.00     0.165 A 
ATOM     12  O   UNL     1      10.873  -2.630  -1.032  1.00  0.00    -0.454 OA
ATOM     13  O   UNL     1      10.224  -3.080  -3.084  1.00  0.00    -0.454 OA
ATOM     14  C   UNL     1      11.226  -3.404  -2.149  1.00  0.00     0.468 C 
ENDBRANCH   5   6
ENDBRANCH   1   5
TORSDOF 3
ENDMDL
MODEL 4
REMARK VINA RESULT:      -7.4      1.393      2.195
REMARK SMILES CC(=O)CCc1ccc2c(c1)OCO2
REMARK SMILES IDX 4 1 2 2 1 3 3 4 5 5 6 6 7 7 11 8 8 9 10 10 9 11 12 12 14 13
REMARK SMILES IDX 13 14
REMARK H PARENT
REMARK Flexibility Score: inf
ROOT
ATOM      1  C   UNL     1       6.630   0.043   1.884  1.00  0.00     0.080 C 
ENDROOT
BRANCH   1   2
ATOM      2  C   UNL     1       5.359   0.792   1.683  1.00  0.00     0.130 C 
ATOM      3  C   UNL     1       5.190   1.756   0.562  1.00  0.00     0.087 C 
ATOM      4  O   UNL     1       4.413   0.636   2.438  1.00  0.00    -0.300 OA
ENDBRANCH   1   2
BRANCH   1   5
ATOM      5  C   UNL     1       6.494  -1.401   1.442  1.00  0.00     0.043 C 
BRANCH   5   6
ATOM      6  C   UNL     1       7.253  -1.669   0.208  1.00  0.00    -0.044 A 
ATOM      7  C   UNL     1       6.866  -1.126  -1.023  1.00  0.00     0.008 A 
ATOM      8  C   UNL     1       8.371  -2.470   0.255  1.00  0.00     0.054 A 
ATOM      9  C   UNL     1       7.618  -1.411  -2.148  1.00  0.00     0.051 A 
ATOM     10  C   UNL     1       9.128  -2.755  -0.886  1.00  0.00     0.166 A 
ATOM     11  C   UNL     1       8.748  -2.222  -2.097  1.00  0.00     0.165 A 
ATOM     12  O   UNL     1      10.262  -3.511  -1.097  1.00  0.00    -0.454 OA
ATOM     13  O   UNL     1       9.666  -2.665  -3.036  1.00  0.00    -0.454 OA
ATOM     14  C   UNL     1      10.694  -3.411  -2.429  1.00  0.00     0.468 C 
ENDBRANCH   5   6
ENDBRANCH   1   5
TORSDOF 3
ENDMDL
MODEL 5
REMARK VINA RESULT:      -7.4      2.000      2.472
REMARK SMILES CC(=O)CCc1ccc2c(c1)OCO2
REMARK SMILES IDX 4 1 2 2 1 3 3 4 5 5 6 6 7 7 11 8 8 9 10 10 9 11 12 12 14 13
REMARK SMILES IDX 13 14
REMARK H PARENT
REMARK Flexibility Score: inf
ROOT
ATOM      1  C   UNL     1       6.054   0.348   1.824  1.00  0.00     0.080 C 
ENDROOT
BRANCH   1   2
ATOM      2  C   UNL     1       4.938   1.268   1.466  1.00  0.00     0.130 C 
ATOM      3  C   UNL     1       5.006   2.149   0.270  1.00  0.00     0.087 C 
ATOM      4  O   UNL     1       3.929   1.326   2.151  1.00  0.00    -0.300 OA
ENDBRANCH   1   2
BRANCH   1   5
ATOM      5  C   UNL     1       6.343  -0.629   0.702  1.00  0.00     0.043 C 
BRANCH   5   6
ATOM      6  C   UNL     1       7.749  -0.561   0.266  1.00  0.00    -0.044 A 
ATOM      7  C   UNL     1       8.203   0.449  -0.590  1.00  0.00     0.008 A 
ATOM      8  C   UNL     1       8.646  -1.507   0.707  1.00  0.00     0.054 A 
ATOM      9  C   UNL     1       9.534   0.463  -0.964  1.00  0.00     0.051 A 
ATOM     10  C   UNL     1       9.991  -1.488   0.326  1.00  0.00     0.166 A 
ATOM     11  C   UNL     1      10.439  -0.495  -0.517  1.00  0.00     0.165 A 
ATOM     12  O   UNL     1      11.064  -2.302   0.623  1.00  0.00    -0.454 OA
ATOM     13  O   UNL     1      11.791  -0.721  -0.721  1.00  0.00    -0.454 OA
ATOM     14  C   UNL     1      12.248  -1.804   0.054  1.00  0.00     0.468 C 
ENDBRANCH   5   6
ENDBRANCH   1   5
TORSDOF 3
ENDMDL
