@<TRIPOS>MOLECULE
/home/cewinharhar/GITHUB/reincatalyze/data/processed/docking_pred/2023-May-31-1438_sub9_nm5_bs15_s42_ex16_mel10_mts1000_k50_ec05_g099_lra9e-4_lrc3e-3/6b061a7890d75c8b26c884693b3b8f9ee5a9c423_ligand_9.pdbqt
 14 15 0 0 0
SMALL
GASTEIGER

@<TRIPOS>ATOM
      1  C          5.8880    1.3300   -0.3000 C.3     1  UNL1        0.0800
      2  C          5.2820    1.1470    1.0490 C.2     1  UNL1        0.1300
      3  C          5.6050   -0.0310    1.8970 C.3     1  UNL1        0.0870
      4  O          4.4980    1.9660    1.5000 O.2     1  UNL1       -0.3000
      5  C          7.4020    1.3000   -0.2320 C.3     1  UNL1        0.0430
      6  C          7.9630    0.1950   -1.0290 C.2     1  UNL1       -0.0440
      7  C          7.3720   -0.2180   -2.2280 C.2     1  UNL1        0.0080
      8  C          9.0970   -0.4520   -0.5940 C.2     1  UNL1        0.0540
      9  C          7.9440   -1.2610   -2.9340 C.2     1  UNL1        0.0510
     10  C          9.6720   -1.5050   -1.3110 C.2     1  UNL1        0.1660
     11  C          9.0900   -1.9130   -2.4910 C.2     1  UNL1        0.1650
     12  O         10.7790   -2.2970   -1.0930 O.2     1  UNL1       -0.4540
     13  O          9.8610   -2.9570   -2.9780 O.2     1  UNL1       -0.4540
     14  C         10.9930   -3.1740   -2.1690 C.3     1  UNL1        0.4680
@<TRIPOS>BOND
     1    13    11    1
     2    13    14    1
     3     9    11    2
     4     9     7    1
     5    11    10    1
     6     7     6    2
     7    14    12    1
     8    10    12    1
     9    10     8    2
    10     6     8    1
    11     6     5    1
    12     1     5    1
    13     1     2    1
    14     2     4    2
    15     2     3    1
