@<TRIPOS>MOLECULE
/home/cewinharhar/GITHUB/reincatalyze/data/processed/docking_pred/2023-May-31-1438_sub9_nm5_bs15_s42_ex16_mel10_mts1000_k50_ec05_g099_lra9e-4_lrc3e-3/6b061a7890d75c8b26c884693b3b8f9ee5a9c423_ligand_9.pdbqt
 14 15 0 0 0
SMALL
GASTEIGER

@<TRIPOS>ATOM
      1  C          6.0540    0.3480    1.8240 C.3     1  UNL1        0.0800
      2  C          4.9380    1.2680    1.4660 C.2     1  UNL1        0.1300
      3  C          5.0060    2.1490    0.2700 C.3     1  UNL1        0.0870
      4  O          3.9290    1.3260    2.1510 O.2     1  UNL1       -0.3000
      5  C          6.3430   -0.6290    0.7020 C.3     1  UNL1        0.0430
      6  C          7.7490   -0.5610    0.2660 C.2     1  UNL1       -0.0440
      7  C          8.2030    0.4490   -0.5900 C.2     1  UNL1        0.0080
      8  C          8.6460   -1.5070    0.7070 C.2     1  UNL1        0.0540
      9  C          9.5340    0.4630   -0.9640 C.2     1  UNL1        0.0510
     10  C          9.9910   -1.4880    0.3260 C.2     1  UNL1        0.1660
     11  C         10.4390   -0.4950   -0.5170 C.2     1  UNL1        0.1650
     12  O         11.0640   -2.3020    0.6230 O.2     1  UNL1       -0.4540
     13  O         11.7910   -0.7210   -0.7210 O.2     1  UNL1       -0.4540
     14  C         12.2480   -1.8040    0.0540 C.3     1  UNL1        0.4680
@<TRIPOS>BOND
     1     9     7    1
     2     9    11    2
     3    13    11    1
     4    13    14    1
     5     7     6    2
     6    11    10    1
     7    14    12    1
     8     6     5    1
     9     6     8    1
    10     3     2    1
    11    10    12    1
    12    10     8    2
    13     5     1    1
    14     2     1    1
    15     2     4    2
