@<TRIPOS>MOLECULE
/home/cewinharhar/GITHUB/reincatalyze/data/processed/docking_pred/2023-May-31-1438_sub9_nm5_bs15_s42_ex16_mel10_mts1000_k50_ec05_g099_lra9e-4_lrc3e-3/6b061a7890d75c8b26c884693b3b8f9ee5a9c423_ligand_9.pdbqt
 14 15 0 0 0
SMALL
GASTEIGER

@<TRIPOS>ATOM
      1  C          6.8870    0.3920    0.9810 C.3     1  UNL1        0.0800
      2  C          5.5560    0.9840    1.2910 C.2     1  UNL1        0.1300
      3  C          4.9750    2.0750    0.4640 C.3     1  UNL1        0.0870
      4  O          4.8990    0.5870    2.2400 O.2     1  UNL1       -0.3000
      5  C          7.4580    0.9620   -0.3030 C.3     1  UNL1        0.0430
      6  C          8.1120   -0.0770   -1.1180 C.2     1  UNL1       -0.0440
      7  C          7.6920   -0.3570   -2.4240 C.2     1  UNL1        0.0080
      8  C          9.1630   -0.7940   -0.5940 C.2     1  UNL1        0.0540
      9  C          8.3440   -1.3430   -3.1420 C.2     1  UNL1        0.0510
     10  C          9.8200   -1.7900   -1.3250 C.2     1  UNL1        0.1660
     11  C          9.4060   -2.0660   -2.6090 C.2     1  UNL1        0.1650
     12  O         10.8730   -2.6300   -1.0320 O.2     1  UNL1       -0.4540
     13  O         10.2240   -3.0800   -3.0840 O.2     1  UNL1       -0.4540
     14  C         11.2260   -3.4040   -2.1490 C.3     1  UNL1        0.4680
@<TRIPOS>BOND
     1     9    11    2
     2     9     7    1
     3    13    11    1
     4    13    14    1
     5    11    10    1
     6     7     6    2
     7    14    12    1
     8    10    12    1
     9    10     8    2
    10     6     8    1
    11     6     5    1
    12     5     1    1
    13     3     2    1
    14     1     2    1
    15     2     4    2
