@<TRIPOS>MOLECULE
/home/cewinharhar/GITHUB/reincatalyze/data/processed/docking_pred/2023-May-31-1438_sub9_nm5_bs15_s42_ex16_mel10_mts1000_k50_ec05_g099_lra9e-4_lrc3e-3/6b66a19e3843729fbb18dde59d8ef2ce5f9236cc_ligand_9.pdbqt
 14 15 0 0 0
SMALL
GASTEIGER

@<TRIPOS>ATOM
      1  C          5.3090   -0.0740    1.9740 C.3     1  UNL1        0.0800
      2  C          4.4380    1.1200    1.7920 C.2     1  UNL1        0.1300
      3  C          4.7290    2.1480    0.7570 C.3     1  UNL1        0.0870
      4  O          3.4550    1.2920    2.4940 O.2     1  UNL1       -0.3000
      5  C          6.7770    0.3000    1.9130 C.3     1  UNL1        0.0430
      6  C          7.3780   -0.0600    0.6160 C.2     1  UNL1       -0.0440
      7  C          7.8540    0.9170   -0.2660 C.2     1  UNL1        0.0080
      8  C          7.4820   -1.3840    0.2560 C.2     1  UNL1        0.0540
      9  C          8.4100    0.5200   -1.4690 C.2     1  UNL1        0.0510
     10  C          8.0460   -1.7800   -0.9610 C.2     1  UNL1        0.1660
     11  C          8.5130   -0.8200   -1.8310 C.2     1  UNL1        0.1650
     12  O          8.2590   -3.0120   -1.5410 O.2     1  UNL1       -0.4540
     13  O          9.0090   -1.4900   -2.9380 O.2     1  UNL1       -0.4540
     14  C          8.9510   -2.8850   -2.7560 C.3     1  UNL1        0.4680
@<TRIPOS>BOND
     1    13    14    1
     2    13    11    1
     3    14    12    1
     4    11     9    2
     5    11    10    1
     6    12    10    1
     7     9     7    1
     8    10     8    2
     9     7     6    2
    10     8     6    1
    11     6     5    1
    12     3     2    1
    13     2     1    1
    14     2     4    2
    15     5     1    1
