@<TRIPOS>MOLECULE
/home/cewinharhar/GITHUB/reincatalyze/data/processed/docking_pred/2023-May-31-1438_sub9_nm5_bs15_s42_ex16_mel10_mts1000_k50_ec05_g099_lra9e-4_lrc3e-3/6ceeb54199aca0c96a32aff90fdf9e1d9b8e1f8c_ligand_9.pdbqt
 14 15 0 0 0
SMALL
GASTEIGER

@<TRIPOS>ATOM
      1  C          6.3670    1.2510    0.9130 C.3     1  UNL1        0.0800
      2  C          5.6630    0.4130    1.9230 C.2     1  UNL1        0.1300
      3  C          6.3020   -0.7890    2.5220 C.3     1  UNL1        0.0870
      4  O          4.5330    0.6920    2.2910 O.2     1  UNL1       -0.3000
      5  C          5.8670    0.9600   -0.4890 C.3     1  UNL1        0.0430
      6  C          6.8180    0.1270   -1.2460 C.2     1  UNL1       -0.0440
      7  C          7.5180    0.6320   -2.3480 C.2     1  UNL1        0.0080
      8  C          7.0320   -1.1790   -0.8690 C.2     1  UNL1        0.0540
      9  C          8.3980   -0.1970   -3.0200 C.2     1  UNL1        0.0510
     10  C          7.9230   -2.0120   -1.5510 C.2     1  UNL1        0.1660
     11  C          8.6110   -1.5170   -2.6360 C.2     1  UNL1        0.1650
     12  O          8.3040   -3.3260   -1.3750 O.2     1  UNL1       -0.4540
     13  O          9.4100   -2.5470   -3.1080 O.2     1  UNL1       -0.4540
     14  C          9.3140   -3.6840   -2.2830 C.3     1  UNL1        0.4680
@<TRIPOS>BOND
     1    13    11    1
     2    13    14    1
     3     9    11    2
     4     9     7    1
     5    11    10    1
     6     7     6    2
     7    14    12    1
     8    10    12    1
     9    10     8    2
    10     6     8    1
    11     6     5    1
    12     5     1    1
    13     1     2    1
    14     2     4    2
    15     2     3    1
