@<TRIPOS>MOLECULE
/home/cewinharhar/GITHUB/reincatalyze/data/processed/docking_pred/2023-May-31-1438_sub9_nm5_bs15_s42_ex16_mel10_mts1000_k50_ec05_g099_lra9e-4_lrc3e-3/6dc168e099aae66a1c19408847f7f9495b2b5216_ligand_9.pdbqt
 14 15 0 0 0
SMALL
GASTEIGER

@<TRIPOS>ATOM
      1  C          5.3850   -0.0770    2.0180 C.3     1  UNL1        0.0800
      2  C          4.5530    1.1340    1.7720 C.2     1  UNL1        0.1300
      3  C          4.9070    2.1230    0.7200 C.3     1  UNL1        0.0870
      4  O          3.5510    1.3500    2.4330 O.2     1  UNL1       -0.3000
      5  C          6.8320    0.1610    1.6330 C.3     1  UNL1        0.0430
      6  C          7.2680   -0.7480    0.5590 C.2     1  UNL1       -0.0440
      7  C          7.1530   -0.3970   -0.7910 C.2     1  UNL1        0.0080
      8  C          7.8060   -1.9750    0.8790 C.2     1  UNL1        0.0540
      9  C          7.5810   -1.2910   -1.7560 C.2     1  UNL1        0.0510
     10  C          8.2370   -2.8740   -0.1000 C.2     1  UNL1        0.1660
     11  C          8.1230   -2.5300   -1.4290 C.2     1  UNL1        0.1650
     12  O          8.7950   -4.1330   -0.0390 O.2     1  UNL1       -0.4540
     13  O          8.6200   -3.5950   -2.1630 O.2     1  UNL1       -0.4540
     14  C          9.1410   -4.5950   -1.3200 C.3     1  UNL1        0.4680
@<TRIPOS>BOND
     1    13    11    1
     2    13    14    1
     3     9    11    2
     4     9     7    1
     5    11    10    1
     6    14    12    1
     7     7     6    2
     8    10    12    1
     9    10     8    2
    10     6     8    1
    11     6     5    1
    12     3     2    1
    13     5     1    1
    14     2     1    1
    15     2     4    2
