MODEL 1
REMARK VINA RESULT:      -7.6      0.000      0.000
REMARK SMILES CC(=O)CCc1ccc2c(c1)OCO2
REMARK SMILES IDX 4 1 2 2 1 3 3 4 5 5 6 6 7 7 11 8 8 9 10 10 9 11 12 12 14 13
REMARK SMILES IDX 13 14
REMARK H PARENT
REMARK Flexibility Score: inf
ROOT
ATOM      1  C   UNL     1       5.519   1.916   1.263  1.00  0.00     0.080 C 
ENDROOT
BRANCH   1   2
ATOM      2  C   UNL     1       5.084   0.697   2.001  1.00  0.00     0.130 C 
ATOM      3  C   UNL     1       5.977  -0.482   2.156  1.00  0.00     0.087 C 
ATOM      4  O   UNL     1       3.973   0.631   2.502  1.00  0.00    -0.300 OA
ENDBRANCH   1   2
BRANCH   1   5
ATOM      5  C   UNL     1       5.389   1.728  -0.235  1.00  0.00     0.043 C 
BRANCH   5   6
ATOM      6  C   UNL     1       6.558   1.032  -0.802  1.00  0.00    -0.044 A 
ATOM      7  C   UNL     1       7.863   1.472  -0.557  1.00  0.00     0.008 A 
ATOM      8  C   UNL     1       6.373  -0.081  -1.591  1.00  0.00     0.054 A 
ATOM      9  C   UNL     1       8.922   0.778  -1.114  1.00  0.00     0.051 A 
ATOM     10  C   UNL     1       7.446  -0.779  -2.152  1.00  0.00     0.166 A 
ATOM     11  C   UNL     1       8.731  -0.346  -1.912  1.00  0.00     0.165 A 
ATOM     12  O   UNL     1       7.523  -1.895  -2.959  1.00  0.00    -0.454 OA
ATOM     13  O   UNL     1       9.579  -1.214  -2.582  1.00  0.00    -0.454 OA
ATOM     14  C   UNL     1       8.859  -2.263  -3.184  1.00  0.00     0.468 C 
ENDBRANCH   5   6
ENDBRANCH   1   5
TORSDOF 3
ENDMDL
MODEL 2
REMARK VINA RESULT:      -7.4      1.893      2.329
REMARK SMILES CC(=O)CCc1ccc2c(c1)OCO2
REMARK SMILES IDX 4 1 2 2 1 3 3 4 5 5 6 6 7 7 11 8 8 9 10 10 9 11 12 12 14 13
REMARK SMILES IDX 13 14
REMARK H PARENT
REMARK Flexibility Score: inf
ROOT
ATOM      1  C   UNL     1       5.603   1.365  -0.269  1.00  0.00     0.080 C 
ENDROOT
BRANCH   1   2
ATOM      2  C   UNL     1       5.024   1.252   1.099  1.00  0.00     0.130 C 
ATOM      3  C   UNL     1       5.315   0.087   1.976  1.00  0.00     0.087 C 
ATOM      4  O   UNL     1       4.287   2.119   1.541  1.00  0.00    -0.300 OA
ENDBRANCH   1   2
BRANCH   1   5
ATOM      5  C   UNL     1       7.108   1.179  -0.247  1.00  0.00     0.043 C 
BRANCH   5   6
ATOM      6  C   UNL     1       7.508  -0.105  -0.850  1.00  0.00    -0.044 A 
ATOM      7  C   UNL     1       7.576  -0.273  -2.237  1.00  0.00     0.008 A 
ATOM      8  C   UNL     1       7.828  -1.169  -0.038  1.00  0.00     0.054 A 
ATOM      9  C   UNL     1       7.960  -1.500  -2.747  1.00  0.00     0.051 A 
ATOM     10  C   UNL     1       8.215  -2.408  -0.558  1.00  0.00     0.166 A 
ATOM     11  C   UNL     1       8.281  -2.575  -1.923  1.00  0.00     0.165 A 
ATOM     12  O   UNL     1       8.576  -3.602   0.029  1.00  0.00    -0.454 OA
ATOM     13  O   UNL     1       8.687  -3.881  -2.148  1.00  0.00    -0.454 OA
ATOM     14  C   UNL     1       8.972  -4.540  -0.938  1.00  0.00     0.468 C 
ENDBRANCH   5   6
ENDBRANCH   1   5
TORSDOF 3
ENDMDL
MODEL 3
REMARK VINA RESULT:      -7.2      2.052      2.634
REMARK SMILES CC(=O)CCc1ccc2c(c1)OCO2
REMARK SMILES IDX 4 1 2 2 1 3 3 4 5 5 6 6 7 7 11 8 8 9 10 10 9 11 12 12 14 13
REMARK SMILES IDX 13 14
REMARK H PARENT
REMARK Flexibility Score: inf
ROOT
ATOM      1  C   UNL     1       5.385  -0.077   2.018  1.00  0.00     0.080 C 
ENDROOT
BRANCH   1   2
ATOM      2  C   UNL     1       4.553   1.134   1.772  1.00  0.00     0.130 C 
ATOM      3  C   UNL     1       4.907   2.123   0.720  1.00  0.00     0.087 C 
ATOM      4  O   UNL     1       3.551   1.350   2.433  1.00  0.00    -0.300 OA
ENDBRANCH   1   2
BRANCH   1   5
ATOM      5  C   UNL     1       6.832   0.161   1.633  1.00  0.00     0.043 C 
BRANCH   5   6
ATOM      6  C   UNL     1       7.268  -0.748   0.559  1.00  0.00    -0.044 A 
ATOM      7  C   UNL     1       7.153  -0.397  -0.791  1.00  0.00     0.008 A 
ATOM      8  C   UNL     1       7.806  -1.975   0.879  1.00  0.00     0.054 A 
ATOM      9  C   UNL     1       7.581  -1.291  -1.756  1.00  0.00     0.051 A 
ATOM     10  C   UNL     1       8.237  -2.874  -0.100  1.00  0.00     0.166 A 
ATOM     11  C   UNL     1       8.123  -2.530  -1.429  1.00  0.00     0.165 A 
ATOM     12  O   UNL     1       8.795  -4.133  -0.039  1.00  0.00    -0.454 OA
ATOM     13  O   UNL     1       8.620  -3.595  -2.163  1.00  0.00    -0.454 OA
ATOM     14  C   UNL     1       9.141  -4.595  -1.320  1.00  0.00     0.468 C 
ENDBRANCH   5   6
ENDBRANCH   1   5
TORSDOF 3
ENDMDL
MODEL 4
REMARK VINA RESULT:      -7.1      1.263      1.474
REMARK SMILES CC(=O)CCc1ccc2c(c1)OCO2
REMARK SMILES IDX 4 1 2 2 1 3 3 4 5 5 6 6 7 7 11 8 8 9 10 10 9 11 12 12 14 13
REMARK SMILES IDX 13 14
REMARK H PARENT
REMARK Flexibility Score: inf
ROOT
ATOM      1  C   UNL     1       6.391   1.196   0.948  1.00  0.00     0.080 C 
ENDROOT
BRANCH   1   2
ATOM      2  C   UNL     1       5.652   0.369   1.941  1.00  0.00     0.130 C 
ATOM      3  C   UNL     1       6.246  -0.862   2.528  1.00  0.00     0.087 C 
ATOM      4  O   UNL     1       4.529   0.680   2.304  1.00  0.00    -0.300 OA
ENDBRANCH   1   2
BRANCH   1   5
ATOM      5  C   UNL     1       5.891   0.943  -0.461  1.00  0.00     0.043 C 
BRANCH   5   6
ATOM      6  C   UNL     1       6.830   0.110  -1.232  1.00  0.00    -0.044 A 
ATOM      7  C   UNL     1       7.509   0.612  -2.348  1.00  0.00     0.008 A 
ATOM      8  C   UNL     1       7.054  -1.195  -0.854  1.00  0.00     0.054 A 
ATOM      9  C   UNL     1       8.379  -0.217  -3.033  1.00  0.00     0.051 A 
ATOM     10  C   UNL     1       7.935  -2.028  -1.550  1.00  0.00     0.166 A 
ATOM     11  C   UNL     1       8.603  -1.535  -2.649  1.00  0.00     0.165 A 
ATOM     12  O   UNL     1       8.322  -3.340  -1.376  1.00  0.00    -0.454 OA
ATOM     13  O   UNL     1       9.395  -2.565  -3.131  1.00  0.00    -0.454 OA
ATOM     14  C   UNL     1       9.317  -3.699  -2.301  1.00  0.00     0.468 C 
ENDBRANCH   5   6
ENDBRANCH   1   5
TORSDOF 3
ENDMDL
MODEL 5
REMARK VINA RESULT:      -7.1      2.002      2.592
REMARK SMILES CC(=O)CCc1ccc2c(c1)OCO2
REMARK SMILES IDX 4 1 2 2 1 3 3 4 5 5 6 6 7 7 11 8 8 9 10 10 9 11 12 12 14 13
REMARK SMILES IDX 13 14
REMARK H PARENT
REMARK Flexibility Score: inf
ROOT
ATOM      1  C   UNL     1       6.788   0.721   1.276  1.00  0.00     0.080 C 
ENDROOT
BRANCH   1   2
ATOM      2  C   UNL     1       5.375   1.173   1.414  1.00  0.00     0.130 C 
ATOM      3  C   UNL     1       4.772   2.150   0.467  1.00  0.00     0.087 C 
ATOM      4  O   UNL     1       4.668   0.753   2.314  1.00  0.00    -0.300 OA
ENDBRANCH   1   2
BRANCH   1   5
ATOM      5  C   UNL     1       7.294   0.921  -0.139  1.00  0.00     0.043 C 
BRANCH   5   6
ATOM      6  C   UNL     1       7.644  -0.360  -0.780  1.00  0.00    -0.044 A 
ATOM      7  C   UNL     1       7.673  -0.498  -2.172  1.00  0.00     0.008 A 
ATOM      8  C   UNL     1       7.953  -1.451  -0.000  1.00  0.00     0.054 A 
ATOM      9  C   UNL     1       8.009  -1.724  -2.717  1.00  0.00     0.051 A 
ATOM     10  C   UNL     1       8.292  -2.688  -0.556  1.00  0.00     0.166 A 
ATOM     11  C   UNL     1       8.320  -2.826  -1.926  1.00  0.00     0.165 A 
ATOM     12  O   UNL     1       8.633  -3.905  -0.004  1.00  0.00    -0.454 OA
ATOM     13  O   UNL     1       8.683  -4.137  -2.190  1.00  0.00    -0.454 OA
ATOM     14  C   UNL     1       8.979  -4.831  -1.002  1.00  0.00     0.468 C 
ENDBRANCH   5   6
ENDBRANCH   1   5
TORSDOF 3
ENDMDL
