@<TRIPOS>MOLECULE
/home/cewinharhar/GITHUB/reincatalyze/data/processed/docking_pred/2023-May-31-1438_sub9_nm5_bs15_s42_ex16_mel10_mts1000_k50_ec05_g099_lra9e-4_lrc3e-3/6dc168e099aae66a1c19408847f7f9495b2b5216_ligand_9.pdbqt
 14 15 0 0 0
SMALL
GASTEIGER

@<TRIPOS>ATOM
      1  C          5.6030    1.3650   -0.2690 C.3     1  UNL1        0.0800
      2  C          5.0240    1.2520    1.0990 C.2     1  UNL1        0.1300
      3  C          5.3150    0.0870    1.9760 C.3     1  UNL1        0.0870
      4  O          4.2870    2.1190    1.5410 O.2     1  UNL1       -0.3000
      5  C          7.1080    1.1790   -0.2470 C.3     1  UNL1        0.0430
      6  C          7.5080   -0.1050   -0.8500 C.2     1  UNL1       -0.0440
      7  C          7.5760   -0.2730   -2.2370 C.2     1  UNL1        0.0080
      8  C          7.8280   -1.1690   -0.0380 C.2     1  UNL1        0.0540
      9  C          7.9600   -1.5000   -2.7470 C.2     1  UNL1        0.0510
     10  C          8.2150   -2.4080   -0.5580 C.2     1  UNL1        0.1660
     11  C          8.2810   -2.5750   -1.9230 C.2     1  UNL1        0.1650
     12  O          8.5760   -3.6020    0.0290 O.2     1  UNL1       -0.4540
     13  O          8.6870   -3.8810   -2.1480 O.2     1  UNL1       -0.4540
     14  C          8.9720   -4.5400   -0.9380 C.3     1  UNL1        0.4680
@<TRIPOS>BOND
     1     9     7    1
     2     9    11    2
     3     7     6    2
     4    13    11    1
     5    13    14    1
     6    11    10    1
     7    14    12    1
     8     6     5    1
     9     6     8    1
    10    10     8    2
    11    10    12    1
    12     1     5    1
    13     1     2    1
    14     2     4    2
    15     2     3    1
