@<TRIPOS>MOLECULE
/home/cewinharhar/GITHUB/reincatalyze/data/processed/docking_pred/2023-May-31-1438_sub9_nm5_bs15_s42_ex16_mel10_mts1000_k50_ec05_g099_lra9e-4_lrc3e-3/6dc168e099aae66a1c19408847f7f9495b2b5216_ligand_9.pdbqt
 14 15 0 0 0
SMALL
GASTEIGER

@<TRIPOS>ATOM
      1  C          6.7880    0.7210    1.2760 C.3     1  UNL1        0.0800
      2  C          5.3750    1.1730    1.4140 C.2     1  UNL1        0.1300
      3  C          4.7720    2.1500    0.4670 C.3     1  UNL1        0.0870
      4  O          4.6680    0.7530    2.3140 O.2     1  UNL1       -0.3000
      5  C          7.2940    0.9210   -0.1390 C.3     1  UNL1        0.0430
      6  C          7.6440   -0.3600   -0.7800 C.2     1  UNL1       -0.0440
      7  C          7.6730   -0.4980   -2.1720 C.2     1  UNL1        0.0080
      8  C          7.9530   -1.4510   -0.0000 C.2     1  UNL1        0.0540
      9  C          8.0090   -1.7240   -2.7170 C.2     1  UNL1        0.0510
     10  C          8.2920   -2.6880   -0.5560 C.2     1  UNL1        0.1660
     11  C          8.3200   -2.8260   -1.9260 C.2     1  UNL1        0.1650
     12  O          8.6330   -3.9050   -0.0040 O.2     1  UNL1       -0.4540
     13  O          8.6830   -4.1370   -2.1900 O.2     1  UNL1       -0.4540
     14  C          8.9790   -4.8310   -1.0020 C.3     1  UNL1        0.4680
@<TRIPOS>BOND
     1     9     7    1
     2     9    11    2
     3    13    11    1
     4    13    14    1
     5     7     6    2
     6    11    10    1
     7    14    12    1
     8     6     5    1
     9     6     8    1
    10    10    12    1
    11    10     8    2
    12     5     1    1
    13     3     2    1
    14     1     2    1
    15     2     4    2
