@<TRIPOS>MOLECULE
/home/cewinharhar/GITHUB/reincatalyze/data/processed/docking_pred/2023-May-31-1438_sub9_nm5_bs15_s42_ex16_mel10_mts1000_k50_ec05_g099_lra9e-4_lrc3e-3/6dc168e099aae66a1c19408847f7f9495b2b5216_ligand_9.pdbqt
 14 15 0 0 0
SMALL
GASTEIGER

@<TRIPOS>ATOM
      1  C          6.3910    1.1960    0.9480 C.3     1  UNL1        0.0800
      2  C          5.6520    0.3690    1.9410 C.2     1  UNL1        0.1300
      3  C          6.2460   -0.8620    2.5280 C.3     1  UNL1        0.0870
      4  O          4.5290    0.6800    2.3040 O.2     1  UNL1       -0.3000
      5  C          5.8910    0.9430   -0.4610 C.3     1  UNL1        0.0430
      6  C          6.8300    0.1100   -1.2320 C.2     1  UNL1       -0.0440
      7  C          7.5090    0.6120   -2.3480 C.2     1  UNL1        0.0080
      8  C          7.0540   -1.1950   -0.8540 C.2     1  UNL1        0.0540
      9  C          8.3790   -0.2170   -3.0330 C.2     1  UNL1        0.0510
     10  C          7.9350   -2.0280   -1.5500 C.2     1  UNL1        0.1660
     11  C          8.6030   -1.5350   -2.6490 C.2     1  UNL1        0.1650
     12  O          8.3220   -3.3400   -1.3760 O.2     1  UNL1       -0.4540
     13  O          9.3950   -2.5650   -3.1310 O.2     1  UNL1       -0.4540
     14  C          9.3170   -3.6990   -2.3010 C.3     1  UNL1        0.4680
@<TRIPOS>BOND
     1    13    11    1
     2    13    14    1
     3     9    11    2
     4     9     7    1
     5    11    10    1
     6     7     6    2
     7    14    12    1
     8    10    12    1
     9    10     8    2
    10     6     8    1
    11     6     5    1
    12     5     1    1
    13     1     2    1
    14     2     4    2
    15     2     3    1
