@<TRIPOS>MOLECULE
/home/cewinharhar/GITHUB/reincatalyze/data/processed/docking_pred/2023-May-31-1438_sub9_nm5_bs15_s42_ex16_mel10_mts1000_k50_ec05_g099_lra9e-4_lrc3e-3/6dc168e099aae66a1c19408847f7f9495b2b5216_ligand_9.pdbqt
 14 15 0 0 0
SMALL
GASTEIGER

@<TRIPOS>ATOM
      1  C          5.5190    1.9160    1.2630 C.3     1  UNL1        0.0800
      2  C          5.0840    0.6970    2.0010 C.2     1  UNL1        0.1300
      3  C          5.9770   -0.4820    2.1560 C.3     1  UNL1        0.0870
      4  O          3.9730    0.6310    2.5020 O.2     1  UNL1       -0.3000
      5  C          5.3890    1.7280   -0.2350 C.3     1  UNL1        0.0430
      6  C          6.5580    1.0320   -0.8020 C.2     1  UNL1       -0.0440
      7  C          7.8630    1.4720   -0.5570 C.2     1  UNL1        0.0080
      8  C          6.3730   -0.0810   -1.5910 C.2     1  UNL1        0.0540
      9  C          8.9220    0.7780   -1.1140 C.2     1  UNL1        0.0510
     10  C          7.4460   -0.7790   -2.1520 C.2     1  UNL1        0.1660
     11  C          8.7310   -0.3460   -1.9120 C.2     1  UNL1        0.1650
     12  O          7.5230   -1.8950   -2.9590 O.2     1  UNL1       -0.4540
     13  O          9.5790   -1.2140   -2.5820 O.2     1  UNL1       -0.4540
     14  C          8.8590   -2.2630   -3.1840 C.3     1  UNL1        0.4680
@<TRIPOS>BOND
     1    14    12    1
     2    14    13    1
     3    12    10    1
     4    13    11    1
     5    10    11    2
     6    10     8    1
     7    11     9    1
     8     8     6    2
     9     9     7    2
    10     6     7    1
    11     6     5    1
    12     5     1    1
    13     1     2    1
    14     2     3    1
    15     2     4    2
