@<TRIPOS>MOLECULE
/home/cewinharhar/GITHUB/reincatalyze/data/processed/docking_pred/2023-May-31-1438_sub9_nm5_bs15_s42_ex16_mel10_mts1000_k50_ec05_g099_lra9e-4_lrc3e-3/6e6a373552f8835a6ba7a6c6fa001d8bbefa4498_ligand_9.pdbqt
 14 15 0 0 0
SMALL
GASTEIGER

@<TRIPOS>ATOM
      1  C          2.0050   -0.0930    3.0590 C.3     1  UNL1        0.0800
      2  C          0.5380    0.1590    3.1280 C.2     1  UNL1        0.1300
      3  C         -0.1000    1.2670    2.3680 C.3     1  UNL1        0.0870
      4  O         -0.1860   -0.5420    3.8150 O.2     1  UNL1       -0.3000
      5  C          2.7240    1.0360    2.3470 C.3     1  UNL1        0.0430
      6  C          4.1490    0.7260    2.1310 C.2     1  UNL1       -0.0440
      7  C          5.0910    1.7330    1.8960 C.2     1  UNL1        0.0080
      8  C          4.5740   -0.5830    2.1630 C.2     1  UNL1        0.0540
      9  C          6.4140    1.3830    1.7010 C.2     1  UNL1        0.0510
     10  C          5.9140   -0.9320    1.9660 C.2     1  UNL1        0.1660
     11  C          6.8410    0.0590    1.7330 C.2     1  UNL1        0.1650
     12  O          6.5770   -2.1410    1.9490 O.2     1  UNL1       -0.4540
     13  O          8.0670   -0.5690    1.5770 O.2     1  UNL1       -0.4540
     14  C          7.9610   -1.9550    1.7970 C.3     1  UNL1        0.4680
@<TRIPOS>BOND
     1    13    11    1
     2    13    14    1
     3     9    11    2
     4     9     7    1
     5    11    10    1
     6    14    12    1
     7     7     6    2
     8    12    10    1
     9    10     8    2
    10     6     8    1
    11     6     5    1
    12     5     1    1
    13     3     2    1
    14     1     2    1
    15     2     4    2
