@<TRIPOS>MOLECULE
/home/cewinharhar/GITHUB/reincatalyze/data/processed/docking_pred/2023-May-31-1438_sub9_nm5_bs15_s42_ex16_mel10_mts1000_k50_ec05_g099_lra9e-4_lrc3e-3/6e6a373552f8835a6ba7a6c6fa001d8bbefa4498_ligand_9.pdbqt
 14 15 0 0 0
SMALL
GASTEIGER

@<TRIPOS>ATOM
      1  C          2.0670   -7.5590   -0.6230 C.3     1  UNL1        0.0800
      2  C          2.3180   -6.1180   -0.3410 C.2     1  UNL1        0.1300
      3  C          2.0770   -5.0690   -1.3680 C.3     1  UNL1        0.0870
      4  O          2.7310   -5.7550    0.7480 O.2     1  UNL1       -0.3000
      5  C          2.7420   -8.4460    0.4050 C.3     1  UNL1        0.0430
      6  C          1.8780   -9.5700    0.8080 C.2     1  UNL1       -0.0440
      7  C          2.4120  -10.7560    1.3250 C.2     1  UNL1        0.0080
      8  C          0.5120   -9.4600    0.6810 C.2     1  UNL1        0.0540
      9  C          1.5520  -11.7770    1.6880 C.2     1  UNL1        0.0510
     10  C         -0.3530  -10.4940    1.0500 C.2     1  UNL1        0.1660
     11  C          0.1710  -11.6620    1.5570 C.2     1  UNL1        0.1650
     12  O         -1.7250  -10.6270    1.0200 O.2     1  UNL1       -0.4540
     13  O         -0.9010  -12.4970    1.8320 O.2     1  UNL1       -0.4540
     14  C         -2.1260  -11.8460    1.5920 C.3     1  UNL1        0.4680
@<TRIPOS>BOND
     1     3     2    1
     2     1     2    1
     3     1     5    1
     4     2     4    2
     5     5     6    1
     6     8     6    2
     7     8    10    1
     8     6     7    1
     9    12    10    1
    10    12    14    1
    11    10    11    2
    12     7     9    2
    13    11     9    1
    14    11    13    1
    15    14    13    1
