@<TRIPOS>MOLECULE
/home/cewinharhar/GITHUB/reincatalyze/data/processed/docking_pred/2023-May-31-1438_sub9_nm5_bs15_s42_ex16_mel10_mts1000_k50_ec05_g099_lra9e-4_lrc3e-3/6e6a373552f8835a6ba7a6c6fa001d8bbefa4498_ligand_9.pdbqt
 14 15 0 0 0
SMALL
GASTEIGER

@<TRIPOS>ATOM
      1  C          6.5460    2.1470    1.5520 C.3     1  UNL1        0.0800
      2  C          5.2170    2.0700    0.8840 C.2     1  UNL1        0.1300
      3  C          5.0800    2.1500   -0.5950 C.3     1  UNL1        0.0870
      4  O          4.1950    1.9380    1.5380 O.2     1  UNL1       -0.3000
      5  C          6.6580    1.1340    2.6740 C.3     1  UNL1        0.0430
      6  C          6.9450   -0.2180    2.1630 C.2     1  UNL1       -0.0440
      7  C          5.9240   -1.1460    1.9300 C.2     1  UNL1        0.0080
      8  C          8.2460   -0.5880    1.9040 C.2     1  UNL1        0.0540
      9  C          6.2530   -2.4000    1.4490 C.2     1  UNL1        0.0510
     10  C          8.5730   -1.8570    1.4180 C.2     1  UNL1        0.1660
     11  C          7.5690   -2.7700    1.1890 C.2     1  UNL1        0.1650
     12  O          9.7700   -2.4560    1.0870 O.2     1  UNL1       -0.4540
     13  O          8.1760   -3.9240    0.7160 O.2     1  UNL1       -0.4540
     14  C          9.5610   -3.7370    0.5510 C.3     1  UNL1        0.4680
@<TRIPOS>BOND
     1     3     2    1
     2    14    13    1
     3    14    12    1
     4    13    11    1
     5     2     4    2
     6     2     1    1
     7    12    10    1
     8    11    10    2
     9    11     9    1
    10    10     8    1
    11     9     7    2
    12     1     5    1
    13     8     6    2
    14     7     6    1
    15     6     5    1
