@<TRIPOS>MOLECULE
/home/cewinharhar/GITHUB/reincatalyze/data/processed/docking_pred/2023-May-31-1438_sub9_nm5_bs15_s42_ex16_mel10_mts1000_k50_ec05_g099_lra9e-4_lrc3e-3/6e6a373552f8835a6ba7a6c6fa001d8bbefa4498_ligand_9.pdbqt
 14 15 0 0 0
SMALL
GASTEIGER

@<TRIPOS>ATOM
      1  C          8.7880   -4.7850   -0.3820 C.3     1  UNL1        0.0800
      2  C          9.5230   -4.6910   -1.6740 C.2     1  UNL1        0.1300
      3  C         10.3630   -5.8100   -2.1790 C.3     1  UNL1        0.0870
      4  O          9.4560   -3.6840   -2.3610 O.2     1  UNL1       -0.3000
      5  C          9.5350   -4.0750    0.7290 C.3     1  UNL1        0.0430
      6  C          8.8810   -2.8080    1.1030 C.2     1  UNL1       -0.0440
      7  C          9.6070   -1.6170    1.2270 C.2     1  UNL1        0.0080
      8  C          7.5250   -2.7820    1.3370 C.2     1  UNL1        0.0540
      9  C          8.9400   -0.4580    1.5800 C.2     1  UNL1        0.0510
     10  C          6.8550   -1.6080    1.6930 C.2     1  UNL1        0.1660
     11  C          7.5690   -0.4360    1.8160 C.2     1  UNL1        0.1650
     12  O          5.5350   -1.3270    1.9740 O.2     1  UNL1       -0.4540
     13  O          6.6630    0.5500    2.1730 O.2     1  UNL1       -0.4540
     14  C          5.3480    0.0470    2.1950 C.3     1  UNL1        0.4680
@<TRIPOS>BOND
     1     4     2    2
     2     3     2    1
     3     2     1    1
     4     1     5    1
     5     5     6    1
     6     6     7    2
     7     6     8    1
     8     7     9    1
     9     8    10    2
    10     9    11    2
    11    10    11    1
    12    10    12    1
    13    11    13    1
    14    12    14    1
    15    13    14    1
