MODEL 1
REMARK VINA RESULT:       1.2      0.000      0.000
REMARK SMILES CC(=O)CCc1ccc2c(c1)OCO2
REMARK SMILES IDX 4 1 2 2 1 3 3 4 5 5 6 6 7 7 11 8 8 9 10 10 9 11 12 12 14 13
REMARK SMILES IDX 13 14
REMARK H PARENT
REMARK Flexibility Score: inf
ROOT
ATOM      1  C   UNL     1       6.546   2.147   1.552  1.00  0.00     0.080 C 
ENDROOT
BRANCH   1   2
ATOM      2  C   UNL     1       5.217   2.070   0.884  1.00  0.00     0.130 C 
ATOM      3  C   UNL     1       5.080   2.150  -0.595  1.00  0.00     0.087 C 
ATOM      4  O   UNL     1       4.195   1.938   1.538  1.00  0.00    -0.300 OA
ENDBRANCH   1   2
BRANCH   1   5
ATOM      5  C   UNL     1       6.658   1.134   2.674  1.00  0.00     0.043 C 
BRANCH   5   6
ATOM      6  C   UNL     1       6.945  -0.218   2.163  1.00  0.00    -0.044 A 
ATOM      7  C   UNL     1       5.924  -1.146   1.930  1.00  0.00     0.008 A 
ATOM      8  C   UNL     1       8.246  -0.588   1.904  1.00  0.00     0.054 A 
ATOM      9  C   UNL     1       6.253  -2.400   1.449  1.00  0.00     0.051 A 
ATOM     10  C   UNL     1       8.573  -1.857   1.418  1.00  0.00     0.166 A 
ATOM     11  C   UNL     1       7.569  -2.770   1.189  1.00  0.00     0.165 A 
ATOM     12  O   UNL     1       9.770  -2.456   1.087  1.00  0.00    -0.454 OA
ATOM     13  O   UNL     1       8.176  -3.924   0.716  1.00  0.00    -0.454 OA
ATOM     14  C   UNL     1       9.561  -3.737   0.551  1.00  0.00     0.468 C 
ENDBRANCH   5   6
ENDBRANCH   1   5
TORSDOF 3
ENDMDL
MODEL 2
REMARK VINA RESULT:       1.3      2.156      5.768
REMARK SMILES CC(=O)CCc1ccc2c(c1)OCO2
REMARK SMILES IDX 4 1 2 2 1 3 3 4 5 5 6 6 7 7 11 8 8 9 10 10 9 11 12 12 14 13
REMARK SMILES IDX 13 14
REMARK H PARENT
REMARK Flexibility Score: inf
ROOT
ATOM      1  C   UNL     1       8.788  -4.785  -0.382  1.00  0.00     0.080 C 
ENDROOT
BRANCH   1   2
ATOM      2  C   UNL     1       9.523  -4.691  -1.674  1.00  0.00     0.130 C 
ATOM      3  C   UNL     1      10.363  -5.810  -2.179  1.00  0.00     0.087 C 
ATOM      4  O   UNL     1       9.456  -3.684  -2.361  1.00  0.00    -0.300 OA
ENDBRANCH   1   2
BRANCH   1   5
ATOM      5  C   UNL     1       9.535  -4.075   0.729  1.00  0.00     0.043 C 
BRANCH   5   6
ATOM      6  C   UNL     1       8.881  -2.808   1.103  1.00  0.00    -0.044 A 
ATOM      7  C   UNL     1       9.607  -1.617   1.227  1.00  0.00     0.008 A 
ATOM      8  C   UNL     1       7.525  -2.782   1.337  1.00  0.00     0.054 A 
ATOM      9  C   UNL     1       8.940  -0.458   1.580  1.00  0.00     0.051 A 
ATOM     10  C   UNL     1       6.855  -1.608   1.693  1.00  0.00     0.166 A 
ATOM     11  C   UNL     1       7.569  -0.436   1.816  1.00  0.00     0.165 A 
ATOM     12  O   UNL     1       5.535  -1.327   1.974  1.00  0.00    -0.454 OA
ATOM     13  O   UNL     1       6.663   0.550   2.173  1.00  0.00    -0.454 OA
ATOM     14  C   UNL     1       5.348   0.047   2.195  1.00  0.00     0.468 C 
ENDBRANCH   5   6
ENDBRANCH   1   5
TORSDOF 3
ENDMDL
MODEL 3
REMARK VINA RESULT:       1.4      3.192      4.089
REMARK SMILES CC(=O)CCc1ccc2c(c1)OCO2
REMARK SMILES IDX 4 1 2 2 1 3 3 4 5 5 6 6 7 7 11 8 8 9 10 10 9 11 12 12 14 13
REMARK SMILES IDX 13 14
REMARK H PARENT
REMARK Flexibility Score: inf
ROOT
ATOM      1  C   UNL     1       2.005  -0.093   3.059  1.00  0.00     0.080 C 
ENDROOT
BRANCH   1   2
ATOM      2  C   UNL     1       0.538   0.159   3.128  1.00  0.00     0.130 C 
ATOM      3  C   UNL     1      -0.100   1.267   2.368  1.00  0.00     0.087 C 
ATOM      4  O   UNL     1      -0.186  -0.542   3.815  1.00  0.00    -0.300 OA
ENDBRANCH   1   2
BRANCH   1   5
ATOM      5  C   UNL     1       2.724   1.036   2.347  1.00  0.00     0.043 C 
BRANCH   5   6
ATOM      6  C   UNL     1       4.149   0.726   2.131  1.00  0.00    -0.044 A 
ATOM      7  C   UNL     1       5.091   1.733   1.896  1.00  0.00     0.008 A 
ATOM      8  C   UNL     1       4.574  -0.583   2.163  1.00  0.00     0.054 A 
ATOM      9  C   UNL     1       6.414   1.383   1.701  1.00  0.00     0.051 A 
ATOM     10  C   UNL     1       5.914  -0.932   1.966  1.00  0.00     0.166 A 
ATOM     11  C   UNL     1       6.841   0.059   1.733  1.00  0.00     0.165 A 
ATOM     12  O   UNL     1       6.577  -2.141   1.949  1.00  0.00    -0.454 OA
ATOM     13  O   UNL     1       8.067  -0.569   1.577  1.00  0.00    -0.454 OA
ATOM     14  C   UNL     1       7.961  -1.955   1.797  1.00  0.00     0.468 C 
ENDBRANCH   5   6
ENDBRANCH   1   5
TORSDOF 3
ENDMDL
MODEL 4
REMARK VINA RESULT:       1.8      1.431      5.745
REMARK SMILES CC(=O)CCc1ccc2c(c1)OCO2
REMARK SMILES IDX 4 1 2 2 1 3 3 4 5 5 6 6 7 7 11 8 8 9 10 10 9 11 12 12 14 13
REMARK SMILES IDX 13 14
REMARK H PARENT
REMARK Flexibility Score: inf
ROOT
ATOM      1  C   UNL     1       9.105  -2.592   0.854  1.00  0.00     0.080 C 
ENDROOT
BRANCH   1   2
ATOM      2  C   UNL     1       9.526  -3.995   0.584  1.00  0.00     0.130 C 
ATOM      3  C   UNL     1       9.097  -4.716  -0.644  1.00  0.00     0.087 C 
ATOM      4  O   UNL     1      10.241  -4.597   1.369  1.00  0.00    -0.300 OA
ENDBRANCH   1   2
BRANCH   1   5
ATOM      5  C   UNL     1       8.015  -2.537   1.906  1.00  0.00     0.043 C 
BRANCH   5   6
ATOM      6  C   UNL     1       7.289  -1.255   1.875  1.00  0.00    -0.044 A 
ATOM      7  C   UNL     1       7.943  -0.049   1.603  1.00  0.00     0.008 A 
ATOM      8  C   UNL     1       5.934  -1.233   2.115  1.00  0.00     0.054 A 
ATOM      9  C   UNL     1       7.209   1.124   1.586  1.00  0.00     0.051 A 
ATOM     10  C   UNL     1       5.196  -0.046   2.096  1.00  0.00     0.166 A 
ATOM     11  C   UNL     1       5.840   1.143   1.830  1.00  0.00     0.165 A 
ATOM     12  O   UNL     1       3.862   0.235   2.301  1.00  0.00    -0.454 OA
ATOM     13  O   UNL     1       4.877   2.139   1.876  1.00  0.00    -0.454 OA
ATOM     14  C   UNL     1       3.594   1.597   2.081  1.00  0.00     0.468 C 
ENDBRANCH   5   6
ENDBRANCH   1   5
TORSDOF 3
ENDMDL
MODEL 5
REMARK VINA RESULT:       2.1      9.401     11.180
REMARK SMILES CC(=O)CCc1ccc2c(c1)OCO2
REMARK SMILES IDX 4 1 2 2 1 3 3 4 5 5 6 6 7 7 11 8 8 9 10 10 9 11 12 12 14 13
REMARK SMILES IDX 13 14
REMARK H PARENT
REMARK Flexibility Score: inf
ROOT
ATOM      1  C   UNL     1       2.067  -7.559  -0.623  1.00  0.00     0.080 C 
ENDROOT
BRANCH   1   2
ATOM      2  C   UNL     1       2.318  -6.118  -0.341  1.00  0.00     0.130 C 
ATOM      3  C   UNL     1       2.077  -5.069  -1.368  1.00  0.00     0.087 C 
ATOM      4  O   UNL     1       2.731  -5.755   0.748  1.00  0.00    -0.300 OA
ENDBRANCH   1   2
BRANCH   1   5
ATOM      5  C   UNL     1       2.742  -8.446   0.405  1.00  0.00     0.043 C 
BRANCH   5   6
ATOM      6  C   UNL     1       1.878  -9.570   0.808  1.00  0.00    -0.044 A 
ATOM      7  C   UNL     1       2.412 -10.756   1.325  1.00  0.00     0.008 A 
ATOM      8  C   UNL     1       0.512  -9.460   0.681  1.00  0.00     0.054 A 
ATOM      9  C   UNL     1       1.552 -11.777   1.688  1.00  0.00     0.051 A 
ATOM     10  C   UNL     1      -0.353 -10.494   1.050  1.00  0.00     0.166 A 
ATOM     11  C   UNL     1       0.171 -11.662   1.557  1.00  0.00     0.165 A 
ATOM     12  O   UNL     1      -1.725 -10.627   1.020  1.00  0.00    -0.454 OA
ATOM     13  O   UNL     1      -0.901 -12.497   1.832  1.00  0.00    -0.454 OA
ATOM     14  C   UNL     1      -2.126 -11.846   1.592  1.00  0.00     0.468 C 
ENDBRANCH   5   6
ENDBRANCH   1   5
TORSDOF 3
ENDMDL
