@<TRIPOS>MOLECULE
/home/cewinharhar/GITHUB/reincatalyze/data/processed/docking_pred/2023-May-31-1438_sub9_nm5_bs15_s42_ex16_mel10_mts1000_k50_ec05_g099_lra9e-4_lrc3e-3/72c4800fcc396c08a923544a0defa9269110c5e0_ligand_9.pdbqt
 14 15 0 0 0
SMALL
GASTEIGER

@<TRIPOS>ATOM
      1  C          6.8150    0.9580    1.4200 C.3     1  UNL1        0.0800
      2  C          5.3460    1.1980    1.4540 C.2     1  UNL1        0.1300
      3  C          4.6850    2.1260    0.4970 C.3     1  UNL1        0.0870
      4  O          4.6370    0.6360    2.2730 O.2     1  UNL1       -0.3000
      5  C          7.3770    1.1700    0.0290 C.3     1  UNL1        0.0430
      6  C          7.6890   -0.1080   -0.6360 C.2     1  UNL1       -0.0440
      7  C          7.6900   -0.2280   -2.0300 C.2     1  UNL1        0.0080
      8  C          7.9920   -1.2150    0.1240 C.2     1  UNL1        0.0540
      9  C          7.9920   -1.4530   -2.5980 C.2     1  UNL1        0.0510
     10  C          8.2970   -2.4510   -0.4550 C.2     1  UNL1        0.1660
     11  C          8.2970   -2.5700   -1.8270 C.2     1  UNL1        0.1650
     12  O          8.6250   -3.6810    0.0740 O.2     1  UNL1       -0.4540
     13  O          8.6290   -3.8850   -2.1140 O.2     1  UNL1       -0.4540
     14  C          8.9340   -4.6000   -0.9410 C.3     1  UNL1        0.4680
@<TRIPOS>BOND
     1     9     7    1
     2     9    11    2
     3    13    11    1
     4    13    14    1
     5     7     6    2
     6    11    10    1
     7    14    12    1
     8     6     5    1
     9     6     8    1
    10    10    12    1
    11    10     8    2
    12     5     1    1
    13     3     2    1
    14     1     2    1
    15     2     4    2
