@<TRIPOS>MOLECULE
/home/cewinharhar/GITHUB/reincatalyze/data/processed/docking_pred/2023-May-31-1438_sub9_nm5_bs15_s42_ex16_mel10_mts1000_k50_ec05_g099_lra9e-4_lrc3e-3/72c4800fcc396c08a923544a0defa9269110c5e0_ligand_9.pdbqt
 14 15 0 0 0
SMALL
GASTEIGER

@<TRIPOS>ATOM
      1  C          5.7360    1.3230   -0.3140 C.3     1  UNL1        0.0800
      2  C          5.1490    1.2810    1.0550 C.2     1  UNL1        0.1300
      3  C          5.4780    0.1910    2.0120 C.3     1  UNL1        0.0870
      4  O          4.3760    2.1470    1.4320 O.2     1  UNL1       -0.3000
      5  C          7.2350    1.1060   -0.2770 C.3     1  UNL1        0.0430
      6  C          7.6140   -0.1890   -0.8720 C.2     1  UNL1       -0.0440
      7  C          7.6960   -0.3620   -2.2590 C.2     1  UNL1        0.0080
      8  C          7.8990   -1.2580   -0.0540 C.2     1  UNL1        0.0540
      9  C          8.0570   -1.6000   -2.7600 C.2     1  UNL1        0.0510
     10  C          8.2650   -2.5070   -0.5650 C.2     1  UNL1        0.1660
     11  C          8.3440   -2.6790   -1.9290 C.2     1  UNL1        0.1650
     12  O          8.5910   -3.7070    0.0290 O.2     1  UNL1       -0.4540
     13  O          8.7230   -3.9950   -2.1460 O.2     1  UNL1       -0.4540
     14  C          8.9780   -4.6570   -0.9300 C.3     1  UNL1        0.4680
@<TRIPOS>BOND
     1     9     7    1
     2     9    11    2
     3     7     6    2
     4    13    11    1
     5    13    14    1
     6    11    10    1
     7    14    12    1
     8     6     5    1
     9     6     8    1
    10    10     8    2
    11    10    12    1
    12     1     5    1
    13     1     2    1
    14     2     4    2
    15     2     3    1
