MODEL 1
REMARK VINA RESULT:      -7.6      0.000      0.000
REMARK SMILES CC(=O)CCc1ccc2c(c1)OCO2
REMARK SMILES IDX 4 1 2 2 1 3 3 4 5 5 6 6 7 7 11 8 8 9 10 10 9 11 12 12 14 13
REMARK SMILES IDX 13 14
REMARK H PARENT
REMARK Flexibility Score: inf
ROOT
ATOM      1  C   UNL     1       5.525   1.925   1.269  1.00  0.00     0.080 C 
ENDROOT
BRANCH   1   2
ATOM      2  C   UNL     1       5.083   0.709   2.006  1.00  0.00     0.130 C 
ATOM      3  C   UNL     1       5.973  -0.471   2.173  1.00  0.00     0.087 C 
ATOM      4  O   UNL     1       3.967   0.645   2.497  1.00  0.00    -0.300 OA
ENDBRANCH   1   2
BRANCH   1   5
ATOM      5  C   UNL     1       5.398   1.738  -0.230  1.00  0.00     0.043 C 
BRANCH   5   6
ATOM      6  C   UNL     1       6.565   1.037  -0.794  1.00  0.00    -0.044 A 
ATOM      7  C   UNL     1       7.871   1.475  -0.550  1.00  0.00     0.008 A 
ATOM      8  C   UNL     1       6.377  -0.077  -1.580  1.00  0.00     0.054 A 
ATOM      9  C   UNL     1       8.928   0.777  -1.106  1.00  0.00     0.051 A 
ATOM     10  C   UNL     1       7.449  -0.780  -2.139  1.00  0.00     0.166 A 
ATOM     11  C   UNL     1       8.735  -0.349  -1.900  1.00  0.00     0.165 A 
ATOM     12  O   UNL     1       7.522  -1.898  -2.942  1.00  0.00    -0.454 OA
ATOM     13  O   UNL     1       9.580  -1.221  -2.568  1.00  0.00    -0.454 OA
ATOM     14  C   UNL     1       8.858  -2.271  -3.166  1.00  0.00     0.468 C 
ENDBRANCH   5   6
ENDBRANCH   1   5
TORSDOF 3
ENDMDL
MODEL 2
REMARK VINA RESULT:      -7.5      1.932      2.399
REMARK SMILES CC(=O)CCc1ccc2c(c1)OCO2
REMARK SMILES IDX 4 1 2 2 1 3 3 4 5 5 6 6 7 7 11 8 8 9 10 10 9 11 12 12 14 13
REMARK SMILES IDX 13 14
REMARK H PARENT
REMARK Flexibility Score: inf
ROOT
ATOM      1  C   UNL     1       5.736   1.323  -0.314  1.00  0.00     0.080 C 
ENDROOT
BRANCH   1   2
ATOM      2  C   UNL     1       5.149   1.281   1.055  1.00  0.00     0.130 C 
ATOM      3  C   UNL     1       5.478   0.191   2.012  1.00  0.00     0.087 C 
ATOM      4  O   UNL     1       4.376   2.147   1.432  1.00  0.00    -0.300 OA
ENDBRANCH   1   2
BRANCH   1   5
ATOM      5  C   UNL     1       7.235   1.106  -0.277  1.00  0.00     0.043 C 
BRANCH   5   6
ATOM      6  C   UNL     1       7.614  -0.189  -0.872  1.00  0.00    -0.044 A 
ATOM      7  C   UNL     1       7.696  -0.362  -2.259  1.00  0.00     0.008 A 
ATOM      8  C   UNL     1       7.899  -1.258  -0.054  1.00  0.00     0.054 A 
ATOM      9  C   UNL     1       8.057  -1.600  -2.760  1.00  0.00     0.051 A 
ATOM     10  C   UNL     1       8.265  -2.507  -0.565  1.00  0.00     0.166 A 
ATOM     11  C   UNL     1       8.344  -2.679  -1.929  1.00  0.00     0.165 A 
ATOM     12  O   UNL     1       8.591  -3.707   0.029  1.00  0.00    -0.454 OA
ATOM     13  O   UNL     1       8.723  -3.995  -2.146  1.00  0.00    -0.454 OA
ATOM     14  C   UNL     1       8.978  -4.657  -0.930  1.00  0.00     0.468 C 
ENDBRANCH   5   6
ENDBRANCH   1   5
TORSDOF 3
ENDMDL
MODEL 3
REMARK VINA RESULT:      -7.2      2.043      2.625
REMARK SMILES CC(=O)CCc1ccc2c(c1)OCO2
REMARK SMILES IDX 4 1 2 2 1 3 3 4 5 5 6 6 7 7 11 8 8 9 10 10 9 11 12 12 14 13
REMARK SMILES IDX 13 14
REMARK H PARENT
REMARK Flexibility Score: inf
ROOT
ATOM      1  C   UNL     1       5.395  -0.077   2.018  1.00  0.00     0.080 C 
ENDROOT
BRANCH   1   2
ATOM      2  C   UNL     1       4.552   1.127   1.775  1.00  0.00     0.130 C 
ATOM      3  C   UNL     1       4.894   2.119   0.721  1.00  0.00     0.087 C 
ATOM      4  O   UNL     1       3.549   1.334   2.438  1.00  0.00    -0.300 OA
ENDBRANCH   1   2
BRANCH   1   5
ATOM      5  C   UNL     1       6.836   0.169   1.616  1.00  0.00     0.043 C 
BRANCH   5   6
ATOM      6  C   UNL     1       7.267  -0.744   0.542  1.00  0.00    -0.044 A 
ATOM      7  C   UNL     1       7.138  -0.401  -0.808  1.00  0.00     0.008 A 
ATOM      8  C   UNL     1       7.814  -1.966   0.865  1.00  0.00     0.054 A 
ATOM      9  C   UNL     1       7.561  -1.298  -1.772  1.00  0.00     0.051 A 
ATOM     10  C   UNL     1       8.241  -2.869  -0.114  1.00  0.00     0.166 A 
ATOM     11  C   UNL     1       8.113  -2.532  -1.443  1.00  0.00     0.165 A 
ATOM     12  O   UNL     1       8.807  -4.124  -0.051  1.00  0.00    -0.454 OA
ATOM     13  O   UNL     1       8.609  -3.599  -2.176  1.00  0.00    -0.454 OA
ATOM     14  C   UNL     1       9.143  -4.591  -1.332  1.00  0.00     0.468 C 
ENDBRANCH   5   6
ENDBRANCH   1   5
TORSDOF 3
ENDMDL
MODEL 4
REMARK VINA RESULT:      -7.1      1.256      1.477
REMARK SMILES CC(=O)CCc1ccc2c(c1)OCO2
REMARK SMILES IDX 4 1 2 2 1 3 3 4 5 5 6 6 7 7 11 8 8 9 10 10 9 11 12 12 14 13
REMARK SMILES IDX 13 14
REMARK H PARENT
REMARK Flexibility Score: inf
ROOT
ATOM      1  C   UNL     1       6.374   1.203   0.915  1.00  0.00     0.080 C 
ENDROOT
BRANCH   1   2
ATOM      2  C   UNL     1       5.671   0.384   1.942  1.00  0.00     0.130 C 
ATOM      3  C   UNL     1       6.290  -0.836   2.526  1.00  0.00     0.087 C 
ATOM      4  O   UNL     1       4.557   0.692   2.335  1.00  0.00    -0.300 OA
ENDBRANCH   1   2
BRANCH   1   5
ATOM      5  C   UNL     1       5.858   0.901  -0.478  1.00  0.00     0.043 C 
BRANCH   5   6
ATOM      6  C   UNL     1       6.810   0.081  -1.248  1.00  0.00    -0.044 A 
ATOM      7  C   UNL     1       7.497   0.599  -2.352  1.00  0.00     0.008 A 
ATOM      8  C   UNL     1       7.040  -1.225  -0.880  1.00  0.00     0.054 A 
ATOM      9  C   UNL     1       8.380  -0.217  -3.036  1.00  0.00     0.051 A 
ATOM     10  C   UNL     1       7.934  -2.045  -1.574  1.00  0.00     0.166 A 
ATOM     11  C   UNL     1       8.609  -1.537  -2.661  1.00  0.00     0.165 A 
ATOM     12  O   UNL     1       8.328  -3.356  -1.409  1.00  0.00    -0.454 OA
ATOM     13  O   UNL     1       9.413  -2.557  -3.146  1.00  0.00    -0.454 OA
ATOM     14  C   UNL     1       9.334  -3.699  -2.327  1.00  0.00     0.468 C 
ENDBRANCH   5   6
ENDBRANCH   1   5
TORSDOF 3
ENDMDL
MODEL 5
REMARK VINA RESULT:      -7.1      1.948      2.470
REMARK SMILES CC(=O)CCc1ccc2c(c1)OCO2
REMARK SMILES IDX 4 1 2 2 1 3 3 4 5 5 6 6 7 7 11 8 8 9 10 10 9 11 12 12 14 13
REMARK SMILES IDX 13 14
REMARK H PARENT
REMARK Flexibility Score: inf
ROOT
ATOM      1  C   UNL     1       6.815   0.958   1.420  1.00  0.00     0.080 C 
ENDROOT
BRANCH   1   2
ATOM      2  C   UNL     1       5.346   1.198   1.454  1.00  0.00     0.130 C 
ATOM      3  C   UNL     1       4.685   2.126   0.497  1.00  0.00     0.087 C 
ATOM      4  O   UNL     1       4.637   0.636   2.273  1.00  0.00    -0.300 OA
ENDBRANCH   1   2
BRANCH   1   5
ATOM      5  C   UNL     1       7.377   1.170   0.029  1.00  0.00     0.043 C 
BRANCH   5   6
ATOM      6  C   UNL     1       7.689  -0.108  -0.636  1.00  0.00    -0.044 A 
ATOM      7  C   UNL     1       7.690  -0.228  -2.030  1.00  0.00     0.008 A 
ATOM      8  C   UNL     1       7.992  -1.215   0.124  1.00  0.00     0.054 A 
ATOM      9  C   UNL     1       7.992  -1.453  -2.598  1.00  0.00     0.051 A 
ATOM     10  C   UNL     1       8.297  -2.451  -0.455  1.00  0.00     0.166 A 
ATOM     11  C   UNL     1       8.297  -2.570  -1.827  1.00  0.00     0.165 A 
ATOM     12  O   UNL     1       8.625  -3.681   0.074  1.00  0.00    -0.454 OA
ATOM     13  O   UNL     1       8.629  -3.885  -2.114  1.00  0.00    -0.454 OA
ATOM     14  C   UNL     1       8.934  -4.600  -0.941  1.00  0.00     0.468 C 
ENDBRANCH   5   6
ENDBRANCH   1   5
TORSDOF 3
ENDMDL
