@<TRIPOS>MOLECULE
/home/cewinharhar/GITHUB/reincatalyze/data/processed/docking_pred/2023-May-31-1438_sub9_nm5_bs15_s42_ex16_mel10_mts1000_k50_ec05_g099_lra9e-4_lrc3e-3/72c4800fcc396c08a923544a0defa9269110c5e0_ligand_9.pdbqt
 14 15 0 0 0
SMALL
GASTEIGER

@<TRIPOS>ATOM
      1  C          6.3740    1.2030    0.9150 C.3     1  UNL1        0.0800
      2  C          5.6710    0.3840    1.9420 C.2     1  UNL1        0.1300
      3  C          6.2900   -0.8360    2.5260 C.3     1  UNL1        0.0870
      4  O          4.5570    0.6920    2.3350 O.2     1  UNL1       -0.3000
      5  C          5.8580    0.9010   -0.4780 C.3     1  UNL1        0.0430
      6  C          6.8100    0.0810   -1.2480 C.2     1  UNL1       -0.0440
      7  C          7.4970    0.5990   -2.3520 C.2     1  UNL1        0.0080
      8  C          7.0400   -1.2250   -0.8800 C.2     1  UNL1        0.0540
      9  C          8.3800   -0.2170   -3.0360 C.2     1  UNL1        0.0510
     10  C          7.9340   -2.0450   -1.5740 C.2     1  UNL1        0.1660
     11  C          8.6090   -1.5370   -2.6610 C.2     1  UNL1        0.1650
     12  O          8.3280   -3.3560   -1.4090 O.2     1  UNL1       -0.4540
     13  O          9.4130   -2.5570   -3.1460 O.2     1  UNL1       -0.4540
     14  C          9.3340   -3.6990   -2.3270 C.3     1  UNL1        0.4680
@<TRIPOS>BOND
     1    13    11    1
     2    13    14    1
     3     9    11    2
     4     9     7    1
     5    11    10    1
     6     7     6    2
     7    14    12    1
     8    10    12    1
     9    10     8    2
    10     6     8    1
    11     6     5    1
    12     5     1    1
    13     1     2    1
    14     2     4    2
    15     2     3    1
