@<TRIPOS>MOLECULE
/home/cewinharhar/GITHUB/reincatalyze/data/processed/docking_pred/2023-May-31-1438_sub9_nm5_bs15_s42_ex16_mel10_mts1000_k50_ec05_g099_lra9e-4_lrc3e-3/72c4800fcc396c08a923544a0defa9269110c5e0_ligand_9.pdbqt
 14 15 0 0 0
SMALL
GASTEIGER

@<TRIPOS>ATOM
      1  C          5.5250    1.9250    1.2690 C.3     1  UNL1        0.0800
      2  C          5.0830    0.7090    2.0060 C.2     1  UNL1        0.1300
      3  C          5.9730   -0.4710    2.1730 C.3     1  UNL1        0.0870
      4  O          3.9670    0.6450    2.4970 O.2     1  UNL1       -0.3000
      5  C          5.3980    1.7380   -0.2300 C.3     1  UNL1        0.0430
      6  C          6.5650    1.0370   -0.7940 C.2     1  UNL1       -0.0440
      7  C          7.8710    1.4750   -0.5500 C.2     1  UNL1        0.0080
      8  C          6.3770   -0.0770   -1.5800 C.2     1  UNL1        0.0540
      9  C          8.9280    0.7770   -1.1060 C.2     1  UNL1        0.0510
     10  C          7.4490   -0.7800   -2.1390 C.2     1  UNL1        0.1660
     11  C          8.7350   -0.3490   -1.9000 C.2     1  UNL1        0.1650
     12  O          7.5220   -1.8980   -2.9420 O.2     1  UNL1       -0.4540
     13  O          9.5800   -1.2210   -2.5680 O.2     1  UNL1       -0.4540
     14  C          8.8580   -2.2710   -3.1660 C.3     1  UNL1        0.4680
@<TRIPOS>BOND
     1    14    12    1
     2    14    13    1
     3    12    10    1
     4    13    11    1
     5    10    11    2
     6    10     8    1
     7    11     9    1
     8     8     6    2
     9     9     7    2
    10     6     7    1
    11     6     5    1
    12     5     1    1
    13     1     2    1
    14     2     3    1
    15     2     4    2
