@<TRIPOS>MOLECULE
/home/cewinharhar/GITHUB/reincatalyze/data/processed/docking_pred/2023-May-31-1438_sub9_nm5_bs15_s42_ex16_mel10_mts1000_k50_ec05_g099_lra9e-4_lrc3e-3/73f03501d88ed0f960f592fe5f6124e73644cb01_ligand_9.pdbqt
 14 15 0 0 0
SMALL
GASTEIGER

@<TRIPOS>ATOM
      1  C          6.3940    1.2270    0.8860 C.3     1  UNL1        0.0800
      2  C          5.7120    0.4000    1.9210 C.2     1  UNL1        0.1300
      3  C          6.3570   -0.8050    2.5080 C.3     1  UNL1        0.0870
      4  O          4.5950    0.6910    2.3190 O.2     1  UNL1       -0.3000
      5  C          5.8800    0.9040   -0.5030 C.3     1  UNL1        0.0430
      6  C          6.8360    0.0780   -1.2610 C.2     1  UNL1       -0.0440
      7  C          7.5440    0.5930   -2.3540 C.2     1  UNL1        0.0080
      8  C          7.0470   -1.2310   -0.8940 C.2     1  UNL1        0.0540
      9  C          8.4290   -0.2300   -3.0270 C.2     1  UNL1        0.0510
     10  C          7.9440   -2.0580   -1.5780 C.2     1  UNL1        0.1660
     11  C          8.6400   -1.5530   -2.6540 C.2     1  UNL1        0.1650
     12  O          8.3230   -3.3730   -1.4110 O.2     1  UNL1       -0.4540
     13  O          9.4410   -2.5790   -3.1290 O.2     1  UNL1       -0.4540
     14  C          9.3400   -3.7230   -2.3150 C.3     1  UNL1        0.4680
@<TRIPOS>BOND
     1    13    11    1
     2    13    14    1
     3     9    11    2
     4     9     7    1
     5    11    10    1
     6     7     6    2
     7    14    12    1
     8    10    12    1
     9    10     8    2
    10     6     8    1
    11     6     5    1
    12     5     1    1
    13     1     2    1
    14     2     4    2
    15     2     3    1
