@<TRIPOS>MOLECULE
/home/cewinharhar/GITHUB/reincatalyze/data/processed/docking_pred/2023-May-31-1438_sub9_nm5_bs15_s42_ex16_mel10_mts1000_k50_ec05_g099_lra9e-4_lrc3e-3/7473f82790d6809f011fa27bf7bcba9a4b9bdb46_ligand_9.pdbqt
 14 15 0 0 0
SMALL
GASTEIGER

@<TRIPOS>ATOM
      1  C          5.7860    1.3400   -0.2460 C.3     1  UNL1        0.0800
      2  C          5.1590    1.2490    1.1020 C.2     1  UNL1        0.1300
      3  C          5.3630    0.0660    1.9800 C.3     1  UNL1        0.0870
      4  O          4.4530    2.1500    1.5280 O.2     1  UNL1       -0.3000
      5  C          7.2720    1.0510   -0.1820 C.3     1  UNL1        0.0430
      6  C          7.6060   -0.2380   -0.8130 C.2     1  UNL1       -0.0440
      7  C          7.6020   -0.3960   -2.2040 C.2     1  UNL1        0.0080
      8  C          7.9320   -1.3190   -0.0260 C.2     1  UNL1        0.0540
      9  C          7.9240   -1.6290   -2.7400 C.2     1  UNL1        0.0510
     10  C          8.2580   -2.5640   -0.5730 C.2     1  UNL1        0.1660
     11  C          8.2530   -2.7200   -1.9420 C.2     1  UNL1        0.1650
     12  O          8.6110   -3.7730   -0.0130 O.2     1  UNL1       -0.4540
     13  O          8.6090   -4.0360   -2.1960 O.2     1  UNL1       -0.4540
     14  C          8.9330   -4.7140   -1.0050 C.3     1  UNL1        0.4680
@<TRIPOS>BOND
     1     9     7    1
     2     9    11    2
     3     7     6    2
     4    13    11    1
     5    13    14    1
     6    11    10    1
     7    14    12    1
     8     6     5    1
     9     6     8    1
    10    10     8    2
    11    10    12    1
    12     1     5    1
    13     1     2    1
    14     2     4    2
    15     2     3    1
