@<TRIPOS>MOLECULE
/home/cewinharhar/GITHUB/reincatalyze/data/processed/docking_pred/2023-May-31-1438_sub9_nm5_bs15_s42_ex16_mel10_mts1000_k50_ec05_g099_lra9e-4_lrc3e-3/7473f82790d6809f011fa27bf7bcba9a4b9bdb46_ligand_9.pdbqt
 14 15 0 0 0
SMALL
GASTEIGER

@<TRIPOS>ATOM
      1  C          5.4620   -0.0430    2.0230 C.3     1  UNL1        0.0800
      2  C          4.6000    1.1450    1.7660 C.2     1  UNL1        0.1300
      3  C          4.9200    2.1260    0.6950 C.3     1  UNL1        0.0870
      4  O          3.5980    1.3480    2.4330 O.2     1  UNL1       -0.3000
      5  C          6.8900    0.2090    1.5830 C.3     1  UNL1        0.0430
      6  C          7.3090   -0.7250    0.5230 C.2     1  UNL1       -0.0440
      7  C          7.1800   -0.4020   -0.8320 C.2     1  UNL1        0.0080
      8  C          7.8430   -1.9470    0.8630 C.2     1  UNL1        0.0540
      9  C          7.5910   -1.3190   -1.7830 C.2     1  UNL1        0.0510
     10  C          8.2570   -2.8710   -0.1010 C.2     1  UNL1        0.1660
     11  C          8.1300   -2.5540   -1.4360 C.2     1  UNL1        0.1650
     12  O          8.8100   -4.1310   -0.0200 O.2     1  UNL1       -0.4540
     13  O          8.6130   -3.6370   -2.1530 O.2     1  UNL1       -0.4540
     14  C          9.1370   -4.6220   -1.2950 C.3     1  UNL1        0.4680
@<TRIPOS>BOND
     1    13    11    1
     2    13    14    1
     3     9    11    2
     4     9     7    1
     5    11    10    1
     6    14    12    1
     7     7     6    2
     8    10    12    1
     9    10     8    2
    10     6     8    1
    11     6     5    1
    12     3     2    1
    13     5     1    1
    14     2     1    1
    15     2     4    2
