@<TRIPOS>MOLECULE
/home/cewinharhar/GITHUB/reincatalyze/data/processed/docking_pred/2023-May-31-1438_sub9_nm5_bs15_s42_ex16_mel10_mts1000_k50_ec05_g099_lra9e-4_lrc3e-3/7473f82790d6809f011fa27bf7bcba9a4b9bdb46_ligand_9.pdbqt
 14 15 0 0 0
SMALL
GASTEIGER

@<TRIPOS>ATOM
      1  C          5.5470    1.9050    1.2840 C.3     1  UNL1        0.0800
      2  C          5.1110    0.6830    2.0170 C.2     1  UNL1        0.1300
      3  C          6.0150   -0.4840    2.1960 C.3     1  UNL1        0.0870
      4  O          3.9900    0.6050    2.4930 O.2     1  UNL1       -0.3000
      5  C          5.4130    1.7250   -0.2150 C.3     1  UNL1        0.0430
      6  C          6.5750    1.0210   -0.7870 C.2     1  UNL1       -0.0440
      7  C          7.8840    1.4550   -0.5500 C.2     1  UNL1        0.0080
      8  C          6.3790   -0.0930   -1.5720 C.2     1  UNL1        0.0540
      9  C          8.9350    0.7530   -1.1130 C.2     1  UNL1        0.0510
     10  C          7.4450   -0.7990   -2.1370 C.2     1  UNL1        0.1660
     11  C          8.7340   -0.3720   -1.9060 C.2     1  UNL1        0.1650
     12  O          7.5110   -1.9170   -2.9410 O.2     1  UNL1       -0.4540
     13  O          9.5730   -1.2460   -2.5790 O.2     1  UNL1       -0.4540
     14  C          8.8440   -2.2930   -3.1740 C.3     1  UNL1        0.4680
@<TRIPOS>BOND
     1    14    12    1
     2    14    13    1
     3    12    10    1
     4    13    11    1
     5    10    11    2
     6    10     8    1
     7    11     9    1
     8     8     6    2
     9     9     7    2
    10     6     7    1
    11     6     5    1
    12     5     1    1
    13     1     2    1
    14     2     3    1
    15     2     4    2
