MODEL 1
REMARK VINA RESULT:      -7.6      0.000      0.000
REMARK SMILES CC(=O)CCc1ccc2c(c1)OCO2
REMARK SMILES IDX 4 1 2 2 1 3 3 4 5 5 6 6 7 7 11 8 8 9 10 10 9 11 12 12 14 13
REMARK SMILES IDX 13 14
REMARK H PARENT
REMARK Flexibility Score: inf
ROOT
ATOM      1  C   UNL     1       5.547   1.905   1.284  1.00  0.00     0.080 C 
ENDROOT
BRANCH   1   2
ATOM      2  C   UNL     1       5.111   0.683   2.017  1.00  0.00     0.130 C 
ATOM      3  C   UNL     1       6.015  -0.484   2.196  1.00  0.00     0.087 C 
ATOM      4  O   UNL     1       3.990   0.605   2.493  1.00  0.00    -0.300 OA
ENDBRANCH   1   2
BRANCH   1   5
ATOM      5  C   UNL     1       5.413   1.725  -0.215  1.00  0.00     0.043 C 
BRANCH   5   6
ATOM      6  C   UNL     1       6.575   1.021  -0.787  1.00  0.00    -0.044 A 
ATOM      7  C   UNL     1       7.884   1.455  -0.550  1.00  0.00     0.008 A 
ATOM      8  C   UNL     1       6.379  -0.093  -1.572  1.00  0.00     0.054 A 
ATOM      9  C   UNL     1       8.935   0.753  -1.113  1.00  0.00     0.051 A 
ATOM     10  C   UNL     1       7.445  -0.799  -2.137  1.00  0.00     0.166 A 
ATOM     11  C   UNL     1       8.734  -0.372  -1.906  1.00  0.00     0.165 A 
ATOM     12  O   UNL     1       7.511  -1.917  -2.941  1.00  0.00    -0.454 OA
ATOM     13  O   UNL     1       9.573  -1.246  -2.579  1.00  0.00    -0.454 OA
ATOM     14  C   UNL     1       8.844  -2.293  -3.174  1.00  0.00     0.468 C 
ENDBRANCH   5   6
ENDBRANCH   1   5
TORSDOF 3
ENDMDL
MODEL 2
REMARK VINA RESULT:      -7.3      1.935      2.409
REMARK SMILES CC(=O)CCc1ccc2c(c1)OCO2
REMARK SMILES IDX 4 1 2 2 1 3 3 4 5 5 6 6 7 7 11 8 8 9 10 10 9 11 12 12 14 13
REMARK SMILES IDX 13 14
REMARK H PARENT
REMARK Flexibility Score: inf
ROOT
ATOM      1  C   UNL     1       5.786   1.340  -0.246  1.00  0.00     0.080 C 
ENDROOT
BRANCH   1   2
ATOM      2  C   UNL     1       5.159   1.249   1.102  1.00  0.00     0.130 C 
ATOM      3  C   UNL     1       5.363   0.066   1.980  1.00  0.00     0.087 C 
ATOM      4  O   UNL     1       4.453   2.150   1.528  1.00  0.00    -0.300 OA
ENDBRANCH   1   2
BRANCH   1   5
ATOM      5  C   UNL     1       7.272   1.051  -0.182  1.00  0.00     0.043 C 
BRANCH   5   6
ATOM      6  C   UNL     1       7.606  -0.238  -0.813  1.00  0.00    -0.044 A 
ATOM      7  C   UNL     1       7.602  -0.396  -2.204  1.00  0.00     0.008 A 
ATOM      8  C   UNL     1       7.932  -1.319  -0.026  1.00  0.00     0.054 A 
ATOM      9  C   UNL     1       7.924  -1.629  -2.740  1.00  0.00     0.051 A 
ATOM     10  C   UNL     1       8.258  -2.564  -0.573  1.00  0.00     0.166 A 
ATOM     11  C   UNL     1       8.253  -2.720  -1.942  1.00  0.00     0.165 A 
ATOM     12  O   UNL     1       8.611  -3.773  -0.013  1.00  0.00    -0.454 OA
ATOM     13  O   UNL     1       8.609  -4.036  -2.196  1.00  0.00    -0.454 OA
ATOM     14  C   UNL     1       8.933  -4.714  -1.005  1.00  0.00     0.468 C 
ENDBRANCH   5   6
ENDBRANCH   1   5
TORSDOF 3
ENDMDL
MODEL 3
REMARK VINA RESULT:      -7.2      2.059      2.624
REMARK SMILES CC(=O)CCc1ccc2c(c1)OCO2
REMARK SMILES IDX 4 1 2 2 1 3 3 4 5 5 6 6 7 7 11 8 8 9 10 10 9 11 12 12 14 13
REMARK SMILES IDX 13 14
REMARK H PARENT
REMARK Flexibility Score: inf
ROOT
ATOM      1  C   UNL     1       5.462  -0.043   2.023  1.00  0.00     0.080 C 
ENDROOT
BRANCH   1   2
ATOM      2  C   UNL     1       4.600   1.145   1.766  1.00  0.00     0.130 C 
ATOM      3  C   UNL     1       4.920   2.126   0.695  1.00  0.00     0.087 C 
ATOM      4  O   UNL     1       3.598   1.348   2.433  1.00  0.00    -0.300 OA
ENDBRANCH   1   2
BRANCH   1   5
ATOM      5  C   UNL     1       6.890   0.209   1.583  1.00  0.00     0.043 C 
BRANCH   5   6
ATOM      6  C   UNL     1       7.309  -0.725   0.523  1.00  0.00    -0.044 A 
ATOM      7  C   UNL     1       7.180  -0.402  -0.832  1.00  0.00     0.008 A 
ATOM      8  C   UNL     1       7.843  -1.947   0.863  1.00  0.00     0.054 A 
ATOM      9  C   UNL     1       7.591  -1.319  -1.783  1.00  0.00     0.051 A 
ATOM     10  C   UNL     1       8.257  -2.871  -0.101  1.00  0.00     0.166 A 
ATOM     11  C   UNL     1       8.130  -2.554  -1.436  1.00  0.00     0.165 A 
ATOM     12  O   UNL     1       8.810  -4.131  -0.020  1.00  0.00    -0.454 OA
ATOM     13  O   UNL     1       8.613  -3.637  -2.153  1.00  0.00    -0.454 OA
ATOM     14  C   UNL     1       9.137  -4.622  -1.295  1.00  0.00     0.468 C 
ENDBRANCH   5   6
ENDBRANCH   1   5
TORSDOF 3
ENDMDL
MODEL 4
REMARK VINA RESULT:      -7.0      1.240      1.437
REMARK SMILES CC(=O)CCc1ccc2c(c1)OCO2
REMARK SMILES IDX 4 1 2 2 1 3 3 4 5 5 6 6 7 7 11 8 8 9 10 10 9 11 12 12 14 13
REMARK SMILES IDX 13 14
REMARK H PARENT
REMARK Flexibility Score: inf
ROOT
ATOM      1  C   UNL     1       6.362   1.203   0.935  1.00  0.00     0.080 C 
ENDROOT
BRANCH   1   2
ATOM      2  C   UNL     1       5.663   0.371   1.954  1.00  0.00     0.130 C 
ATOM      3  C   UNL     1       6.291  -0.847   2.532  1.00  0.00     0.087 C 
ATOM      4  O   UNL     1       4.546   0.668   2.346  1.00  0.00    -0.300 OA
ENDBRANCH   1   2
BRANCH   1   5
ATOM      5  C   UNL     1       5.847   0.911  -0.461  1.00  0.00     0.043 C 
BRANCH   5   6
ATOM      6  C   UNL     1       6.803   0.100  -1.237  1.00  0.00    -0.044 A 
ATOM      7  C   UNL     1       7.495   0.631  -2.331  1.00  0.00     0.008 A 
ATOM      8  C   UNL     1       7.029  -1.211  -0.884  1.00  0.00     0.054 A 
ATOM      9  C   UNL     1       8.380  -0.177  -3.021  1.00  0.00     0.051 A 
ATOM     10  C   UNL     1       7.925  -2.023  -1.585  1.00  0.00     0.166 A 
ATOM     11  C   UNL     1       8.606  -1.502  -2.663  1.00  0.00     0.165 A 
ATOM     12  O   UNL     1       8.318  -3.337  -1.435  1.00  0.00    -0.454 OA
ATOM     13  O   UNL     1       9.412  -2.516  -3.156  1.00  0.00    -0.454 OA
ATOM     14  C   UNL     1       9.328  -3.669  -2.353  1.00  0.00     0.468 C 
ENDBRANCH   5   6
ENDBRANCH   1   5
TORSDOF 3
ENDMDL
MODEL 5
REMARK VINA RESULT:      -7.0      1.985      2.513
REMARK SMILES CC(=O)CCc1ccc2c(c1)OCO2
REMARK SMILES IDX 4 1 2 2 1 3 3 4 5 5 6 6 7 7 11 8 8 9 10 10 9 11 12 12 14 13
REMARK SMILES IDX 13 14
REMARK H PARENT
REMARK Flexibility Score: inf
ROOT
ATOM      1  C   UNL     1       6.779   0.798   1.435  1.00  0.00     0.080 C 
ENDROOT
BRANCH   1   2
ATOM      2  C   UNL     1       5.336   1.165   1.479  1.00  0.00     0.130 C 
ATOM      3  C   UNL     1       4.749   2.143   0.525  1.00  0.00     0.087 C 
ATOM      4  O   UNL     1       4.589   0.670   2.308  1.00  0.00    -0.300 OA
ENDBRANCH   1   2
BRANCH   1   5
ATOM      5  C   UNL     1       7.364   1.032   0.056  1.00  0.00     0.043 C 
BRANCH   5   6
ATOM      6  C   UNL     1       7.689  -0.236  -0.622  1.00  0.00    -0.044 A 
ATOM      7  C   UNL     1       7.704  -0.339  -2.017  1.00  0.00     0.008 A 
ATOM      8  C   UNL     1       7.990  -1.352   0.127  1.00  0.00     0.054 A 
ATOM      9  C   UNL     1       8.017  -1.555  -2.597  1.00  0.00     0.051 A 
ATOM     10  C   UNL     1       8.307  -2.578  -0.464  1.00  0.00     0.166 A 
ATOM     11  C   UNL     1       8.320  -2.681  -1.838  1.00  0.00     0.165 A 
ATOM     12  O   UNL     1       8.636  -3.814   0.052  1.00  0.00    -0.454 OA
ATOM     13  O   UNL     1       8.662  -3.990  -2.139  1.00  0.00    -0.454 OA
ATOM     14  C   UNL     1       8.959  -4.719  -0.972  1.00  0.00     0.468 C 
ENDBRANCH   5   6
ENDBRANCH   1   5
TORSDOF 3
ENDMDL
