@<TRIPOS>MOLECULE
/home/cewinharhar/GITHUB/reincatalyze/data/processed/docking_pred/2023-May-31-1438_sub9_nm5_bs15_s42_ex16_mel10_mts1000_k50_ec05_g099_lra9e-4_lrc3e-3/7473f82790d6809f011fa27bf7bcba9a4b9bdb46_ligand_9.pdbqt
 14 15 0 0 0
SMALL
GASTEIGER

@<TRIPOS>ATOM
      1  C          6.3620    1.2030    0.9350 C.3     1  UNL1        0.0800
      2  C          5.6630    0.3710    1.9540 C.2     1  UNL1        0.1300
      3  C          6.2910   -0.8470    2.5320 C.3     1  UNL1        0.0870
      4  O          4.5460    0.6680    2.3460 O.2     1  UNL1       -0.3000
      5  C          5.8470    0.9110   -0.4610 C.3     1  UNL1        0.0430
      6  C          6.8030    0.1000   -1.2370 C.2     1  UNL1       -0.0440
      7  C          7.4950    0.6310   -2.3310 C.2     1  UNL1        0.0080
      8  C          7.0290   -1.2110   -0.8840 C.2     1  UNL1        0.0540
      9  C          8.3800   -0.1770   -3.0210 C.2     1  UNL1        0.0510
     10  C          7.9250   -2.0230   -1.5850 C.2     1  UNL1        0.1660
     11  C          8.6060   -1.5020   -2.6630 C.2     1  UNL1        0.1650
     12  O          8.3180   -3.3370   -1.4350 O.2     1  UNL1       -0.4540
     13  O          9.4120   -2.5160   -3.1560 O.2     1  UNL1       -0.4540
     14  C          9.3280   -3.6690   -2.3530 C.3     1  UNL1        0.4680
@<TRIPOS>BOND
     1    13    11    1
     2    13    14    1
     3     9    11    2
     4     9     7    1
     5    11    10    1
     6    14    12    1
     7     7     6    2
     8    10    12    1
     9    10     8    2
    10     6     8    1
    11     6     5    1
    12     5     1    1
    13     1     2    1
    14     2     4    2
    15     2     3    1
