@<TRIPOS>MOLECULE
/home/cewinharhar/GITHUB/reincatalyze/data/processed/docking_pred/2023-May-31-1438_sub9_nm5_bs15_s42_ex16_mel10_mts1000_k50_ec05_g099_lra9e-4_lrc3e-3/76d14433275938f70f74ce69856b36729c59e426_ligand_9.pdbqt
 14 15 0 0 0
SMALL
GASTEIGER

@<TRIPOS>ATOM
      1  C          5.5030   -0.0270    1.9400 C.3     1  UNL1        0.0800
      2  C          4.6440    1.1530    1.6440 C.2     1  UNL1        0.1300
      3  C          4.9560    2.0860    0.5280 C.3     1  UNL1        0.0870
      4  O          3.6530    1.3910    2.3150 O.2     1  UNL1       -0.3000
      5  C          6.9340    0.2080    1.4990 C.3     1  UNL1        0.0430
      6  C          7.3490   -0.7470    0.4560 C.2     1  UNL1       -0.0440
      7  C          7.2270   -0.4450   -0.9050 C.2     1  UNL1        0.0080
      8  C          7.8720   -1.9670    0.8180 C.2     1  UNL1        0.0540
      9  C          7.6340   -1.3800   -1.8390 C.2     1  UNL1        0.0510
     10  C          8.2830   -2.9090   -0.1300 C.2     1  UNL1        0.1660
     11  C          8.1620   -2.6130   -1.4700 C.2     1  UNL1        0.1650
     12  O          8.8260   -4.1720   -0.0260 O.2     1  UNL1       -0.4540
     13  O          8.6390   -3.7120   -2.1670 O.2     1  UNL1       -0.4540
     14  C          9.1540   -4.6860   -1.2910 C.3     1  UNL1        0.4680
@<TRIPOS>BOND
     1    13    11    1
     2    13    14    1
     3     9    11    2
     4     9     7    1
     5    11    10    1
     6    14    12    1
     7     7     6    2
     8    10    12    1
     9    10     8    2
    10     6     8    1
    11     6     5    1
    12     3     2    1
    13     5     1    1
    14     2     1    1
    15     2     4    2
