@<TRIPOS>MOLECULE
/home/cewinharhar/GITHUB/reincatalyze/data/processed/docking_pred/2023-May-31-1438_sub9_nm5_bs15_s42_ex16_mel10_mts1000_k50_ec05_g099_lra9e-4_lrc3e-3/777751631f294be45381376aa4be6161cfc72981_ligand_9.pdbqt
 14 15 0 0 0
SMALL
GASTEIGER

@<TRIPOS>ATOM
      1  C          6.8140    0.7720    1.4080 C.3     1  UNL1        0.0800
      2  C          5.3660    1.1080    1.5140 C.2     1  UNL1        0.1300
      3  C          4.7420    2.1500    0.6550 C.3     1  UNL1        0.0870
      4  O          4.6460    0.5350    2.3150 O.2     1  UNL1       -0.3000
      5  C          7.3350    1.0170    0.0060 C.3     1  UNL1        0.0430
      6  C          7.6610   -0.2430   -0.6840 C.2     1  UNL1       -0.0440
      7  C          7.6790   -0.3310   -2.0810 C.2     1  UNL1        0.0080
      8  C          7.9590   -1.3670    0.0530 C.2     1  UNL1        0.0540
      9  C          7.9930   -1.5410   -2.6730 C.2     1  UNL1        0.0510
     10  C          8.2770   -2.5880   -0.5510 C.2     1  UNL1        0.1660
     11  C          8.2940   -2.6750   -1.9250 C.2     1  UNL1        0.1650
     12  O          8.6040   -3.8280   -0.0470 O.2     1  UNL1       -0.4540
     13  O          8.6360   -3.9810   -2.2400 O.2     1  UNL1       -0.4540
     14  C          8.9300   -4.7230   -1.0800 C.3     1  UNL1        0.4680
@<TRIPOS>BOND
     1     9     7    1
     2     9    11    2
     3    13    11    1
     4    13    14    1
     5     7     6    2
     6    11    10    1
     7    14    12    1
     8     6     5    1
     9     6     8    1
    10    10    12    1
    11    10     8    2
    12     5     1    1
    13     3     2    1
    14     1     2    1
    15     2     4    2
