MODEL 1
REMARK VINA RESULT:      -7.6      0.000      0.000
REMARK SMILES CC(=O)CCc1ccc2c(c1)OCO2
REMARK SMILES IDX 4 1 2 2 1 3 3 4 5 5 6 6 7 7 11 8 8 9 10 10 9 11 12 12 14 13
REMARK SMILES IDX 13 14
REMARK H PARENT
REMARK Flexibility Score: inf
ROOT
ATOM      1  C   UNL     1       5.549   1.904   1.283  1.00  0.00     0.080 C 
ENDROOT
BRANCH   1   2
ATOM      2  C   UNL     1       5.093   0.686   2.009  1.00  0.00     0.130 C 
ATOM      3  C   UNL     1       5.976  -0.499   2.178  1.00  0.00     0.087 C 
ATOM      4  O   UNL     1       3.973   0.626   2.490  1.00  0.00    -0.300 OA
ENDBRANCH   1   2
BRANCH   1   5
ATOM      5  C   UNL     1       5.420   1.731  -0.217  1.00  0.00     0.043 C 
BRANCH   5   6
ATOM      6  C   UNL     1       6.582   1.028  -0.788  1.00  0.00    -0.044 A 
ATOM      7  C   UNL     1       7.891   1.463  -0.551  1.00  0.00     0.008 A 
ATOM      8  C   UNL     1       6.388  -0.086  -1.573  1.00  0.00     0.054 A 
ATOM      9  C   UNL     1       8.943   0.763  -1.113  1.00  0.00     0.051 A 
ATOM     10  C   UNL     1       7.455  -0.791  -2.138  1.00  0.00     0.166 A 
ATOM     11  C   UNL     1       8.743  -0.362  -1.906  1.00  0.00     0.165 A 
ATOM     12  O   UNL     1       7.522  -1.909  -2.942  1.00  0.00    -0.454 OA
ATOM     13  O   UNL     1       9.583  -1.236  -2.579  1.00  0.00    -0.454 OA
ATOM     14  C   UNL     1       8.856  -2.284  -3.174  1.00  0.00     0.468 C 
ENDBRANCH   5   6
ENDBRANCH   1   5
TORSDOF 3
ENDMDL
MODEL 2
REMARK VINA RESULT:      -7.5      1.929      2.387
REMARK SMILES CC(=O)CCc1ccc2c(c1)OCO2
REMARK SMILES IDX 4 1 2 2 1 3 3 4 5 5 6 6 7 7 11 8 8 9 10 10 9 11 12 12 14 13
REMARK SMILES IDX 13 14
REMARK H PARENT
REMARK Flexibility Score: inf
ROOT
ATOM      1  C   UNL     1       5.734   1.327  -0.286  1.00  0.00     0.080 C 
ENDROOT
BRANCH   1   2
ATOM      2  C   UNL     1       5.113   1.253   1.066  1.00  0.00     0.130 C 
ATOM      3  C   UNL     1       5.343   0.093   1.968  1.00  0.00     0.087 C 
ATOM      4  O   UNL     1       4.392   2.149   1.475  1.00  0.00    -0.300 OA
ENDBRANCH   1   2
BRANCH   1   5
ATOM      5  C   UNL     1       7.228   1.086  -0.220  1.00  0.00     0.043 C 
BRANCH   5   6
ATOM      6  C   UNL     1       7.602  -0.200  -0.836  1.00  0.00    -0.044 A 
ATOM      7  C   UNL     1       7.661  -0.357  -2.225  1.00  0.00     0.008 A 
ATOM      8  C   UNL     1       7.904  -1.278  -0.035  1.00  0.00     0.054 A 
ATOM      9  C   UNL     1       8.019  -1.587  -2.747  1.00  0.00     0.051 A 
ATOM     10  C   UNL     1       8.266  -2.519  -0.567  1.00  0.00     0.166 A 
ATOM     11  C   UNL     1       8.323  -2.675  -1.934  1.00  0.00     0.165 A 
ATOM     12  O   UNL     1       8.606  -3.725   0.008  1.00  0.00    -0.454 OA
ATOM     13  O   UNL     1       8.702  -3.987  -2.172  1.00  0.00    -0.454 OA
ATOM     14  C   UNL     1       8.980  -4.662  -0.969  1.00  0.00     0.468 C 
ENDBRANCH   5   6
ENDBRANCH   1   5
TORSDOF 3
ENDMDL
MODEL 3
REMARK VINA RESULT:      -7.2      2.044      2.597
REMARK SMILES CC(=O)CCc1ccc2c(c1)OCO2
REMARK SMILES IDX 4 1 2 2 1 3 3 4 5 5 6 6 7 7 11 8 8 9 10 10 9 11 12 12 14 13
REMARK SMILES IDX 13 14
REMARK H PARENT
REMARK Flexibility Score: inf
ROOT
ATOM      1  C   UNL     1       5.490  -0.000   2.018  1.00  0.00     0.080 C 
ENDROOT
BRANCH   1   2
ATOM      2  C   UNL     1       4.591   1.154   1.739  1.00  0.00     0.130 C 
ATOM      3  C   UNL     1       4.878   2.121   0.645  1.00  0.00     0.087 C 
ATOM      4  O   UNL     1       3.586   1.342   2.405  1.00  0.00    -0.300 OA
ENDBRANCH   1   2
BRANCH   1   5
ATOM      5  C   UNL     1       6.901   0.272   1.536  1.00  0.00     0.043 C 
BRANCH   5   6
ATOM      6  C   UNL     1       7.310  -0.673   0.481  1.00  0.00    -0.044 A 
ATOM      7  C   UNL     1       7.166  -0.364  -0.876  1.00  0.00     0.008 A 
ATOM      8  C   UNL     1       7.850  -1.890   0.828  1.00  0.00     0.054 A 
ATOM      9  C   UNL     1       7.568  -1.290  -1.822  1.00  0.00     0.051 A 
ATOM     10  C   UNL     1       8.256  -2.823  -0.131  1.00  0.00     0.166 A 
ATOM     11  C   UNL     1       8.113  -2.520  -1.467  1.00  0.00     0.165 A 
ATOM     12  O   UNL     1       8.811  -4.081  -0.043  1.00  0.00    -0.454 OA
ATOM     13  O   UNL     1       8.590  -3.610  -2.179  1.00  0.00    -0.454 OA
ATOM     14  C   UNL     1       9.126  -4.584  -1.316  1.00  0.00     0.468 C 
ENDBRANCH   5   6
ENDBRANCH   1   5
TORSDOF 3
ENDMDL
MODEL 4
REMARK VINA RESULT:      -7.1      1.236      1.429
REMARK SMILES CC(=O)CCc1ccc2c(c1)OCO2
REMARK SMILES IDX 4 1 2 2 1 3 3 4 5 5 6 6 7 7 11 8 8 9 10 10 9 11 12 12 14 13
REMARK SMILES IDX 13 14
REMARK H PARENT
REMARK Flexibility Score: inf
ROOT
ATOM      1  C   UNL     1       6.327   1.257   0.903  1.00  0.00     0.080 C 
ENDROOT
BRANCH   1   2
ATOM      2  C   UNL     1       5.637   0.426   1.928  1.00  0.00     0.130 C 
ATOM      3  C   UNL     1       6.277  -0.782   2.515  1.00  0.00     0.087 C 
ATOM      4  O   UNL     1       4.516   0.713   2.318  1.00  0.00    -0.300 OA
ENDBRANCH   1   2
BRANCH   1   5
ATOM      5  C   UNL     1       5.820   0.947  -0.491  1.00  0.00     0.043 C 
BRANCH   5   6
ATOM      6  C   UNL     1       6.780   0.128  -1.252  1.00  0.00    -0.044 A 
ATOM      7  C   UNL     1       7.479   0.647  -2.348  1.00  0.00     0.008 A 
ATOM      8  C   UNL     1       7.005  -1.179  -0.883  1.00  0.00     0.054 A 
ATOM      9  C   UNL     1       8.368  -0.169  -3.024  1.00  0.00     0.051 A 
ATOM     10  C   UNL     1       7.906  -1.999  -1.569  1.00  0.00     0.166 A 
ATOM     11  C   UNL     1       8.593  -1.490  -2.649  1.00  0.00     0.165 A 
ATOM     12  O   UNL     1       8.298  -3.310  -1.402  1.00  0.00    -0.454 OA
ATOM     13  O   UNL     1       9.402  -2.509  -3.126  1.00  0.00    -0.454 OA
ATOM     14  C   UNL     1       9.314  -3.652  -2.310  1.00  0.00     0.468 C 
ENDBRANCH   5   6
ENDBRANCH   1   5
TORSDOF 3
ENDMDL
MODEL 5
REMARK VINA RESULT:      -7.1      1.947      2.491
REMARK SMILES CC(=O)CCc1ccc2c(c1)OCO2
REMARK SMILES IDX 4 1 2 2 1 3 3 4 5 5 6 6 7 7 11 8 8 9 10 10 9 11 12 12 14 13
REMARK SMILES IDX 13 14
REMARK H PARENT
REMARK Flexibility Score: inf
ROOT
ATOM      1  C   UNL     1       6.814   0.772   1.408  1.00  0.00     0.080 C 
ENDROOT
BRANCH   1   2
ATOM      2  C   UNL     1       5.366   1.108   1.514  1.00  0.00     0.130 C 
ATOM      3  C   UNL     1       4.742   2.150   0.655  1.00  0.00     0.087 C 
ATOM      4  O   UNL     1       4.646   0.535   2.315  1.00  0.00    -0.300 OA
ENDBRANCH   1   2
BRANCH   1   5
ATOM      5  C   UNL     1       7.335   1.017   0.006  1.00  0.00     0.043 C 
BRANCH   5   6
ATOM      6  C   UNL     1       7.661  -0.243  -0.684  1.00  0.00    -0.044 A 
ATOM      7  C   UNL     1       7.679  -0.331  -2.081  1.00  0.00     0.008 A 
ATOM      8  C   UNL     1       7.959  -1.367   0.053  1.00  0.00     0.054 A 
ATOM      9  C   UNL     1       7.993  -1.541  -2.673  1.00  0.00     0.051 A 
ATOM     10  C   UNL     1       8.277  -2.588  -0.551  1.00  0.00     0.166 A 
ATOM     11  C   UNL     1       8.294  -2.675  -1.925  1.00  0.00     0.165 A 
ATOM     12  O   UNL     1       8.604  -3.828  -0.047  1.00  0.00    -0.454 OA
ATOM     13  O   UNL     1       8.636  -3.981  -2.240  1.00  0.00    -0.454 OA
ATOM     14  C   UNL     1       8.930  -4.723  -1.080  1.00  0.00     0.468 C 
ENDBRANCH   5   6
ENDBRANCH   1   5
TORSDOF 3
ENDMDL
