@<TRIPOS>MOLECULE
/home/cewinharhar/GITHUB/reincatalyze/data/processed/docking_pred/2023-May-31-1438_sub9_nm5_bs15_s42_ex16_mel10_mts1000_k50_ec05_g099_lra9e-4_lrc3e-3/777751631f294be45381376aa4be6161cfc72981_ligand_9.pdbqt
 14 15 0 0 0
SMALL
GASTEIGER

@<TRIPOS>ATOM
      1  C          5.5490    1.9040    1.2830 C.3     1  UNL1        0.0800
      2  C          5.0930    0.6860    2.0090 C.2     1  UNL1        0.1300
      3  C          5.9760   -0.4990    2.1780 C.3     1  UNL1        0.0870
      4  O          3.9730    0.6260    2.4900 O.2     1  UNL1       -0.3000
      5  C          5.4200    1.7310   -0.2170 C.3     1  UNL1        0.0430
      6  C          6.5820    1.0280   -0.7880 C.2     1  UNL1       -0.0440
      7  C          7.8910    1.4630   -0.5510 C.2     1  UNL1        0.0080
      8  C          6.3880   -0.0860   -1.5730 C.2     1  UNL1        0.0540
      9  C          8.9430    0.7630   -1.1130 C.2     1  UNL1        0.0510
     10  C          7.4550   -0.7910   -2.1380 C.2     1  UNL1        0.1660
     11  C          8.7430   -0.3620   -1.9060 C.2     1  UNL1        0.1650
     12  O          7.5220   -1.9090   -2.9420 O.2     1  UNL1       -0.4540
     13  O          9.5830   -1.2360   -2.5790 O.2     1  UNL1       -0.4540
     14  C          8.8560   -2.2840   -3.1740 C.3     1  UNL1        0.4680
@<TRIPOS>BOND
     1    14    12    1
     2    14    13    1
     3    12    10    1
     4    13    11    1
     5    10    11    2
     6    10     8    1
     7    11     9    1
     8     8     6    2
     9     9     7    2
    10     6     7    1
    11     6     5    1
    12     5     1    1
    13     1     2    1
    14     2     3    1
    15     2     4    2
