@<TRIPOS>MOLECULE
/home/cewinharhar/GITHUB/reincatalyze/data/processed/docking_pred/2023-May-31-1438_sub9_nm5_bs15_s42_ex16_mel10_mts1000_k50_ec05_g099_lra9e-4_lrc3e-3/777751631f294be45381376aa4be6161cfc72981_ligand_9.pdbqt
 14 15 0 0 0
SMALL
GASTEIGER

@<TRIPOS>ATOM
      1  C          6.3270    1.2570    0.9030 C.3     1  UNL1        0.0800
      2  C          5.6370    0.4260    1.9280 C.2     1  UNL1        0.1300
      3  C          6.2770   -0.7820    2.5150 C.3     1  UNL1        0.0870
      4  O          4.5160    0.7130    2.3180 O.2     1  UNL1       -0.3000
      5  C          5.8200    0.9470   -0.4910 C.3     1  UNL1        0.0430
      6  C          6.7800    0.1280   -1.2520 C.2     1  UNL1       -0.0440
      7  C          7.4790    0.6470   -2.3480 C.2     1  UNL1        0.0080
      8  C          7.0050   -1.1790   -0.8830 C.2     1  UNL1        0.0540
      9  C          8.3680   -0.1690   -3.0240 C.2     1  UNL1        0.0510
     10  C          7.9060   -1.9990   -1.5690 C.2     1  UNL1        0.1660
     11  C          8.5930   -1.4900   -2.6490 C.2     1  UNL1        0.1650
     12  O          8.2980   -3.3100   -1.4020 O.2     1  UNL1       -0.4540
     13  O          9.4020   -2.5090   -3.1260 O.2     1  UNL1       -0.4540
     14  C          9.3140   -3.6520   -2.3100 C.3     1  UNL1        0.4680
@<TRIPOS>BOND
     1    13    11    1
     2    13    14    1
     3     9    11    2
     4     9     7    1
     5    11    10    1
     6     7     6    2
     7    14    12    1
     8    10    12    1
     9    10     8    2
    10     6     8    1
    11     6     5    1
    12     5     1    1
    13     1     2    1
    14     2     4    2
    15     2     3    1
