@<TRIPOS>MOLECULE
/home/cewinharhar/GITHUB/reincatalyze/data/processed/docking_pred/2023-May-31-1438_sub9_nm5_bs15_s42_ex16_mel10_mts1000_k50_ec05_g099_lra9e-4_lrc3e-3/777751631f294be45381376aa4be6161cfc72981_ligand_9.pdbqt
 14 15 0 0 0
SMALL
GASTEIGER

@<TRIPOS>ATOM
      1  C          5.4900   -0.0000    2.0180 C.3     1  UNL1        0.0800
      2  C          4.5910    1.1540    1.7390 C.2     1  UNL1        0.1300
      3  C          4.8780    2.1210    0.6450 C.3     1  UNL1        0.0870
      4  O          3.5860    1.3420    2.4050 O.2     1  UNL1       -0.3000
      5  C          6.9010    0.2720    1.5360 C.3     1  UNL1        0.0430
      6  C          7.3100   -0.6730    0.4810 C.2     1  UNL1       -0.0440
      7  C          7.1660   -0.3640   -0.8760 C.2     1  UNL1        0.0080
      8  C          7.8500   -1.8900    0.8280 C.2     1  UNL1        0.0540
      9  C          7.5680   -1.2900   -1.8220 C.2     1  UNL1        0.0510
     10  C          8.2560   -2.8230   -0.1310 C.2     1  UNL1        0.1660
     11  C          8.1130   -2.5200   -1.4670 C.2     1  UNL1        0.1650
     12  O          8.8110   -4.0810   -0.0430 O.2     1  UNL1       -0.4540
     13  O          8.5900   -3.6100   -2.1790 O.2     1  UNL1       -0.4540
     14  C          9.1260   -4.5840   -1.3160 C.3     1  UNL1        0.4680
@<TRIPOS>BOND
     1    13    11    1
     2    13    14    1
     3     9    11    2
     4     9     7    1
     5    11    10    1
     6    14    12    1
     7     7     6    2
     8    10    12    1
     9    10     8    2
    10     6     8    1
    11     6     5    1
    12     3     2    1
    13     5     1    1
    14     2     1    1
    15     2     4    2
