@<TRIPOS>MOLECULE
/home/cewinharhar/GITHUB/reincatalyze/data/processed/docking_pred/2023-May-31-1438_sub9_nm5_bs15_s42_ex16_mel10_mts1000_k50_ec05_g099_lra9e-4_lrc3e-3/79094ef31ed65e340e791eab6f4e997ef8bc8970_ligand_9.pdbqt
 14 15 0 0 0
SMALL
GASTEIGER

@<TRIPOS>ATOM
      1  C          7.4600   -0.9290    2.1720 C.3     1  UNL1        0.0800
      2  C          6.0780   -0.6260    1.7050 C.2     1  UNL1        0.1300
      3  C          5.4450    0.6980    1.9440 C.3     1  UNL1        0.0870
      4  O          5.4210   -1.4640    1.1080 O.2     1  UNL1       -0.3000
      5  C          7.9080   -2.3020    1.7120 C.3     1  UNL1        0.0430
      6  C          9.2180   -2.2510    1.0390 C.2     1  UNL1       -0.0440
      7  C         10.0080   -1.0960    1.0580 C.2     1  UNL1        0.0080
      8  C          9.6870   -3.3620    0.3750 C.2     1  UNL1        0.0540
      9  C         11.2300   -1.1080    0.4090 C.2     1  UNL1        0.0510
     10  C         10.9230   -3.3690   -0.2790 C.2     1  UNL1        0.1660
     11  C         11.7000   -2.2330   -0.2620 C.2     1  UNL1        0.1650
     12  O         11.6000   -4.3310   -0.9980 O.2     1  UNL1       -0.4540
     13  O         12.8510   -2.5240   -0.9780 O.2     1  UNL1       -0.4540
     14  C         12.8690   -3.8710   -1.3850 C.3     1  UNL1        0.4680
@<TRIPOS>BOND
     1    14    12    1
     2    14    13    1
     3    12    10    1
     4    13    11    1
     5    10    11    2
     6    10     8    1
     7    11     9    1
     8     8     6    2
     9     9     7    2
    10     6     7    1
    11     6     5    1
    12     4     2    2
    13     2     3    1
    14     2     1    1
    15     5     1    1
