@<TRIPOS>MOLECULE
/home/cewinharhar/GITHUB/reincatalyze/data/processed/docking_pred/2023-May-31-1438_sub9_nm5_bs15_s42_ex16_mel10_mts1000_k50_ec05_g099_lra9e-4_lrc3e-3/79094ef31ed65e340e791eab6f4e997ef8bc8970_ligand_9.pdbqt
 14 15 0 0 0
SMALL
GASTEIGER

@<TRIPOS>ATOM
      1  C          6.7400   -1.1310    1.9540 C.3     1  UNL1        0.0800
      2  C          5.7840    0.0100    1.9850 C.2     1  UNL1        0.1300
      3  C          6.1970    1.3860    1.5990 C.3     1  UNL1        0.0870
      4  O          4.6250   -0.1520    2.3320 O.2     1  UNL1       -0.3000
      5  C          8.1760   -0.6460    1.9450 C.3     1  UNL1        0.0430
      6  C          9.0690   -1.5930    1.2540 C.2     1  UNL1       -0.0440
      7  C          8.7050   -2.9290    1.0520 C.2     1  UNL1        0.0080
      8  C         10.2920   -1.1640    0.7900 C.2     1  UNL1        0.0540
      9  C          9.5830   -3.7720    0.3960 C.2     1  UNL1        0.0510
     10  C         11.1760   -2.0200    0.1270 C.2     1  UNL1        0.1660
     11  C         10.8190   -3.3350   -0.0710 C.2     1  UNL1        0.1650
     12  O         12.4280   -1.8370   -0.4200 O.2     1  UNL1       -0.4540
     13  O         11.8700   -3.9390   -0.7440 O.2     1  UNL1       -0.4540
     14  C         12.8720   -3.0040   -1.0650 C.3     1  UNL1        0.4680
@<TRIPOS>BOND
     1    14    13    1
     2    14    12    1
     3    13    11    1
     4    12    10    1
     5    11    10    2
     6    11     9    1
     7    10     8    1
     8     9     7    2
     9     8     6    2
    10     7     6    1
    11     6     5    1
    12     3     2    1
    13     5     1    1
    14     1     2    1
    15     2     4    2
