@<TRIPOS>MOLECULE
/home/cewinharhar/GITHUB/reincatalyze/data/processed/docking_pred/2023-May-31-1438_sub9_nm5_bs15_s42_ex16_mel10_mts1000_k50_ec05_g099_lra9e-4_lrc3e-3/7ac8f9624e71b352d93dccd4dc48cb56e96c53c0_ligand_9.pdbqt
 14 15 0 0 0
SMALL
GASTEIGER

@<TRIPOS>ATOM
      1  C          5.2680   -0.0950    2.0060 C.3     1  UNL1        0.0800
      2  C          4.4930    1.1560    1.7760 C.2     1  UNL1        0.1300
      3  C          4.9020    2.1500    0.7470 C.3     1  UNL1        0.0870
      4  O          3.4930    1.4030    2.4310 O.2     1  UNL1       -0.3000
      5  C          6.7340    0.0960    1.6710 C.3     1  UNL1        0.0430
      6  C          7.1220   -0.6540    0.4640 C.2     1  UNL1       -0.0440
      7  C          6.8840   -0.1500   -0.8200 C.2     1  UNL1        0.0080
      8  C          7.7340   -1.8800    0.5900 C.2     1  UNL1        0.0540
      9  C          7.2710   -0.8990   -1.9170 C.2     1  UNL1        0.0510
     10  C          8.1230   -2.6330   -0.5220 C.2     1  UNL1        0.1660
     11  C          7.8890   -2.1380   -1.7860 C.2     1  UNL1        0.1650
     12  O          8.7380   -3.8600   -0.6580 O.2     1  UNL1       -0.4540
     13  O          8.3710   -3.0800   -2.6810 O.2     1  UNL1       -0.4540
     14  C          8.9990   -4.1460   -2.0090 C.3     1  UNL1        0.4680
@<TRIPOS>BOND
     1    13    14    1
     2    13    11    1
     3    14    12    1
     4     9    11    2
     5     9     7    1
     6    11    10    1
     7     7     6    2
     8    12    10    1
     9    10     8    2
    10     6     8    1
    11     6     5    1
    12     3     2    1
    13     5     1    1
    14     2     1    1
    15     2     4    2
