@<TRIPOS>MOLECULE
/home/cewinharhar/GITHUB/reincatalyze/data/processed/docking_pred/2023-May-31-1438_sub9_nm5_bs15_s42_ex16_mel10_mts1000_k50_ec05_g099_lra9e-4_lrc3e-3/7ac8f9624e71b352d93dccd4dc48cb56e96c53c0_ligand_9.pdbqt
 14 15 0 0 0
SMALL
GASTEIGER

@<TRIPOS>ATOM
      1  C          5.5300    1.9210    1.2740 C.3     1  UNL1        0.0800
      2  C          5.0830    0.7030    2.0060 C.2     1  UNL1        0.1300
      3  C          5.9720   -0.4780    2.1710 C.3     1  UNL1        0.0870
      4  O          3.9670    0.6400    2.4940 O.2     1  UNL1       -0.3000
      5  C          5.4020    1.7400   -0.2260 C.3     1  UNL1        0.0430
      6  C          6.5670    1.0380   -0.7930 C.2     1  UNL1       -0.0440
      7  C          7.8750    1.4750   -0.5510 C.2     1  UNL1        0.0080
      8  C          6.3770   -0.0770   -1.5770 C.2     1  UNL1        0.0540
      9  C          8.9300    0.7760   -1.1090 C.2     1  UNL1        0.0510
     10  C          7.4470   -0.7800   -2.1380 C.2     1  UNL1        0.1660
     11  C          8.7340   -0.3500   -1.9020 C.2     1  UNL1        0.1650
     12  O          7.5190   -1.8990   -2.9410 O.2     1  UNL1       -0.4540
     13  O          9.5780   -1.2230   -2.5710 O.2     1  UNL1       -0.4540
     14  C          8.8540   -2.2720   -3.1680 C.3     1  UNL1        0.4680
@<TRIPOS>BOND
     1    14    12    1
     2    14    13    1
     3    12    10    1
     4    13    11    1
     5    10    11    2
     6    10     8    1
     7    11     9    1
     8     8     6    2
     9     9     7    2
    10     6     7    1
    11     6     5    1
    12     5     1    1
    13     1     2    1
    14     2     3    1
    15     2     4    2
