MODEL 1
REMARK VINA RESULT:      -7.7      0.000      0.000
REMARK SMILES CC(=O)CCc1ccc2c(c1)OCO2
REMARK SMILES IDX 4 1 2 2 1 3 3 4 5 5 6 6 7 7 11 8 8 9 10 10 9 11 12 12 14 13
REMARK SMILES IDX 13 14
REMARK H PARENT
REMARK Flexibility Score: inf
ROOT
ATOM      1  C   UNL     1       5.530   1.921   1.274  1.00  0.00     0.080 C 
ENDROOT
BRANCH   1   2
ATOM      2  C   UNL     1       5.083   0.703   2.006  1.00  0.00     0.130 C 
ATOM      3  C   UNL     1       5.972  -0.478   2.171  1.00  0.00     0.087 C 
ATOM      4  O   UNL     1       3.967   0.640   2.494  1.00  0.00    -0.300 OA
ENDBRANCH   1   2
BRANCH   1   5
ATOM      5  C   UNL     1       5.402   1.740  -0.226  1.00  0.00     0.043 C 
BRANCH   5   6
ATOM      6  C   UNL     1       6.567   1.038  -0.793  1.00  0.00    -0.044 A 
ATOM      7  C   UNL     1       7.875   1.475  -0.551  1.00  0.00     0.008 A 
ATOM      8  C   UNL     1       6.377  -0.077  -1.577  1.00  0.00     0.054 A 
ATOM      9  C   UNL     1       8.930   0.776  -1.109  1.00  0.00     0.051 A 
ATOM     10  C   UNL     1       7.447  -0.780  -2.138  1.00  0.00     0.166 A 
ATOM     11  C   UNL     1       8.734  -0.350  -1.902  1.00  0.00     0.165 A 
ATOM     12  O   UNL     1       7.519  -1.899  -2.941  1.00  0.00    -0.454 OA
ATOM     13  O   UNL     1       9.578  -1.223  -2.571  1.00  0.00    -0.454 OA
ATOM     14  C   UNL     1       8.854  -2.272  -3.168  1.00  0.00     0.468 C 
ENDBRANCH   5   6
ENDBRANCH   1   5
TORSDOF 3
ENDMDL
MODEL 2
REMARK VINA RESULT:      -7.2      1.260      1.481
REMARK SMILES CC(=O)CCc1ccc2c(c1)OCO2
REMARK SMILES IDX 4 1 2 2 1 3 3 4 5 5 6 6 7 7 11 8 8 9 10 10 9 11 12 12 14 13
REMARK SMILES IDX 13 14
REMARK H PARENT
REMARK Flexibility Score: inf
ROOT
ATOM      1  C   UNL     1       6.402   1.188   0.942  1.00  0.00     0.080 C 
ENDROOT
BRANCH   1   2
ATOM      2  C   UNL     1       5.657   0.363   1.933  1.00  0.00     0.130 C 
ATOM      3  C   UNL     1       6.234  -0.885   2.501  1.00  0.00     0.087 C 
ATOM      4  O   UNL     1       4.544   0.690   2.311  1.00  0.00    -0.300 OA
ENDBRANCH   1   2
BRANCH   1   5
ATOM      5  C   UNL     1       5.899   0.942  -0.467  1.00  0.00     0.043 C 
BRANCH   5   6
ATOM      6  C   UNL     1       6.831   0.105  -1.242  1.00  0.00    -0.044 A 
ATOM      7  C   UNL     1       7.506   0.604  -2.363  1.00  0.00     0.008 A 
ATOM      8  C   UNL     1       7.054  -1.199  -0.863  1.00  0.00     0.054 A 
ATOM      9  C   UNL     1       8.370  -0.229  -3.051  1.00  0.00     0.051 A 
ATOM     10  C   UNL     1       7.929  -2.036  -1.562  1.00  0.00     0.166 A 
ATOM     11  C   UNL     1       8.592  -1.547  -2.665  1.00  0.00     0.165 A 
ATOM     12  O   UNL     1       8.313  -3.349  -1.388  1.00  0.00    -0.454 OA
ATOM     13  O   UNL     1       9.379  -2.580  -3.150  1.00  0.00    -0.454 OA
ATOM     14  C   UNL     1       9.302  -3.712  -2.317  1.00  0.00     0.468 C 
ENDBRANCH   5   6
ENDBRANCH   1   5
TORSDOF 3
ENDMDL
MODEL 3
REMARK VINA RESULT:      -7.0      1.658      2.081
REMARK SMILES CC(=O)CCc1ccc2c(c1)OCO2
REMARK SMILES IDX 4 1 2 2 1 3 3 4 5 5 6 6 7 7 11 8 8 9 10 10 9 11 12 12 14 13
REMARK SMILES IDX 13 14
REMARK H PARENT
REMARK Flexibility Score: inf
ROOT
ATOM      1  C   UNL     1       5.683   1.734  -0.091  1.00  0.00     0.080 C 
ENDROOT
BRANCH   1   2
ATOM      2  C   UNL     1       5.030   1.330   1.185  1.00  0.00     0.130 C 
ATOM      3  C   UNL     1       5.502   0.154   1.965  1.00  0.00     0.087 C 
ATOM      4  O   UNL     1       4.082   1.957   1.631  1.00  0.00    -0.300 OA
ENDBRANCH   1   2
BRANCH   1   5
ATOM      5  C   UNL     1       7.167   1.426  -0.072  1.00  0.00     0.043 C 
BRANCH   5   6
ATOM      6  C   UNL     1       7.477   0.187  -0.808  1.00  0.00    -0.044 A 
ATOM      7  C   UNL     1       7.392   0.123  -2.204  1.00  0.00     0.008 A 
ATOM      8  C   UNL     1       7.864  -0.938  -0.117  1.00  0.00     0.054 A 
ATOM      9  C   UNL     1       7.696  -1.066  -2.841  1.00  0.00     0.051 A 
ATOM     10  C   UNL     1       8.171  -2.138  -0.766  1.00  0.00     0.166 A 
ATOM     11  C   UNL     1       8.086  -2.203  -2.139  1.00  0.00     0.165 A 
ATOM     12  O   UNL     1       8.572  -3.376  -0.311  1.00  0.00    -0.454 OA
ATOM     13  O   UNL     1       8.441  -3.492  -2.502  1.00  0.00    -0.454 OA
ATOM     14  C   UNL     1       8.845  -4.243  -1.382  1.00  0.00     0.468 C 
ENDBRANCH   5   6
ENDBRANCH   1   5
TORSDOF 3
ENDMDL
MODEL 4
REMARK VINA RESULT:      -6.9      1.753      2.382
REMARK SMILES CC(=O)CCc1ccc2c(c1)OCO2
REMARK SMILES IDX 4 1 2 2 1 3 3 4 5 5 6 6 7 7 11 8 8 9 10 10 9 11 12 12 14 13
REMARK SMILES IDX 13 14
REMARK H PARENT
REMARK Flexibility Score: inf
ROOT
ATOM      1  C   UNL     1       5.268  -0.095   2.006  1.00  0.00     0.080 C 
ENDROOT
BRANCH   1   2
ATOM      2  C   UNL     1       4.493   1.156   1.776  1.00  0.00     0.130 C 
ATOM      3  C   UNL     1       4.902   2.150   0.747  1.00  0.00     0.087 C 
ATOM      4  O   UNL     1       3.493   1.403   2.431  1.00  0.00    -0.300 OA
ENDBRANCH   1   2
BRANCH   1   5
ATOM      5  C   UNL     1       6.734   0.096   1.671  1.00  0.00     0.043 C 
BRANCH   5   6
ATOM      6  C   UNL     1       7.122  -0.654   0.464  1.00  0.00    -0.044 A 
ATOM      7  C   UNL     1       6.884  -0.150  -0.820  1.00  0.00     0.008 A 
ATOM      8  C   UNL     1       7.734  -1.880   0.590  1.00  0.00     0.054 A 
ATOM      9  C   UNL     1       7.271  -0.899  -1.917  1.00  0.00     0.051 A 
ATOM     10  C   UNL     1       8.123  -2.633  -0.522  1.00  0.00     0.166 A 
ATOM     11  C   UNL     1       7.889  -2.138  -1.786  1.00  0.00     0.165 A 
ATOM     12  O   UNL     1       8.738  -3.860  -0.658  1.00  0.00    -0.454 OA
ATOM     13  O   UNL     1       8.371  -3.080  -2.681  1.00  0.00    -0.454 OA
ATOM     14  C   UNL     1       8.999  -4.146  -2.009  1.00  0.00     0.468 C 
ENDBRANCH   5   6
ENDBRANCH   1   5
TORSDOF 3
ENDMDL
MODEL 5
REMARK VINA RESULT:      -6.8      1.192      5.166
REMARK SMILES CC(=O)CCc1ccc2c(c1)OCO2
REMARK SMILES IDX 4 1 2 2 1 3 3 4 5 5 6 6 7 7 11 8 8 9 10 10 9 11 12 12 14 13
REMARK SMILES IDX 13 14
REMARK H PARENT
REMARK Flexibility Score: inf
ROOT
ATOM      1  C   UNL     1       8.349   0.185  -2.678  1.00  0.00     0.080 C 
ENDROOT
BRANCH   1   2
ATOM      2  C   UNL     1       8.063  -1.274  -2.767  1.00  0.00     0.130 C 
ATOM      3  C   UNL     1       9.139  -2.266  -3.029  1.00  0.00     0.087 C 
ATOM      4  O   UNL     1       6.928  -1.699  -2.626  1.00  0.00    -0.300 OA
ENDBRANCH   1   2
BRANCH   1   5
ATOM      5  C   UNL     1       8.877   0.560  -1.307  1.00  0.00     0.043 C 
BRANCH   5   6
ATOM      6  C   UNL     1       7.842   0.421  -0.266  1.00  0.00    -0.044 A 
ATOM      7  C   UNL     1       7.948  -0.536   0.749  1.00  0.00     0.008 A 
ATOM      8  C   UNL     1       6.742   1.248  -0.283  1.00  0.00     0.054 A 
ATOM      9  C   UNL     1       6.946  -0.621   1.699  1.00  0.00     0.051 A 
ATOM     10  C   UNL     1       5.732   1.159   0.680  1.00  0.00     0.166 A 
ATOM     11  C   UNL     1       5.835   0.217   1.679  1.00  0.00     0.165 A 
ATOM     12  O   UNL     1       4.558   1.854   0.877  1.00  0.00    -0.454 OA
ATOM     13  O   UNL     1       4.711   0.355   2.478  1.00  0.00    -0.454 OA
ATOM     14  C   UNL     1       3.920   1.441   2.058  1.00  0.00     0.468 C 
ENDBRANCH   5   6
ENDBRANCH   1   5
TORSDOF 3
ENDMDL
