@<TRIPOS>MOLECULE
/home/cewinharhar/GITHUB/reincatalyze/data/processed/docking_pred/2023-May-31-1438_sub9_nm5_bs15_s42_ex16_mel10_mts1000_k50_ec05_g099_lra9e-4_lrc3e-3/7ac8f9624e71b352d93dccd4dc48cb56e96c53c0_ligand_9.pdbqt
 14 15 0 0 0
SMALL
GASTEIGER

@<TRIPOS>ATOM
      1  C          6.4020    1.1880    0.9420 C.3     1  UNL1        0.0800
      2  C          5.6570    0.3630    1.9330 C.2     1  UNL1        0.1300
      3  C          6.2340   -0.8850    2.5010 C.3     1  UNL1        0.0870
      4  O          4.5440    0.6900    2.3110 O.2     1  UNL1       -0.3000
      5  C          5.8990    0.9420   -0.4670 C.3     1  UNL1        0.0430
      6  C          6.8310    0.1050   -1.2420 C.2     1  UNL1       -0.0440
      7  C          7.5060    0.6040   -2.3630 C.2     1  UNL1        0.0080
      8  C          7.0540   -1.1990   -0.8630 C.2     1  UNL1        0.0540
      9  C          8.3700   -0.2290   -3.0510 C.2     1  UNL1        0.0510
     10  C          7.9290   -2.0360   -1.5620 C.2     1  UNL1        0.1660
     11  C          8.5920   -1.5470   -2.6650 C.2     1  UNL1        0.1650
     12  O          8.3130   -3.3490   -1.3880 O.2     1  UNL1       -0.4540
     13  O          9.3790   -2.5800   -3.1500 O.2     1  UNL1       -0.4540
     14  C          9.3020   -3.7120   -2.3170 C.3     1  UNL1        0.4680
@<TRIPOS>BOND
     1    13    11    1
     2    13    14    1
     3     9    11    2
     4     9     7    1
     5    11    10    1
     6     7     6    2
     7    14    12    1
     8    10    12    1
     9    10     8    2
    10     6     8    1
    11     6     5    1
    12     5     1    1
    13     1     2    1
    14     2     4    2
    15     2     3    1
