@<TRIPOS>MOLECULE
/home/cewinharhar/GITHUB/reincatalyze/data/processed/docking_pred/2023-May-31-1438_sub9_nm5_bs15_s42_ex16_mel10_mts1000_k50_ec05_g099_lra9e-4_lrc3e-3/7ac8f9624e71b352d93dccd4dc48cb56e96c53c0_ligand_9.pdbqt
 14 15 0 0 0
SMALL
GASTEIGER

@<TRIPOS>ATOM
      1  C          5.6830    1.7340   -0.0910 C.3     1  UNL1        0.0800
      2  C          5.0300    1.3300    1.1850 C.2     1  UNL1        0.1300
      3  C          5.5020    0.1540    1.9650 C.3     1  UNL1        0.0870
      4  O          4.0820    1.9570    1.6310 O.2     1  UNL1       -0.3000
      5  C          7.1670    1.4260   -0.0720 C.3     1  UNL1        0.0430
      6  C          7.4770    0.1870   -0.8080 C.2     1  UNL1       -0.0440
      7  C          7.3920    0.1230   -2.2040 C.2     1  UNL1        0.0080
      8  C          7.8640   -0.9380   -0.1170 C.2     1  UNL1        0.0540
      9  C          7.6960   -1.0660   -2.8410 C.2     1  UNL1        0.0510
     10  C          8.1710   -2.1380   -0.7660 C.2     1  UNL1        0.1660
     11  C          8.0860   -2.2030   -2.1390 C.2     1  UNL1        0.1650
     12  O          8.5720   -3.3760   -0.3110 O.2     1  UNL1       -0.4540
     13  O          8.4410   -3.4920   -2.5020 O.2     1  UNL1       -0.4540
     14  C          8.8450   -4.2430   -1.3820 C.3     1  UNL1        0.4680
@<TRIPOS>BOND
     1     9     7    1
     2     9    11    2
     3    13    11    1
     4    13    14    1
     5     7     6    2
     6    11    10    1
     7    14    12    1
     8     6     8    1
     9     6     5    1
    10    10    12    1
    11    10     8    2
    12     1     5    1
    13     1     2    1
    14     2     4    2
    15     2     3    1
