@<TRIPOS>MOLECULE
/home/cewinharhar/GITHUB/reincatalyze/data/processed/docking_pred/2023-May-31-1438_sub9_nm5_bs15_s42_ex16_mel10_mts1000_k50_ec05_g099_lra9e-4_lrc3e-3/7ac8f9624e71b352d93dccd4dc48cb56e96c53c0_ligand_9.pdbqt
 14 15 0 0 0
SMALL
GASTEIGER

@<TRIPOS>ATOM
      1  C          8.3490    0.1850   -2.6780 C.3     1  UNL1        0.0800
      2  C          8.0630   -1.2740   -2.7670 C.2     1  UNL1        0.1300
      3  C          9.1390   -2.2660   -3.0290 C.3     1  UNL1        0.0870
      4  O          6.9280   -1.6990   -2.6260 O.2     1  UNL1       -0.3000
      5  C          8.8770    0.5600   -1.3070 C.3     1  UNL1        0.0430
      6  C          7.8420    0.4210   -0.2660 C.2     1  UNL1       -0.0440
      7  C          7.9480   -0.5360    0.7490 C.2     1  UNL1        0.0080
      8  C          6.7420    1.2480   -0.2830 C.2     1  UNL1        0.0540
      9  C          6.9460   -0.6210    1.6990 C.2     1  UNL1        0.0510
     10  C          5.7320    1.1590    0.6800 C.2     1  UNL1        0.1660
     11  C          5.8350    0.2170    1.6790 C.2     1  UNL1        0.1650
     12  O          4.5580    1.8540    0.8770 O.2     1  UNL1       -0.4540
     13  O          4.7110    0.3550    2.4780 O.2     1  UNL1       -0.4540
     14  C          3.9200    1.4410    2.0580 C.3     1  UNL1        0.4680
@<TRIPOS>BOND
     1     3     2    1
     2     2     1    1
     3     2     4    2
     4     1     5    1
     5     5     6    1
     6     8     6    2
     7     8    10    1
     8     6     7    1
     9    10    12    1
    10    10    11    2
    11     7     9    2
    12    12    14    1
    13    11     9    1
    14    11    13    1
    15    14    13    1
