@<TRIPOS>MOLECULE
/home/cewinharhar/GITHUB/reincatalyze/data/processed/docking_pred/2023-May-31-1438_sub9_nm5_bs15_s42_ex16_mel10_mts1000_k50_ec05_g099_lra9e-4_lrc3e-3/7ba75be08c43ea86cc28c7ec4419fe088268ffef_ligand_9.pdbqt
 14 15 0 0 0
SMALL
GASTEIGER

@<TRIPOS>ATOM
      1  C          5.7490    1.4090   -0.3190 C.3     1  UNL1        0.0800
      2  C          5.1820    1.2920    1.0530 C.2     1  UNL1        0.1300
      3  C          5.4970    0.1340    1.9320 C.3     1  UNL1        0.0870
      4  O          4.4350    2.1490    1.4980 O.2     1  UNL1       -0.3000
      5  C          7.2480    1.1830   -0.3160 C.3     1  UNL1        0.0430
      6  C          7.6060   -0.1140   -0.9170 C.2     1  UNL1       -0.0440
      7  C          7.6470   -0.2930   -2.3050 C.2     1  UNL1        0.0080
      8  C          7.9110   -1.1820   -0.1040 C.2     1  UNL1        0.0540
      9  C          7.9900   -1.5330   -2.8120 C.2     1  UNL1        0.0510
     10  C          8.2590   -2.4340   -0.6220 C.2     1  UNL1        0.1660
     11  C          8.2980   -2.6100   -1.9870 C.2     1  UNL1        0.1650
     12  O          8.5980   -3.6330   -0.0330 O.2     1  UNL1       -0.4540
     13  O          8.6660   -3.9280   -2.2100 O.2     1  UNL1       -0.4540
     14  C          8.9550   -4.5870   -1.0000 C.3     1  UNL1        0.4680
@<TRIPOS>BOND
     1     9     7    1
     2     9    11    2
     3     7     6    2
     4    13    11    1
     5    13    14    1
     6    11    10    1
     7    14    12    1
     8     6     5    1
     9     6     8    1
    10    10     8    2
    11    10    12    1
    12     1     5    1
    13     1     2    1
    14     2     4    2
    15     2     3    1
