MODEL 1
REMARK VINA RESULT:      -7.6      0.000      0.000
REMARK SMILES CC(=O)CCc1ccc2c(c1)OCO2
REMARK SMILES IDX 4 1 2 2 1 3 3 4 5 5 6 6 7 7 11 8 8 9 10 10 9 11 12 12 14 13
REMARK SMILES IDX 13 14
REMARK H PARENT
REMARK Flexibility Score: inf
ROOT
ATOM      1  C   UNL     1       5.531   1.923   1.268  1.00  0.00     0.080 C 
ENDROOT
BRANCH   1   2
ATOM      2  C   UNL     1       5.096   0.704   2.006  1.00  0.00     0.130 C 
ATOM      3  C   UNL     1       5.999  -0.464   2.185  1.00  0.00     0.087 C 
ATOM      4  O   UNL     1       3.977   0.630   2.487  1.00  0.00    -0.300 OA
ENDBRANCH   1   2
BRANCH   1   5
ATOM      5  C   UNL     1       5.404   1.733  -0.231  1.00  0.00     0.043 C 
BRANCH   5   6
ATOM      6  C   UNL     1       6.569   1.029  -0.794  1.00  0.00    -0.044 A 
ATOM      7  C   UNL     1       7.877   1.459  -0.544  1.00  0.00     0.008 A 
ATOM      8  C   UNL     1       6.378  -0.083  -1.583  1.00  0.00     0.054 A 
ATOM      9  C   UNL     1       8.932   0.758  -1.099  1.00  0.00     0.051 A 
ATOM     10  C   UNL     1       7.448  -0.789  -2.141  1.00  0.00     0.166 A 
ATOM     11  C   UNL     1       8.736  -0.365  -1.897  1.00  0.00     0.165 A 
ATOM     12  O   UNL     1       7.519  -1.906  -2.947  1.00  0.00    -0.454 OA
ATOM     13  O   UNL     1       9.579  -1.240  -2.564  1.00  0.00    -0.454 OA
ATOM     14  C   UNL     1       8.853  -2.284  -3.168  1.00  0.00     0.468 C 
ENDBRANCH   5   6
ENDBRANCH   1   5
TORSDOF 3
ENDMDL
MODEL 2
REMARK VINA RESULT:      -7.4      1.880      2.347
REMARK SMILES CC(=O)CCc1ccc2c(c1)OCO2
REMARK SMILES IDX 4 1 2 2 1 3 3 4 5 5 6 6 7 7 11 8 8 9 10 10 9 11 12 12 14 13
REMARK SMILES IDX 13 14
REMARK H PARENT
REMARK Flexibility Score: inf
ROOT
ATOM      1  C   UNL     1       5.749   1.409  -0.319  1.00  0.00     0.080 C 
ENDROOT
BRANCH   1   2
ATOM      2  C   UNL     1       5.182   1.292   1.053  1.00  0.00     0.130 C 
ATOM      3  C   UNL     1       5.497   0.134   1.932  1.00  0.00     0.087 C 
ATOM      4  O   UNL     1       4.435   2.149   1.498  1.00  0.00    -0.300 OA
ENDBRANCH   1   2
BRANCH   1   5
ATOM      5  C   UNL     1       7.248   1.183  -0.316  1.00  0.00     0.043 C 
BRANCH   5   6
ATOM      6  C   UNL     1       7.606  -0.114  -0.917  1.00  0.00    -0.044 A 
ATOM      7  C   UNL     1       7.647  -0.293  -2.305  1.00  0.00     0.008 A 
ATOM      8  C   UNL     1       7.911  -1.182  -0.104  1.00  0.00     0.054 A 
ATOM      9  C   UNL     1       7.990  -1.533  -2.812  1.00  0.00     0.051 A 
ATOM     10  C   UNL     1       8.259  -2.434  -0.622  1.00  0.00     0.166 A 
ATOM     11  C   UNL     1       8.298  -2.610  -1.987  1.00  0.00     0.165 A 
ATOM     12  O   UNL     1       8.598  -3.633  -0.033  1.00  0.00    -0.454 OA
ATOM     13  O   UNL     1       8.666  -3.928  -2.210  1.00  0.00    -0.454 OA
ATOM     14  C   UNL     1       8.955  -4.587  -1.000  1.00  0.00     0.468 C 
ENDBRANCH   5   6
ENDBRANCH   1   5
TORSDOF 3
ENDMDL
MODEL 3
REMARK VINA RESULT:      -7.2      2.094      2.639
REMARK SMILES CC(=O)CCc1ccc2c(c1)OCO2
REMARK SMILES IDX 4 1 2 2 1 3 3 4 5 5 6 6 7 7 11 8 8 9 10 10 9 11 12 12 14 13
REMARK SMILES IDX 13 14
REMARK H PARENT
REMARK Flexibility Score: inf
ROOT
ATOM      1  C   UNL     1       5.531  -0.035   1.916  1.00  0.00     0.080 C 
ENDROOT
BRANCH   1   2
ATOM      2  C   UNL     1       4.666   1.143   1.629  1.00  0.00     0.130 C 
ATOM      3  C   UNL     1       4.978   2.091   0.526  1.00  0.00     0.087 C 
ATOM      4  O   UNL     1       3.669   1.366   2.296  1.00  0.00    -0.300 OA
ENDBRANCH   1   2
BRANCH   1   5
ATOM      5  C   UNL     1       6.958   0.207   1.466  1.00  0.00     0.043 C 
BRANCH   5   6
ATOM      6  C   UNL     1       7.372  -0.750   0.424  1.00  0.00    -0.044 A 
ATOM      7  C   UNL     1       7.269  -0.441  -0.937  1.00  0.00     0.008 A 
ATOM      8  C   UNL     1       7.876  -1.978   0.787  1.00  0.00     0.054 A 
ATOM      9  C   UNL     1       7.674  -1.378  -1.870  1.00  0.00     0.051 A 
ATOM     10  C   UNL     1       8.285  -2.922  -0.160  1.00  0.00     0.166 A 
ATOM     11  C   UNL     1       8.183  -2.619  -1.500  1.00  0.00     0.165 A 
ATOM     12  O   UNL     1       8.810  -4.192  -0.055  1.00  0.00    -0.454 OA
ATOM     13  O   UNL     1       8.653  -3.721  -2.196  1.00  0.00    -0.454 OA
ATOM     14  C   UNL     1       9.146  -4.705  -1.318  1.00  0.00     0.468 C 
ENDBRANCH   5   6
ENDBRANCH   1   5
TORSDOF 3
ENDMDL
MODEL 4
REMARK VINA RESULT:      -7.1      1.244      1.447
REMARK SMILES CC(=O)CCc1ccc2c(c1)OCO2
REMARK SMILES IDX 4 1 2 2 1 3 3 4 5 5 6 6 7 7 11 8 8 9 10 10 9 11 12 12 14 13
REMARK SMILES IDX 13 14
REMARK H PARENT
REMARK Flexibility Score: inf
ROOT
ATOM      1  C   UNL     1       6.349   1.246   0.867  1.00  0.00     0.080 C 
ENDROOT
BRANCH   1   2
ATOM      2  C   UNL     1       5.661   0.434   1.909  1.00  0.00     0.130 C 
ATOM      3  C   UNL     1       6.279  -0.794   2.476  1.00  0.00     0.087 C 
ATOM      4  O   UNL     1       4.562   0.757   2.330  1.00  0.00    -0.300 OA
ENDBRANCH   1   2
BRANCH   1   5
ATOM      5  C   UNL     1       5.836   0.911  -0.520  1.00  0.00     0.043 C 
BRANCH   5   6
ATOM      6  C   UNL     1       6.803   0.097  -1.278  1.00  0.00    -0.044 A 
ATOM      7  C   UNL     1       7.520   0.628  -2.357  1.00  0.00     0.008 A 
ATOM      8  C   UNL     1       7.016  -1.215  -0.924  1.00  0.00     0.054 A 
ATOM      9  C   UNL     1       8.415  -0.183  -3.031  1.00  0.00     0.051 A 
ATOM     10  C   UNL     1       7.923  -2.031  -1.608  1.00  0.00     0.166 A 
ATOM     11  C   UNL     1       8.627  -1.510  -2.671  1.00  0.00     0.165 A 
ATOM     12  O   UNL     1       8.306  -3.346  -1.453  1.00  0.00    -0.454 OA
ATOM     13  O   UNL     1       9.438  -2.527  -3.151  1.00  0.00    -0.454 OA
ATOM     14  C   UNL     1       9.333  -3.681  -2.351  1.00  0.00     0.468 C 
ENDBRANCH   5   6
ENDBRANCH   1   5
TORSDOF 3
ENDMDL
MODEL 5
REMARK VINA RESULT:      -7.0      2.000      2.585
REMARK SMILES CC(=O)CCc1ccc2c(c1)OCO2
REMARK SMILES IDX 4 1 2 2 1 3 3 4 5 5 6 6 7 7 11 8 8 9 10 10 9 11 12 12 14 13
REMARK SMILES IDX 13 14
REMARK H PARENT
REMARK Flexibility Score: inf
ROOT
ATOM      1  C   UNL     1       6.777   0.587   1.259  1.00  0.00     0.080 C 
ENDROOT
BRANCH   1   2
ATOM      2  C   UNL     1       5.392   1.110   1.426  1.00  0.00     0.130 C 
ATOM      3  C   UNL     1       4.835   2.149   0.520  1.00  0.00     0.087 C 
ATOM      4  O   UNL     1       4.670   0.697   2.319  1.00  0.00    -0.300 OA
ENDBRANCH   1   2
BRANCH   1   5
ATOM      5  C   UNL     1       7.290   0.827  -0.147  1.00  0.00     0.043 C 
BRANCH   5   6
ATOM      6  C   UNL     1       7.719  -0.427  -0.793  1.00  0.00    -0.044 A 
ATOM      7  C   UNL     1       7.913  -0.509  -2.176  1.00  0.00     0.008 A 
ATOM      8  C   UNL     1       7.941  -1.548  -0.026  1.00  0.00     0.054 A 
ATOM      9  C   UNL     1       8.318  -1.712  -2.726  1.00  0.00     0.051 A 
ATOM     10  C   UNL     1       8.350  -2.761  -0.587  1.00  0.00     0.166 A 
ATOM     11  C   UNL     1       8.540  -2.844  -1.948  1.00  0.00     0.165 A 
ATOM     12  O   UNL     1       8.631  -3.999  -0.047  1.00  0.00    -0.454 OA
ATOM     13  O   UNL     1       8.939  -4.144  -2.219  1.00  0.00    -0.454 OA
ATOM     14  C   UNL     1       9.097  -4.885  -1.033  1.00  0.00     0.468 C 
ENDBRANCH   5   6
ENDBRANCH   1   5
TORSDOF 3
ENDMDL
