@<TRIPOS>MOLECULE
/home/cewinharhar/GITHUB/reincatalyze/data/processed/docking_pred/2023-May-31-1438_sub9_nm5_bs15_s42_ex16_mel10_mts1000_k50_ec05_g099_lra9e-4_lrc3e-3/7c86502248d8ce059d377094dc2c2500eee92fd7_ligand_9.pdbqt
 14 15 0 0 0
SMALL
GASTEIGER

@<TRIPOS>ATOM
      1  C          5.4380   -0.0340    2.0270 C.3     1  UNL1        0.0800
      2  C          4.5700    1.1480    1.7670 C.2     1  UNL1        0.1300
      3  C          4.8930    2.1340    0.7010 C.3     1  UNL1        0.0870
      4  O          3.5620    1.3420    2.4270 O.2     1  UNL1       -0.3000
      5  C          6.8660    0.2240    1.5890 C.3     1  UNL1        0.0430
      6  C          7.2900   -0.7070    0.5280 C.2     1  UNL1       -0.0440
      7  C          7.1680   -0.3790   -0.8270 C.2     1  UNL1        0.0080
      8  C          7.8210   -1.9310    0.8670 C.2     1  UNL1        0.0540
      9  C          7.5830   -1.2930   -1.7780 C.2     1  UNL1        0.0510
     10  C          8.2400   -2.8510   -0.0990 C.2     1  UNL1        0.1660
     11  C          8.1190   -2.5300   -1.4320 C.2     1  UNL1        0.1650
     12  O          8.7910   -4.1120   -0.0180 O.2     1  UNL1       -0.4540
     13  O          8.6050   -3.6110   -2.1510 O.2     1  UNL1       -0.4540
     14  C          9.1250   -4.5990   -1.2930 C.3     1  UNL1        0.4680
@<TRIPOS>BOND
     1    13    11    1
     2    13    14    1
     3     9    11    2
     4     9     7    1
     5    11    10    1
     6    14    12    1
     7     7     6    2
     8    10    12    1
     9    10     8    2
    10     6     8    1
    11     6     5    1
    12     3     2    1
    13     5     1    1
    14     2     1    1
    15     2     4    2
