@<TRIPOS>MOLECULE
/home/cewinharhar/GITHUB/reincatalyze/data/processed/docking_pred/2023-May-31-1438_sub9_nm5_bs15_s42_ex16_mel10_mts1000_k50_ec05_g099_lra9e-4_lrc3e-3/7c86502248d8ce059d377094dc2c2500eee92fd7_ligand_9.pdbqt
 14 15 0 0 0
SMALL
GASTEIGER

@<TRIPOS>ATOM
      1  C          5.7390    1.3140   -0.3180 C.3     1  UNL1        0.0800
      2  C          5.1290    1.2530    1.0390 C.2     1  UNL1        0.1300
      3  C          5.3720    0.1050    1.9530 C.3     1  UNL1        0.0870
      4  O          4.4060    2.1500    1.4430 O.2     1  UNL1       -0.3000
      5  C          7.2370    1.0870   -0.2600 C.3     1  UNL1        0.0430
      6  C          7.6170   -0.2010   -0.8660 C.2     1  UNL1       -0.0440
      7  C          7.7130   -0.3580   -2.2540 C.2     1  UNL1        0.0080
      8  C          7.8900   -1.2820   -0.0590 C.2     1  UNL1        0.0540
      9  C          8.0760   -1.5910   -2.7660 C.2     1  UNL1        0.0510
     10  C          8.2570   -2.5260   -0.5820 C.2     1  UNL1        0.1660
     11  C          8.3500   -2.6810   -1.9470 C.2     1  UNL1        0.1650
     12  O          8.5730   -3.7340    0.0020 O.2     1  UNL1       -0.4540
     13  O          8.7260   -3.9950   -2.1760 O.2     1  UNL1       -0.4540
     14  C          8.9670   -4.6730   -0.9660 C.3     1  UNL1        0.4680
@<TRIPOS>BOND
     1     9     7    1
     2     9    11    2
     3     7     6    2
     4    13    11    1
     5    13    14    1
     6    11    10    1
     7    14    12    1
     8     6     5    1
     9     6     8    1
    10    10     8    2
    11    10    12    1
    12     1     5    1
    13     1     2    1
    14     2     4    2
    15     2     3    1
