@<TRIPOS>MOLECULE
/home/cewinharhar/GITHUB/reincatalyze/data/processed/docking_pred/2023-May-31-1438_sub9_nm5_bs15_s42_ex16_mel10_mts1000_k50_ec05_g099_lra9e-4_lrc3e-3/7d60c2a66717a3f4b6d307e9593656cfb0aaeeb8_ligand_9.pdbqt
 14 15 0 0 0
SMALL
GASTEIGER

@<TRIPOS>ATOM
      1  C          6.4820    0.8980    1.1650 C.3     1  UNL1        0.0800
      2  C          5.2280    1.6190    0.8140 C.2     1  UNL1        0.1300
      3  C          4.9890    2.1500   -0.5550 C.3     1  UNL1        0.0870
      4  O          4.3530    1.7970    1.6460 O.2     1  UNL1       -0.3000
      5  C          7.5380    1.0730    0.0910 C.3     1  UNL1        0.0430
      6  C          7.8250   -0.1940   -0.6040 C.2     1  UNL1       -0.0440
      7  C          7.8630   -0.2710   -2.0010 C.2     1  UNL1        0.0080
      8  C          8.0660   -1.3350    0.1270 C.2     1  UNL1        0.0540
      9  C          8.1390   -1.4870   -2.5990 C.2     1  UNL1        0.0510
     10  C          8.3440   -2.5620   -0.4820 C.2     1  UNL1        0.1660
     11  C          8.3810   -2.6390   -1.8560 C.2     1  UNL1        0.1650
     12  O          8.6130   -3.8190    0.0170 O.2     1  UNL1       -0.4540
     13  O          8.6750   -3.9550   -2.1770 O.2     1  UNL1       -0.4540
     14  C          8.9200   -4.7170   -1.0190 C.3     1  UNL1        0.4680
@<TRIPOS>BOND
     1     9     7    1
     2     9    11    2
     3    13    11    1
     4    13    14    1
     5     7     6    2
     6    11    10    1
     7    14    12    1
     8     6     5    1
     9     6     8    1
    10     3     2    1
    11    10    12    1
    12    10     8    2
    13     5     1    1
    14     2     1    1
    15     2     4    2
