@<TRIPOS>MOLECULE
/home/cewinharhar/GITHUB/reincatalyze/data/processed/docking_pred/2023-May-31-1438_sub9_nm5_bs15_s42_ex16_mel10_mts1000_k50_ec05_g099_lra9e-4_lrc3e-3/7d60c2a66717a3f4b6d307e9593656cfb0aaeeb8_ligand_9.pdbqt
 14 15 0 0 0
SMALL
GASTEIGER

@<TRIPOS>ATOM
      1  C          5.6950    1.2670   -0.3070 C.3     1  UNL1        0.0800
      2  C          5.1310    1.2370    1.0720 C.2     1  UNL1        0.1300
      3  C          5.3910    0.1010    1.9960 C.3     1  UNL1        0.0870
      4  O          4.4350    2.1500    1.4840 O.2     1  UNL1       -0.3000
      5  C          7.1990    1.0780   -0.2910 C.3     1  UNL1        0.0430
      6  C          7.5940   -0.2060   -0.8960 C.2     1  UNL1       -0.0440
      7  C          7.6920   -0.3640   -2.2830 C.2     1  UNL1        0.0080
      8  C          7.8800   -1.2820   -0.0870 C.2     1  UNL1        0.0540
      9  C          8.0690   -1.5920   -2.7940 C.2     1  UNL1        0.0510
     10  C          8.2610   -2.5220   -0.6080 C.2     1  UNL1        0.1660
     11  C          8.3560   -2.6790   -1.9730 C.2     1  UNL1        0.1650
     12  O          8.5910   -3.7260   -0.0230 O.2     1  UNL1       -0.4540
     13  O          8.7470   -3.9890   -2.2010 O.2     1  UNL1       -0.4540
     14  C          8.9950   -4.6620   -0.9900 C.3     1  UNL1        0.4680
@<TRIPOS>BOND
     1     9     7    1
     2     9    11    2
     3     7     6    2
     4    13    11    1
     5    13    14    1
     6    11    10    1
     7    14    12    1
     8     6     5    1
     9     6     8    1
    10    10     8    2
    11    10    12    1
    12     1     5    1
    13     1     2    1
    14     2     4    2
    15     2     3    1
