@<TRIPOS>MOLECULE
/home/cewinharhar/GITHUB/reincatalyze/data/processed/docking_pred/2023-May-31-1438_sub9_nm5_bs15_s42_ex16_mel10_mts1000_k50_ec05_g099_lra9e-4_lrc3e-3/7d60c2a66717a3f4b6d307e9593656cfb0aaeeb8_ligand_9.pdbqt
 14 15 0 0 0
SMALL
GASTEIGER

@<TRIPOS>ATOM
      1  C          6.3810    1.1810    0.9070 C.3     1  UNL1        0.0800
      2  C          5.6690    0.3650    1.9290 C.2     1  UNL1        0.1300
      3  C          6.2720   -0.8670    2.5030 C.3     1  UNL1        0.0870
      4  O          4.5610    0.6870    2.3270 O.2     1  UNL1       -0.3000
      5  C          5.8690    0.8850   -0.4890 C.3     1  UNL1        0.0430
      6  C          6.8220    0.0670   -1.2590 C.2     1  UNL1       -0.0440
      7  C          7.5130    0.5870   -2.3590 C.2     1  UNL1        0.0080
      8  C          7.0490   -1.2410   -0.8940 C.2     1  UNL1        0.0540
      9  C          8.3960   -0.2270   -3.0440 C.2     1  UNL1        0.0510
     10  C          7.9430   -2.0600   -1.5890 C.2     1  UNL1        0.1660
     11  C          8.6220   -1.5490   -2.6730 C.2     1  UNL1        0.1650
     12  O          8.3360   -3.3720   -1.4270 O.2     1  UNL1       -0.4540
     13  O          9.4270   -2.5680   -3.1580 O.2     1  UNL1       -0.4540
     14  C          9.3440   -3.7130   -2.3440 C.3     1  UNL1        0.4680
@<TRIPOS>BOND
     1    13    11    1
     2    13    14    1
     3     9    11    2
     4     9     7    1
     5    11    10    1
     6     7     6    2
     7    14    12    1
     8    10    12    1
     9    10     8    2
    10     6     8    1
    11     6     5    1
    12     5     1    1
    13     1     2    1
    14     2     4    2
    15     2     3    1
