@<TRIPOS>MOLECULE
/home/cewinharhar/GITHUB/reincatalyze/data/processed/docking_pred/2023-May-31-1438_sub9_nm5_bs15_s42_ex16_mel10_mts1000_k50_ec05_g099_lra9e-4_lrc3e-3/81487a167534eaf1a49a57d95a0bec7d9495d7bd_ligand_9.pdbqt
 14 15 0 0 0
SMALL
GASTEIGER

@<TRIPOS>ATOM
      1  C          5.5330    1.9110    1.2580 C.3     1  UNL1        0.0800
      2  C          5.0730    0.7040    1.9990 C.2     1  UNL1        0.1300
      3  C          5.9430   -0.4920    2.1600 C.3     1  UNL1        0.0870
      4  O          3.9600    0.6600    2.4980 O.2     1  UNL1       -0.3000
      5  C          5.4040    1.7200   -0.2400 C.3     1  UNL1        0.0430
      6  C          6.5730    1.0220   -0.8040 C.2     1  UNL1       -0.0440
      7  C          7.8780    1.4690   -0.5690 C.2     1  UNL1        0.0080
      8  C          6.3880   -0.1000   -1.5800 C.2     1  UNL1        0.0540
      9  C          8.9360    0.7730   -1.1240 C.2     1  UNL1        0.0510
     10  C          7.4610   -0.8010   -2.1380 C.2     1  UNL1        0.1660
     11  C          8.7460   -0.3610   -1.9090 C.2     1  UNL1        0.1650
     12  O          7.5380   -1.9250   -2.9330 O.2     1  UNL1       -0.4540
     13  O          9.5940   -1.2330   -2.5730 O.2     1  UNL1       -0.4540
     14  C          8.8750   -2.2920   -3.1600 C.3     1  UNL1        0.4680
@<TRIPOS>BOND
     1    14    12    1
     2    14    13    1
     3    12    10    1
     4    13    11    1
     5    10    11    2
     6    10     8    1
     7    11     9    1
     8     8     6    2
     9     9     7    2
    10     6     7    1
    11     6     5    1
    12     5     1    1
    13     1     2    1
    14     2     3    1
    15     2     4    2
