@<TRIPOS>MOLECULE
/home/cewinharhar/GITHUB/reincatalyze/data/processed/docking_pred/2023-May-31-1438_sub9_nm5_bs15_s42_ex16_mel10_mts1000_k50_ec05_g099_lra9e-4_lrc3e-3/81487a167534eaf1a49a57d95a0bec7d9495d7bd_ligand_9.pdbqt
 14 15 0 0 0
SMALL
GASTEIGER

@<TRIPOS>ATOM
      1  C          5.5260   -0.0040    1.9440 C.3     1  UNL1        0.0800
      2  C          4.6470    1.1620    1.6510 C.2     1  UNL1        0.1300
      3  C          4.9470    2.1070    0.5420 C.3     1  UNL1        0.0870
      4  O          3.6470    1.3760    2.3180 O.2     1  UNL1       -0.3000
      5  C          6.9490    0.2510    1.4880 C.3     1  UNL1        0.0430
      6  C          7.3700   -0.7040    0.4480 C.2     1  UNL1       -0.0440
      7  C          7.2950   -0.3860   -0.9130 C.2     1  UNL1        0.0080
      8  C          7.8520   -1.9410    0.8120 C.2     1  UNL1        0.0540
      9  C          7.7040   -1.3230   -1.8450 C.2     1  UNL1        0.0510
     10  C          8.2660   -2.8840   -0.1330 C.2     1  UNL1        0.1660
     11  C          8.1910   -2.5730   -1.4730 C.2     1  UNL1        0.1650
     12  O          8.7730   -4.1620   -0.0260 O.2     1  UNL1       -0.4540
     13  O          8.6600   -3.6760   -2.1680 O.2     1  UNL1       -0.4540
     14  C          9.1240   -4.6720   -1.2870 C.3     1  UNL1        0.4680
@<TRIPOS>BOND
     1    13    11    1
     2    13    14    1
     3     9    11    2
     4     9     7    1
     5    11    10    1
     6    14    12    1
     7     7     6    2
     8    10    12    1
     9    10     8    2
    10     6     8    1
    11     6     5    1
    12     3     2    1
    13     5     1    1
    14     2     1    1
    15     2     4    2
