@<TRIPOS>MOLECULE
/home/cewinharhar/GITHUB/reincatalyze/data/processed/docking_pred/2023-May-31-1438_sub9_nm5_bs15_s42_ex16_mel10_mts1000_k50_ec05_g099_lra9e-4_lrc3e-3/81487a167534eaf1a49a57d95a0bec7d9495d7bd_ligand_9.pdbqt
 14 15 0 0 0
SMALL
GASTEIGER

@<TRIPOS>ATOM
      1  C          6.3690    1.2180    0.8860 C.3     1  UNL1        0.0800
      2  C          5.6740    0.4050    1.9220 C.2     1  UNL1        0.1300
      3  C          6.2930   -0.8190    2.4980 C.3     1  UNL1        0.0870
      4  O          4.5690    0.7220    2.3310 O.2     1  UNL1       -0.3000
      5  C          5.8540    0.8960   -0.5030 C.3     1  UNL1        0.0430
      6  C          6.8160    0.0830   -1.2680 C.2     1  UNL1       -0.0440
      7  C          7.5190    0.6110   -2.3570 C.2     1  UNL1        0.0080
      8  C          7.0390   -1.2270   -0.9100 C.2     1  UNL1        0.0540
      9  C          8.4100   -0.1990   -3.0370 C.2     1  UNL1        0.0510
     10  C          7.9410   -2.0420   -1.6000 C.2     1  UNL1        0.1660
     11  C          8.6320   -1.5230   -2.6730 C.2     1  UNL1        0.1650
     12  O          8.3320   -3.3540   -1.4430 O.2     1  UNL1       -0.4540
     13  O          9.4430   -2.5390   -3.1560 O.2     1  UNL1       -0.4540
     14  C          9.3510   -3.6890   -2.3510 C.3     1  UNL1        0.4680
@<TRIPOS>BOND
     1    13    11    1
     2    13    14    1
     3     9    11    2
     4     9     7    1
     5    11    10    1
     6     7     6    2
     7    14    12    1
     8    10    12    1
     9    10     8    2
    10     6     8    1
    11     6     5    1
    12     5     1    1
    13     1     2    1
    14     2     4    2
    15     2     3    1
