@<TRIPOS>MOLECULE
/home/cewinharhar/GITHUB/reincatalyze/data/processed/docking_pred/2023-May-31-1438_sub9_nm5_bs15_s42_ex16_mel10_mts1000_k50_ec05_g099_lra9e-4_lrc3e-3/81487a167534eaf1a49a57d95a0bec7d9495d7bd_ligand_9.pdbqt
 14 15 0 0 0
SMALL
GASTEIGER

@<TRIPOS>ATOM
      1  C          6.8980    0.8490    1.1780 C.3     1  UNL1        0.0800
      2  C          5.4630    1.2070    1.3500 C.2     1  UNL1        0.1300
      3  C          4.7760    2.1500    0.4270 C.3     1  UNL1        0.0870
      4  O          4.8040    0.7330    2.2620 O.2     1  UNL1       -0.3000
      5  C          7.3390    1.0200   -0.2630 C.3     1  UNL1        0.0430
      6  C          7.7170   -0.2670   -0.8740 C.2     1  UNL1       -0.0440
      7  C          7.8460   -0.4090   -2.2610 C.2     1  UNL1        0.0080
      8  C          7.9550   -1.3590   -0.0720 C.2     1  UNL1        0.0540
      9  C          8.2050   -1.6410   -2.7780 C.2     1  UNL1        0.0510
     10  C          8.3190   -2.6020   -0.6000 C.2     1  UNL1        0.1660
     11  C          8.4440   -2.7440   -1.9640 C.2     1  UNL1        0.1650
     12  O          8.6030   -3.8210   -0.0220 O.2     1  UNL1       -0.4540
     13  O          8.8080   -4.0610   -2.1980 O.2     1  UNL1       -0.4540
     14  C          9.0090   -4.7550   -0.9900 C.3     1  UNL1        0.4680
@<TRIPOS>BOND
     1     9     7    1
     2     9    11    2
     3     7     6    2
     4    13    11    1
     5    13    14    1
     6    11    10    1
     7    14    12    1
     8     6     5    1
     9     6     8    1
    10    10     8    2
    11    10    12    1
    12     5     1    1
    13     3     2    1
    14     1     2    1
    15     2     4    2
