@<TRIPOS>MOLECULE
/home/cewinharhar/GITHUB/reincatalyze/data/processed/docking_pred/2023-May-31-1438_sub9_nm5_bs15_s42_ex16_mel10_mts1000_k50_ec05_g099_lra9e-4_lrc3e-3/81487a167534eaf1a49a57d95a0bec7d9495d7bd_ligand_9.pdbqt
 14 15 0 0 0
SMALL
GASTEIGER

@<TRIPOS>ATOM
      1  C          5.8520    1.1410   -0.2580 C.3     1  UNL1        0.0800
      2  C          5.7130    1.1630    1.2240 C.2     1  UNL1        0.1300
      3  C          5.1400    0.0120    1.9730 C.3     1  UNL1        0.0870
      4  O          6.0670    2.1350    1.8720 O.2     1  UNL1       -0.3000
      5  C          7.3090    1.1110   -0.6740 C.3     1  UNL1        0.0430
      6  C          7.7110   -0.2200   -1.1640 C.2     1  UNL1       -0.0440
      7  C          7.9040   -0.4720   -2.5270 C.2     1  UNL1        0.0080
      8  C          7.9060   -1.2460   -0.2670 C.2     1  UNL1        0.0540
      9  C          8.2820   -1.7410   -2.9270 C.2     1  UNL1        0.0510
     10  C          8.2890   -2.5260   -0.6770 C.2     1  UNL1        0.1660
     11  C          8.4780   -2.7760   -2.0180 C.2     1  UNL1        0.1650
     12  O          8.5410   -3.6960    0.0080 O.2     1  UNL1       -0.4540
     13  O          8.8470   -4.1070   -2.1300 O.2     1  UNL1       -0.4540
     14  C          8.9880   -4.7040   -0.8620 C.3     1  UNL1        0.4680
@<TRIPOS>BOND
     1     9     7    1
     2     9    11    2
     3     7     6    2
     4    13    11    1
     5    13    14    1
     6    11    10    1
     7     6     5    1
     8     6     8    1
     9    14    12    1
    10    10     8    2
    11    10    12    1
    12     5     1    1
    13     1     2    1
    14     2     4    2
    15     2     3    1
