MODEL 1
REMARK VINA RESULT:      -7.6      0.000      0.000
REMARK SMILES CC(=O)CCc1ccc2c(c1)OCO2
REMARK SMILES IDX 4 1 2 2 1 3 3 4 5 5 6 6 7 7 11 8 8 9 10 10 9 11 12 12 14 13
REMARK SMILES IDX 13 14
REMARK H PARENT
REMARK Flexibility Score: inf
ROOT
ATOM      1  C   UNL     1       5.533   1.911   1.258  1.00  0.00     0.080 C 
ENDROOT
BRANCH   1   2
ATOM      2  C   UNL     1       5.073   0.704   1.999  1.00  0.00     0.130 C 
ATOM      3  C   UNL     1       5.943  -0.492   2.160  1.00  0.00     0.087 C 
ATOM      4  O   UNL     1       3.960   0.660   2.498  1.00  0.00    -0.300 OA
ENDBRANCH   1   2
BRANCH   1   5
ATOM      5  C   UNL     1       5.404   1.720  -0.240  1.00  0.00     0.043 C 
BRANCH   5   6
ATOM      6  C   UNL     1       6.573   1.022  -0.804  1.00  0.00    -0.044 A 
ATOM      7  C   UNL     1       7.878   1.469  -0.569  1.00  0.00     0.008 A 
ATOM      8  C   UNL     1       6.388  -0.100  -1.580  1.00  0.00     0.054 A 
ATOM      9  C   UNL     1       8.936   0.773  -1.124  1.00  0.00     0.051 A 
ATOM     10  C   UNL     1       7.461  -0.801  -2.138  1.00  0.00     0.166 A 
ATOM     11  C   UNL     1       8.746  -0.361  -1.909  1.00  0.00     0.165 A 
ATOM     12  O   UNL     1       7.538  -1.925  -2.933  1.00  0.00    -0.454 OA
ATOM     13  O   UNL     1       9.594  -1.233  -2.573  1.00  0.00    -0.454 OA
ATOM     14  C   UNL     1       8.875  -2.292  -3.160  1.00  0.00     0.468 C 
ENDBRANCH   5   6
ENDBRANCH   1   5
TORSDOF 3
ENDMDL
MODEL 2
REMARK VINA RESULT:      -7.1      2.077      2.613
REMARK SMILES CC(=O)CCc1ccc2c(c1)OCO2
REMARK SMILES IDX 4 1 2 2 1 3 3 4 5 5 6 6 7 7 11 8 8 9 10 10 9 11 12 12 14 13
REMARK SMILES IDX 13 14
REMARK H PARENT
REMARK Flexibility Score: inf
ROOT
ATOM      1  C   UNL     1       5.526  -0.004   1.944  1.00  0.00     0.080 C 
ENDROOT
BRANCH   1   2
ATOM      2  C   UNL     1       4.647   1.162   1.651  1.00  0.00     0.130 C 
ATOM      3  C   UNL     1       4.947   2.107   0.542  1.00  0.00     0.087 C 
ATOM      4  O   UNL     1       3.647   1.376   2.318  1.00  0.00    -0.300 OA
ENDBRANCH   1   2
BRANCH   1   5
ATOM      5  C   UNL     1       6.949   0.251   1.488  1.00  0.00     0.043 C 
BRANCH   5   6
ATOM      6  C   UNL     1       7.370  -0.704   0.448  1.00  0.00    -0.044 A 
ATOM      7  C   UNL     1       7.295  -0.386  -0.913  1.00  0.00     0.008 A 
ATOM      8  C   UNL     1       7.852  -1.941   0.812  1.00  0.00     0.054 A 
ATOM      9  C   UNL     1       7.704  -1.323  -1.845  1.00  0.00     0.051 A 
ATOM     10  C   UNL     1       8.266  -2.884  -0.133  1.00  0.00     0.166 A 
ATOM     11  C   UNL     1       8.191  -2.573  -1.473  1.00  0.00     0.165 A 
ATOM     12  O   UNL     1       8.773  -4.162  -0.026  1.00  0.00    -0.454 OA
ATOM     13  O   UNL     1       8.660  -3.676  -2.168  1.00  0.00    -0.454 OA
ATOM     14  C   UNL     1       9.124  -4.672  -1.287  1.00  0.00     0.468 C 
ENDBRANCH   5   6
ENDBRANCH   1   5
TORSDOF 3
ENDMDL
MODEL 3
REMARK VINA RESULT:      -7.1      1.944      2.533
REMARK SMILES CC(=O)CCc1ccc2c(c1)OCO2
REMARK SMILES IDX 4 1 2 2 1 3 3 4 5 5 6 6 7 7 11 8 8 9 10 10 9 11 12 12 14 13
REMARK SMILES IDX 13 14
REMARK H PARENT
REMARK Flexibility Score: inf
ROOT
ATOM      1  C   UNL     1       6.898   0.849   1.178  1.00  0.00     0.080 C 
ENDROOT
BRANCH   1   2
ATOM      2  C   UNL     1       5.463   1.207   1.350  1.00  0.00     0.130 C 
ATOM      3  C   UNL     1       4.776   2.150   0.427  1.00  0.00     0.087 C 
ATOM      4  O   UNL     1       4.804   0.733   2.262  1.00  0.00    -0.300 OA
ENDBRANCH   1   2
BRANCH   1   5
ATOM      5  C   UNL     1       7.339   1.020  -0.263  1.00  0.00     0.043 C 
BRANCH   5   6
ATOM      6  C   UNL     1       7.717  -0.267  -0.874  1.00  0.00    -0.044 A 
ATOM      7  C   UNL     1       7.846  -0.409  -2.261  1.00  0.00     0.008 A 
ATOM      8  C   UNL     1       7.955  -1.359  -0.072  1.00  0.00     0.054 A 
ATOM      9  C   UNL     1       8.205  -1.641  -2.778  1.00  0.00     0.051 A 
ATOM     10  C   UNL     1       8.319  -2.602  -0.600  1.00  0.00     0.166 A 
ATOM     11  C   UNL     1       8.444  -2.744  -1.964  1.00  0.00     0.165 A 
ATOM     12  O   UNL     1       8.603  -3.821  -0.022  1.00  0.00    -0.454 OA
ATOM     13  O   UNL     1       8.808  -4.061  -2.198  1.00  0.00    -0.454 OA
ATOM     14  C   UNL     1       9.009  -4.755  -0.990  1.00  0.00     0.468 C 
ENDBRANCH   5   6
ENDBRANCH   1   5
TORSDOF 3
ENDMDL
MODEL 4
REMARK VINA RESULT:      -7.1      1.248      1.452
REMARK SMILES CC(=O)CCc1ccc2c(c1)OCO2
REMARK SMILES IDX 4 1 2 2 1 3 3 4 5 5 6 6 7 7 11 8 8 9 10 10 9 11 12 12 14 13
REMARK SMILES IDX 13 14
REMARK H PARENT
REMARK Flexibility Score: inf
ROOT
ATOM      1  C   UNL     1       6.369   1.218   0.886  1.00  0.00     0.080 C 
ENDROOT
BRANCH   1   2
ATOM      2  C   UNL     1       5.674   0.405   1.922  1.00  0.00     0.130 C 
ATOM      3  C   UNL     1       6.293  -0.819   2.498  1.00  0.00     0.087 C 
ATOM      4  O   UNL     1       4.569   0.722   2.331  1.00  0.00    -0.300 OA
ENDBRANCH   1   2
BRANCH   1   5
ATOM      5  C   UNL     1       5.854   0.896  -0.503  1.00  0.00     0.043 C 
BRANCH   5   6
ATOM      6  C   UNL     1       6.816   0.083  -1.268  1.00  0.00    -0.044 A 
ATOM      7  C   UNL     1       7.519   0.611  -2.357  1.00  0.00     0.008 A 
ATOM      8  C   UNL     1       7.039  -1.227  -0.910  1.00  0.00     0.054 A 
ATOM      9  C   UNL     1       8.410  -0.199  -3.037  1.00  0.00     0.051 A 
ATOM     10  C   UNL     1       7.941  -2.042  -1.600  1.00  0.00     0.166 A 
ATOM     11  C   UNL     1       8.632  -1.523  -2.673  1.00  0.00     0.165 A 
ATOM     12  O   UNL     1       8.332  -3.354  -1.443  1.00  0.00    -0.454 OA
ATOM     13  O   UNL     1       9.443  -2.539  -3.156  1.00  0.00    -0.454 OA
ATOM     14  C   UNL     1       9.351  -3.689  -2.351  1.00  0.00     0.468 C 
ENDBRANCH   5   6
ENDBRANCH   1   5
TORSDOF 3
ENDMDL
MODEL 5
REMARK VINA RESULT:      -7.1      1.964      2.491
REMARK SMILES CC(=O)CCc1ccc2c(c1)OCO2
REMARK SMILES IDX 4 1 2 2 1 3 3 4 5 5 6 6 7 7 11 8 8 9 10 10 9 11 12 12 14 13
REMARK SMILES IDX 13 14
REMARK H PARENT
REMARK Flexibility Score: inf
ROOT
ATOM      1  C   UNL     1       5.852   1.141  -0.258  1.00  0.00     0.080 C 
ENDROOT
BRANCH   1   2
ATOM      2  C   UNL     1       5.713   1.163   1.224  1.00  0.00     0.130 C 
ATOM      3  C   UNL     1       5.140   0.012   1.973  1.00  0.00     0.087 C 
ATOM      4  O   UNL     1       6.067   2.135   1.872  1.00  0.00    -0.300 OA
ENDBRANCH   1   2
BRANCH   1   5
ATOM      5  C   UNL     1       7.309   1.111  -0.674  1.00  0.00     0.043 C 
BRANCH   5   6
ATOM      6  C   UNL     1       7.711  -0.220  -1.164  1.00  0.00    -0.044 A 
ATOM      7  C   UNL     1       7.904  -0.472  -2.527  1.00  0.00     0.008 A 
ATOM      8  C   UNL     1       7.906  -1.246  -0.267  1.00  0.00     0.054 A 
ATOM      9  C   UNL     1       8.282  -1.741  -2.927  1.00  0.00     0.051 A 
ATOM     10  C   UNL     1       8.289  -2.526  -0.677  1.00  0.00     0.166 A 
ATOM     11  C   UNL     1       8.478  -2.776  -2.018  1.00  0.00     0.165 A 
ATOM     12  O   UNL     1       8.541  -3.696   0.008  1.00  0.00    -0.454 OA
ATOM     13  O   UNL     1       8.847  -4.107  -2.130  1.00  0.00    -0.454 OA
ATOM     14  C   UNL     1       8.988  -4.704  -0.862  1.00  0.00     0.468 C 
ENDBRANCH   5   6
ENDBRANCH   1   5
TORSDOF 3
ENDMDL
