@<TRIPOS>MOLECULE
/home/cewinharhar/GITHUB/reincatalyze/data/processed/docking_pred/2023-May-31-1438_sub9_nm5_bs15_s42_ex16_mel10_mts1000_k50_ec05_g099_lra9e-4_lrc3e-3/82066193004a6cdbe54a2a950d109d8cafa96b54_ligand_9.pdbqt
 14 15 0 0 0
SMALL
GASTEIGER

@<TRIPOS>ATOM
      1  C          5.3250   -0.0940    1.9370 C.3     1  UNL1        0.0800
      2  C          4.4580    1.1050    1.7700 C.2     1  UNL1        0.1300
      3  C          4.7570    2.1490    0.7540 C.3     1  UNL1        0.0870
      4  O          3.4710    1.2670    2.4690 O.2     1  UNL1       -0.3000
      5  C          6.7940    0.2780    1.8960 C.3     1  UNL1        0.0430
      6  C          7.4100   -0.0680    0.6030 C.2     1  UNL1       -0.0440
      7  C          7.9350    0.9140   -0.2450 C.2     1  UNL1        0.0080
      8  C          7.4770   -1.3860    0.2100 C.2     1  UNL1        0.0540
      9  C          8.5020    0.5290   -1.4470 C.2     1  UNL1        0.0510
     10  C          8.0520   -1.7690   -1.0050 C.2     1  UNL1        0.1660
     11  C          8.5680   -0.8040   -1.8410 C.2     1  UNL1        0.1650
     12  O          8.2360   -2.9930   -1.6130 O.2     1  UNL1       -0.4540
     13  O          9.0640   -1.4610   -2.9550 O.2     1  UNL1       -0.4540
     14  C          8.9560   -2.8580   -2.8110 C.3     1  UNL1        0.4680
@<TRIPOS>BOND
     1    13    14    1
     2    13    11    1
     3    14    12    1
     4    11     9    2
     5    11    10    1
     6    12    10    1
     7     9     7    1
     8    10     8    2
     9     7     6    2
    10     8     6    1
    11     6     5    1
    12     3     2    1
    13     2     1    1
    14     2     4    2
    15     5     1    1
