@<TRIPOS>MOLECULE
/home/cewinharhar/GITHUB/reincatalyze/data/processed/docking_pred/2023-May-31-1438_sub9_nm5_bs15_s42_ex16_mel10_mts1000_k50_ec05_g099_lra9e-4_lrc3e-3/82066193004a6cdbe54a2a950d109d8cafa96b54_ligand_9.pdbqt
 14 15 0 0 0
SMALL
GASTEIGER

@<TRIPOS>ATOM
      1  C          6.3710    1.2070    0.9020 C.3     1  UNL1        0.0800
      2  C          5.6650    0.3880    1.9270 C.2     1  UNL1        0.1300
      3  C          6.2740   -0.8420    2.4990 C.3     1  UNL1        0.0870
      4  O          4.5570    0.7060    2.3280 O.2     1  UNL1       -0.3000
      5  C          5.8600    0.9030   -0.4920 C.3     1  UNL1        0.0430
      6  C          6.8190    0.0890   -1.2600 C.2     1  UNL1       -0.0440
      7  C          7.5250    0.6180   -2.3470 C.2     1  UNL1        0.0080
      8  C          7.0360   -1.2240   -0.9070 C.2     1  UNL1        0.0540
      9  C          8.4130   -0.1940   -3.0300 C.2     1  UNL1        0.0510
     10  C          7.9350   -2.0400   -1.6000 C.2     1  UNL1        0.1660
     11  C          8.6290   -1.5210   -2.6700 C.2     1  UNL1        0.1650
     12  O          8.3200   -3.3550   -1.4480 O.2     1  UNL1       -0.4540
     13  O          9.4340   -2.5380   -3.1570 O.2     1  UNL1       -0.4540
     14  C          9.3370   -3.6910   -2.3560 C.3     1  UNL1        0.4680
@<TRIPOS>BOND
     1    13    11    1
     2    13    14    1
     3     9    11    2
     4     9     7    1
     5    11    10    1
     6    14    12    1
     7     7     6    2
     8    10    12    1
     9    10     8    2
    10     6     8    1
    11     6     5    1
    12     5     1    1
    13     1     2    1
    14     2     4    2
    15     2     3    1
