@<TRIPOS>MOLECULE
/home/cewinharhar/GITHUB/reincatalyze/data/processed/docking_pred/2023-May-31-1438_sub9_nm5_bs15_s42_ex16_mel10_mts1000_k50_ec05_g099_lra9e-4_lrc3e-3/82066193004a6cdbe54a2a950d109d8cafa96b54_ligand_9.pdbqt
 14 15 0 0 0
SMALL
GASTEIGER

@<TRIPOS>ATOM
      1  C          5.6110    1.4960   -0.1540 C.3     1  UNL1        0.0800
      2  C          4.9710    1.2530    1.1690 C.2     1  UNL1        0.1300
      3  C          5.3790    0.1150    2.0360 C.3     1  UNL1        0.0870
      4  O          4.0870    1.9860    1.5820 O.2     1  UNL1       -0.3000
      5  C          7.1050    1.2470   -0.0960 C.3     1  UNL1        0.0430
      6  C          7.4770   -0.0050   -0.7790 C.2     1  UNL1       -0.0440
      7  C          7.4660   -0.1100   -2.1750 C.2     1  UNL1        0.0080
      8  C          7.8470   -1.1030   -0.0360 C.2     1  UNL1        0.0540
      9  C          7.8250   -1.3110   -2.7600 C.2     1  UNL1        0.0510
     10  C          8.2100   -2.3150   -0.6330 C.2     1  UNL1        0.1660
     11  C          8.1990   -2.4190   -2.0060 C.2     1  UNL1        0.1650
     12  O          8.6100   -3.5310   -0.1220 O.2     1  UNL1       -0.4540
     13  O          8.5970   -3.7110   -2.3130 O.2     1  UNL1       -0.4540
     14  C          8.9540   -4.4220   -1.1520 C.3     1  UNL1        0.4680
@<TRIPOS>BOND
     1     9     7    1
     2     9    11    2
     3    13    11    1
     4    13    14    1
     5     7     6    2
     6    11    10    1
     7    14    12    1
     8     6     5    1
     9     6     8    1
    10    10    12    1
    11    10     8    2
    12     1     5    1
    13     1     2    1
    14     2     4    2
    15     2     3    1
