@<TRIPOS>MOLECULE
/home/cewinharhar/GITHUB/reincatalyze/data/processed/docking_pred/2023-May-31-1438_sub9_nm5_bs15_s42_ex16_mel10_mts1000_k50_ec05_g099_lra9e-4_lrc3e-3/84f6a015bafc2578e701aafee66be27aa4cb1192_ligand_9.pdbqt
 14 15 0 0 0
SMALL
GASTEIGER

@<TRIPOS>ATOM
      1  C          5.7450    1.3790   -0.2980 C.3     1  UNL1        0.0800
      2  C          5.1040    1.2840    1.0430 C.2     1  UNL1        0.1300
      3  C          5.3760    0.1440    1.9600 C.3     1  UNL1        0.0870
      4  O          4.3300    2.1440    1.4310 O.2     1  UNL1       -0.3000
      5  C          7.2370    1.1220   -0.2140 C.3     1  UNL1        0.0430
      6  C          7.6060   -0.1600   -0.8400 C.2     1  UNL1       -0.0440
      7  C          7.6760   -0.3040   -2.2300 C.2     1  UNL1        0.0080
      8  C          7.8940   -1.2480   -0.0470 C.2     1  UNL1        0.0540
      9  C          8.0290   -1.5310   -2.7610 C.2     1  UNL1        0.0510
     10  C          8.2510   -2.4870   -0.5890 C.2     1  UNL1        0.1660
     11  C          8.3190   -2.6300   -1.9570 C.2     1  UNL1        0.1650
     12  O          8.5780   -3.7010   -0.0230 O.2     1  UNL1       -0.4540
     13  O          8.6910   -3.9420   -2.2050 O.2     1  UNL1       -0.4540
     14  C          8.9540   -4.6310   -1.0060 C.3     1  UNL1        0.4680
@<TRIPOS>BOND
     1     9     7    1
     2     9    11    2
     3     7     6    2
     4    13    11    1
     5    13    14    1
     6    11    10    1
     7    14    12    1
     8     6     5    1
     9     6     8    1
    10    10     8    2
    11    10    12    1
    12     1     5    1
    13     1     2    1
    14     2     4    2
    15     2     3    1
