MODEL 1
REMARK VINA RESULT:       1.3      0.000      0.000
REMARK SMILES CC(=O)CCc1ccc2c(c1)OCO2
REMARK SMILES IDX 4 1 2 2 1 3 3 4 5 5 6 6 7 7 11 8 8 9 10 10 9 11 12 12 14 13
REMARK SMILES IDX 13 14
REMARK H PARENT
REMARK Flexibility Score: inf
ROOT
ATOM      1  C   UNL     1       8.796  -4.773  -0.375  1.00  0.00     0.080 C 
ENDROOT
BRANCH   1   2
ATOM      2  C   UNL     1       9.533  -4.680  -1.666  1.00  0.00     0.130 C 
ATOM      3  C   UNL     1      10.356  -5.808  -2.179  1.00  0.00     0.087 C 
ATOM      4  O   UNL     1       9.482  -3.667  -2.345  1.00  0.00    -0.300 OA
ENDBRANCH   1   2
BRANCH   1   5
ATOM      5  C   UNL     1       9.539  -4.057   0.735  1.00  0.00     0.043 C 
BRANCH   5   6
ATOM      6  C   UNL     1       8.880  -2.792   1.106  1.00  0.00    -0.044 A 
ATOM      7  C   UNL     1       9.600  -1.597   1.225  1.00  0.00     0.008 A 
ATOM      8  C   UNL     1       7.524  -2.772   1.341  1.00  0.00     0.054 A 
ATOM      9  C   UNL     1       8.928  -0.441   1.575  1.00  0.00     0.051 A 
ATOM     10  C   UNL     1       6.849  -1.600   1.694  1.00  0.00     0.166 A 
ATOM     11  C   UNL     1       7.557  -0.425   1.812  1.00  0.00     0.165 A 
ATOM     12  O   UNL     1       5.528  -1.325   1.976  1.00  0.00    -0.454 OA
ATOM     13  O   UNL     1       6.646   0.558   2.167  1.00  0.00    -0.454 OA
ATOM     14  C   UNL     1       5.334   0.049   2.193  1.00  0.00     0.468 C 
ENDBRANCH   5   6
ENDBRANCH   1   5
TORSDOF 3
ENDMDL
MODEL 2
REMARK VINA RESULT:       1.3      2.146      5.771
REMARK SMILES CC(=O)CCc1ccc2c(c1)OCO2
REMARK SMILES IDX 4 1 2 2 1 3 3 4 5 5 6 6 7 7 11 8 8 9 10 10 9 11 12 12 14 13
REMARK SMILES IDX 13 14
REMARK H PARENT
REMARK Flexibility Score: inf
ROOT
ATOM      1  C   UNL     1       6.514   2.149   1.555  1.00  0.00     0.080 C 
ENDROOT
BRANCH   1   2
ATOM      2  C   UNL     1       5.171   2.055   0.918  1.00  0.00     0.130 C 
ATOM      3  C   UNL     1       5.009   2.028  -0.560  1.00  0.00     0.087 C 
ATOM      4  O   UNL     1       4.158   1.998   1.596  1.00  0.00    -0.300 OA
ENDBRANCH   1   2
BRANCH   1   5
ATOM      5  C   UNL     1       6.661   1.145   2.681  1.00  0.00     0.043 C 
BRANCH   5   6
ATOM      6  C   UNL     1       6.949  -0.208   2.172  1.00  0.00    -0.044 A 
ATOM      7  C   UNL     1       5.927  -1.134   1.931  1.00  0.00     0.008 A 
ATOM      8  C   UNL     1       8.250  -0.580   1.921  1.00  0.00     0.054 A 
ATOM      9  C   UNL     1       6.257  -2.389   1.452  1.00  0.00     0.051 A 
ATOM     10  C   UNL     1       8.578  -1.850   1.436  1.00  0.00     0.166 A 
ATOM     11  C   UNL     1       7.574  -2.761   1.200  1.00  0.00     0.165 A 
ATOM     12  O   UNL     1       9.776  -2.451   1.113  1.00  0.00    -0.454 OA
ATOM     13  O   UNL     1       8.182  -3.916   0.732  1.00  0.00    -0.454 OA
ATOM     14  C   UNL     1       9.568  -3.732   0.575  1.00  0.00     0.468 C 
ENDBRANCH   5   6
ENDBRANCH   1   5
TORSDOF 3
ENDMDL
MODEL 3
REMARK VINA RESULT:       1.4      3.032      7.138
REMARK SMILES CC(=O)CCc1ccc2c(c1)OCO2
REMARK SMILES IDX 4 1 2 2 1 3 3 4 5 5 6 6 7 7 11 8 8 9 10 10 9 11 12 12 14 13
REMARK SMILES IDX 13 14
REMARK H PARENT
REMARK Flexibility Score: inf
ROOT
ATOM      1  C   UNL     1       2.008  -0.094   3.030  1.00  0.00     0.080 C 
ENDROOT
BRANCH   1   2
ATOM      2  C   UNL     1       0.545   0.171   3.119  1.00  0.00     0.130 C 
ATOM      3  C   UNL     1      -0.095   1.281   2.364  1.00  0.00     0.087 C 
ATOM      4  O   UNL     1      -0.175  -0.522   3.820  1.00  0.00    -0.300 OA
ENDBRANCH   1   2
BRANCH   1   5
ATOM      5  C   UNL     1       2.735   1.054   2.357  1.00  0.00     0.043 C 
BRANCH   5   6
ATOM      6  C   UNL     1       4.158   0.741   2.130  1.00  0.00    -0.044 A 
ATOM      7  C   UNL     1       5.094   1.746   1.859  1.00  0.00     0.008 A 
ATOM      8  C   UNL     1       4.587  -0.565   2.186  1.00  0.00     0.054 A 
ATOM      9  C   UNL     1       6.416   1.393   1.656  1.00  0.00     0.051 A 
ATOM     10  C   UNL     1       5.924  -0.916   1.980  1.00  0.00     0.166 A 
ATOM     11  C   UNL     1       6.846   0.071   1.712  1.00  0.00     0.165 A 
ATOM     12  O   UNL     1       6.589  -2.124   1.982  1.00  0.00    -0.454 OA
ATOM     13  O   UNL     1       8.072  -0.557   1.555  1.00  0.00    -0.454 OA
ATOM     14  C   UNL     1       7.971  -1.939   1.807  1.00  0.00     0.468 C 
ENDBRANCH   5   6
ENDBRANCH   1   5
TORSDOF 3
ENDMDL
MODEL 4
REMARK VINA RESULT:       1.8      1.670      2.585
REMARK SMILES CC(=O)CCc1ccc2c(c1)OCO2
REMARK SMILES IDX 4 1 2 2 1 3 3 4 5 5 6 6 7 7 11 8 8 9 10 10 9 11 12 12 14 13
REMARK SMILES IDX 13 14
REMARK H PARENT
REMARK Flexibility Score: inf
ROOT
ATOM      1  C   UNL     1       9.132  -2.511   1.080  1.00  0.00     0.080 C 
ENDROOT
BRANCH   1   2
ATOM      2  C   UNL     1       9.516  -3.883   0.644  1.00  0.00     0.130 C 
ATOM      3  C   UNL     1       8.856  -4.550  -0.510  1.00  0.00     0.087 C 
ATOM      4  O   UNL     1      10.391  -4.503   1.227  1.00  0.00    -0.300 OA
ENDBRANCH   1   2
BRANCH   1   5
ATOM      5  C   UNL     1       7.890  -2.538   1.948  1.00  0.00     0.043 C 
BRANCH   5   6
ATOM      6  C   UNL     1       7.168  -1.253   1.909  1.00  0.00    -0.044 A 
ATOM      7  C   UNL     1       7.826  -0.051   1.624  1.00  0.00     0.008 A 
ATOM      8  C   UNL     1       5.814  -1.224   2.154  1.00  0.00     0.054 A 
ATOM      9  C   UNL     1       7.097   1.123   1.600  1.00  0.00     0.051 A 
ATOM     10  C   UNL     1       5.081  -0.034   2.128  1.00  0.00     0.166 A 
ATOM     11  C   UNL     1       5.728   1.150   1.849  1.00  0.00     0.165 A 
ATOM     12  O   UNL     1       3.749   0.254   2.335  1.00  0.00    -0.454 OA
ATOM     13  O   UNL     1       4.769   2.150   1.890  1.00  0.00    -0.454 OA
ATOM     14  C   UNL     1       3.485   1.614   2.105  1.00  0.00     0.468 C 
ENDBRANCH   5   6
ENDBRANCH   1   5
TORSDOF 3
ENDMDL
MODEL 5
REMARK VINA RESULT:       2.2      9.679     11.062
REMARK SMILES CC(=O)CCc1ccc2c(c1)OCO2
REMARK SMILES IDX 4 1 2 2 1 3 3 4 5 5 6 6 7 7 11 8 8 9 10 10 9 11 12 12 14 13
REMARK SMILES IDX 13 14
REMARK H PARENT
REMARK Flexibility Score: inf
ROOT
ATOM      1  C   UNL     1       1.784  -7.502  -0.511  1.00  0.00     0.080 C 
ENDROOT
BRANCH   1   2
ATOM      2  C   UNL     1       2.254  -6.102  -0.311  1.00  0.00     0.130 C 
ATOM      3  C   UNL     1       2.141  -5.080  -1.386  1.00  0.00     0.087 C 
ATOM      4  O   UNL     1       2.749  -5.753   0.748  1.00  0.00    -0.300 OA
ENDBRANCH   1   2
BRANCH   1   5
ATOM      5  C   UNL     1       2.600  -8.479   0.312  1.00  0.00     0.043 C 
BRANCH   5   6
ATOM      6  C   UNL     1       1.783  -9.611   0.785  1.00  0.00    -0.044 A 
ATOM      7  C   UNL     1       2.364 -10.735   1.383  1.00  0.00     0.008 A 
ATOM      8  C   UNL     1       0.415  -9.570   0.643  1.00  0.00     0.054 A 
ATOM      9  C   UNL     1       1.546 -11.766   1.809  1.00  0.00     0.051 A 
ATOM     10  C   UNL     1      -0.408 -10.615   1.075  1.00  0.00     0.166 A 
ATOM     11  C   UNL     1       0.163 -11.722   1.663  1.00  0.00     0.165 A 
ATOM     12  O   UNL     1      -1.772 -10.811   1.047  1.00  0.00    -0.454 OA
ATOM     13  O   UNL     1      -0.873 -12.583   1.987  1.00  0.00    -0.454 OA
ATOM     14  C   UNL     1      -2.124 -12.005   1.697  1.00  0.00     0.468 C 
ENDBRANCH   5   6
ENDBRANCH   1   5
TORSDOF 3
ENDMDL
