@<TRIPOS>MOLECULE
/home/cewinharhar/GITHUB/reincatalyze/data/processed/docking_pred/2023-May-31-1438_sub9_nm5_bs15_s42_ex16_mel10_mts1000_k50_ec05_g099_lra9e-4_lrc3e-3/86abca178b5bca4973d3a72a1df8ea50f2d75826_ligand_9.pdbqt
 14 15 0 0 0
SMALL
GASTEIGER

@<TRIPOS>ATOM
      1  C          6.5140    2.1490    1.5550 C.3     1  UNL1        0.0800
      2  C          5.1710    2.0550    0.9180 C.2     1  UNL1        0.1300
      3  C          5.0090    2.0280   -0.5600 C.3     1  UNL1        0.0870
      4  O          4.1580    1.9980    1.5960 O.2     1  UNL1       -0.3000
      5  C          6.6610    1.1450    2.6810 C.3     1  UNL1        0.0430
      6  C          6.9490   -0.2080    2.1720 C.2     1  UNL1       -0.0440
      7  C          5.9270   -1.1340    1.9310 C.2     1  UNL1        0.0080
      8  C          8.2500   -0.5800    1.9210 C.2     1  UNL1        0.0540
      9  C          6.2570   -2.3890    1.4520 C.2     1  UNL1        0.0510
     10  C          8.5780   -1.8500    1.4360 C.2     1  UNL1        0.1660
     11  C          7.5740   -2.7610    1.2000 C.2     1  UNL1        0.1650
     12  O          9.7760   -2.4510    1.1130 O.2     1  UNL1       -0.4540
     13  O          8.1820   -3.9160    0.7320 O.2     1  UNL1       -0.4540
     14  C          9.5680   -3.7320    0.5750 C.3     1  UNL1        0.4680
@<TRIPOS>BOND
     1     3     2    1
     2    14    13    1
     3    14    12    1
     4    13    11    1
     5     2     1    1
     6     2     4    2
     7    12    10    1
     8    11    10    2
     9    11     9    1
    10    10     8    1
    11     9     7    2
    12     1     5    1
    13     8     6    2
    14     7     6    1
    15     6     5    1
