@<TRIPOS>MOLECULE
/home/cewinharhar/GITHUB/reincatalyze/data/processed/docking_pred/2023-May-31-1438_sub9_nm5_bs15_s42_ex16_mel10_mts1000_k50_ec05_g099_lra9e-4_lrc3e-3/87c24324279ed01ab1d4888e5c128f335f215516_ligand_9.pdbqt
 14 15 0 0 0
SMALL
GASTEIGER

@<TRIPOS>ATOM
      1  C          5.5330    0.0250    1.9550 C.3     1  UNL1        0.0800
      2  C          4.6420    1.1770    1.6400 C.2     1  UNL1        0.1300
      3  C          4.9430    2.1140    0.5250 C.3     1  UNL1        0.0870
      4  O          3.6330    1.3860    2.2940 O.2     1  UNL1       -0.3000
      5  C          6.9500    0.2790    1.4800 C.3     1  UNL1        0.0430
      6  C          7.3590   -0.6850    0.4430 C.2     1  UNL1       -0.0440
      7  C          7.2550   -0.3830   -0.9200 C.2     1  UNL1        0.0080
      8  C          7.8580   -1.9130    0.8110 C.2     1  UNL1        0.0540
      9  C          7.6550   -1.3260   -1.8490 C.2     1  UNL1        0.0510
     10  C          8.2620   -2.8640   -0.1310 C.2     1  UNL1        0.1660
     11  C          8.1590   -2.5680   -1.4720 C.2     1  UNL1        0.1650
     12  O          8.7820   -4.1360   -0.0200 O.2     1  UNL1       -0.4540
     13  O          8.6240   -3.6750   -2.1640 O.2     1  UNL1       -0.4540
     14  C          9.1130   -4.6570   -1.2810 C.3     1  UNL1        0.4680
@<TRIPOS>BOND
     1    13    11    1
     2    13    14    1
     3     9    11    2
     4     9     7    1
     5    11    10    1
     6    14    12    1
     7     7     6    2
     8    10    12    1
     9    10     8    2
    10     6     8    1
    11     6     5    1
    12     3     2    1
    13     5     1    1
    14     2     1    1
    15     2     4    2
