MODEL 1
REMARK VINA RESULT:      -7.7      0.000      0.000
REMARK SMILES CC(=O)CCc1ccc2c(c1)OCO2
REMARK SMILES IDX 4 1 2 2 1 3 3 4 5 5 6 6 7 7 11 8 8 9 10 10 9 11 12 12 14 13
REMARK SMILES IDX 13 14
REMARK H PARENT
REMARK Flexibility Score: inf
ROOT
ATOM      1  C   UNL     1       5.516   1.914   1.264  1.00  0.00     0.080 C 
ENDROOT
BRANCH   1   2
ATOM      2  C   UNL     1       5.074   0.697   2.001  1.00  0.00     0.130 C 
ATOM      3  C   UNL     1       5.963  -0.485   2.162  1.00  0.00     0.087 C 
ATOM      4  O   UNL     1       3.961   0.634   2.497  1.00  0.00    -0.300 OA
ENDBRANCH   1   2
BRANCH   1   5
ATOM      5  C   UNL     1       5.392   1.725  -0.234  1.00  0.00     0.043 C 
BRANCH   5   6
ATOM      6  C   UNL     1       6.560   1.022  -0.795  1.00  0.00    -0.044 A 
ATOM      7  C   UNL     1       7.867   1.458  -0.546  1.00  0.00     0.008 A 
ATOM      8  C   UNL     1       6.374  -0.092  -1.582  1.00  0.00     0.054 A 
ATOM      9  C   UNL     1       8.924   0.758  -1.098  1.00  0.00     0.051 A 
ATOM     10  C   UNL     1       7.446  -0.796  -2.137  1.00  0.00     0.166 A 
ATOM     11  C   UNL     1       8.732  -0.367  -1.893  1.00  0.00     0.165 A 
ATOM     12  O   UNL     1       7.521  -1.914  -2.940  1.00  0.00    -0.454 OA
ATOM     13  O   UNL     1       9.579  -1.240  -2.558  1.00  0.00    -0.454 OA
ATOM     14  C   UNL     1       8.857  -2.288  -3.160  1.00  0.00     0.468 C 
ENDBRANCH   5   6
ENDBRANCH   1   5
TORSDOF 3
ENDMDL
MODEL 2
REMARK VINA RESULT:      -7.5      1.913      2.389
REMARK SMILES CC(=O)CCc1ccc2c(c1)OCO2
REMARK SMILES IDX 4 1 2 2 1 3 3 4 5 5 6 6 7 7 11 8 8 9 10 10 9 11 12 12 14 13
REMARK SMILES IDX 13 14
REMARK H PARENT
REMARK Flexibility Score: inf
ROOT
ATOM      1  C   UNL     1       5.769   1.426  -0.385  1.00  0.00     0.080 C 
ENDROOT
BRANCH   1   2
ATOM      2  C   UNL     1       5.138   1.348   0.962  1.00  0.00     0.130 C 
ATOM      3  C   UNL     1       5.519   0.296   1.942  1.00  0.00     0.087 C 
ATOM      4  O   UNL     1       4.284   2.150   1.301  1.00  0.00    -0.300 OA
ENDBRANCH   1   2
BRANCH   1   5
ATOM      5  C   UNL     1       7.261   1.168  -0.310  1.00  0.00     0.043 C 
BRANCH   5   6
ATOM      6  C   UNL     1       7.620  -0.136  -0.895  1.00  0.00    -0.044 A 
ATOM      7  C   UNL     1       7.654  -0.334  -2.280  1.00  0.00     0.008 A 
ATOM      8  C   UNL     1       7.933  -1.191  -0.069  1.00  0.00     0.054 A 
ATOM      9  C   UNL     1       7.999  -1.580  -2.772  1.00  0.00     0.051 A 
ATOM     10  C   UNL     1       8.282  -2.448  -0.570  1.00  0.00     0.166 A 
ATOM     11  C   UNL     1       8.315  -2.644  -1.933  1.00  0.00     0.165 A 
ATOM     12  O   UNL     1       8.629  -3.638   0.034  1.00  0.00    -0.454 OA
ATOM     13  O   UNL     1       8.686  -3.964  -2.140  1.00  0.00    -0.454 OA
ATOM     14  C   UNL     1       8.983  -4.605  -0.922  1.00  0.00     0.468 C 
ENDBRANCH   5   6
ENDBRANCH   1   5
TORSDOF 3
ENDMDL
MODEL 3
REMARK VINA RESULT:      -7.2      2.048      2.619
REMARK SMILES CC(=O)CCc1ccc2c(c1)OCO2
REMARK SMILES IDX 4 1 2 2 1 3 3 4 5 5 6 6 7 7 11 8 8 9 10 10 9 11 12 12 14 13
REMARK SMILES IDX 13 14
REMARK H PARENT
REMARK Flexibility Score: inf
ROOT
ATOM      1  C   UNL     1       5.421  -0.049   2.013  1.00  0.00     0.080 C 
ENDROOT
BRANCH   1   2
ATOM      2  C   UNL     1       4.572   1.150   1.767  1.00  0.00     0.130 C 
ATOM      3  C   UNL     1       4.906   2.139   0.707  1.00  0.00     0.087 C 
ATOM      4  O   UNL     1       3.572   1.357   2.434  1.00  0.00    -0.300 OA
ENDBRANCH   1   2
BRANCH   1   5
ATOM      5  C   UNL     1       6.857   0.198   1.596  1.00  0.00     0.043 C 
BRANCH   5   6
ATOM      6  C   UNL     1       7.285  -0.728   0.532  1.00  0.00    -0.044 A 
ATOM      7  C   UNL     1       7.162  -0.396  -0.822  1.00  0.00     0.008 A 
ATOM      8  C   UNL     1       7.822  -1.950   0.867  1.00  0.00     0.054 A 
ATOM      9  C   UNL     1       7.581  -1.305  -1.776  1.00  0.00     0.051 A 
ATOM     10  C   UNL     1       8.245  -2.865  -0.102  1.00  0.00     0.166 A 
ATOM     11  C   UNL     1       8.123  -2.540  -1.434  1.00  0.00     0.165 A 
ATOM     12  O   UNL     1       8.801  -4.124  -0.025  1.00  0.00    -0.454 OA
ATOM     13  O   UNL     1       8.613  -3.617  -2.156  1.00  0.00    -0.454 OA
ATOM     14  C   UNL     1       9.137  -4.605  -1.302  1.00  0.00     0.468 C 
ENDBRANCH   5   6
ENDBRANCH   1   5
TORSDOF 3
ENDMDL
MODEL 4
REMARK VINA RESULT:      -7.1      1.257      1.472
REMARK SMILES CC(=O)CCc1ccc2c(c1)OCO2
REMARK SMILES IDX 4 1 2 2 1 3 3 4 5 5 6 6 7 7 11 8 8 9 10 10 9 11 12 12 14 13
REMARK SMILES IDX 13 14
REMARK H PARENT
REMARK Flexibility Score: inf
ROOT
ATOM      1  C   UNL     1       6.412   1.209   0.925  1.00  0.00     0.080 C 
ENDROOT
BRANCH   1   2
ATOM      2  C   UNL     1       5.694   0.372   1.927  1.00  0.00     0.130 C 
ATOM      3  C   UNL     1       6.316  -0.842   2.521  1.00  0.00     0.087 C 
ATOM      4  O   UNL     1       4.565   0.661   2.292  1.00  0.00    -0.300 OA
ENDBRANCH   1   2
BRANCH   1   5
ATOM      5  C   UNL     1       5.905   0.943  -0.478  1.00  0.00     0.043 C 
BRANCH   5   6
ATOM      6  C   UNL     1       6.843   0.106  -1.248  1.00  0.00    -0.044 A 
ATOM      7  C   UNL     1       7.533   0.609  -2.357  1.00  0.00     0.008 A 
ATOM      8  C   UNL     1       7.054  -1.202  -0.875  1.00  0.00     0.054 A 
ATOM      9  C   UNL     1       8.401  -0.223  -3.041  1.00  0.00     0.051 A 
ATOM     10  C   UNL     1       7.934  -2.038  -1.570  1.00  0.00     0.166 A 
ATOM     11  C   UNL     1       8.612  -1.544  -2.662  1.00  0.00     0.165 A 
ATOM     12  O   UNL     1       8.310  -3.354  -1.400  1.00  0.00    -0.454 OA
ATOM     13  O   UNL     1       9.400  -2.578  -3.145  1.00  0.00    -0.454 OA
ATOM     14  C   UNL     1       9.308  -3.715  -2.321  1.00  0.00     0.468 C 
ENDBRANCH   5   6
ENDBRANCH   1   5
TORSDOF 3
ENDMDL
MODEL 5
REMARK VINA RESULT:      -7.0      1.885      2.408
REMARK SMILES CC(=O)CCc1ccc2c(c1)OCO2
REMARK SMILES IDX 4 1 2 2 1 3 3 4 5 5 6 6 7 7 11 8 8 9 10 10 9 11 12 12 14 13
REMARK SMILES IDX 13 14
REMARK H PARENT
REMARK Flexibility Score: inf
ROOT
ATOM      1  C   UNL     1       6.741   0.916   1.466  1.00  0.00     0.080 C 
ENDROOT
BRANCH   1   2
ATOM      2  C   UNL     1       5.279   1.198   1.517  1.00  0.00     0.130 C 
ATOM      3  C   UNL     1       4.634   2.150   0.574  1.00  0.00     0.087 C 
ATOM      4  O   UNL     1       4.563   0.651   2.341  1.00  0.00    -0.300 OA
ENDBRANCH   1   2
BRANCH   1   5
ATOM      5  C   UNL     1       7.303   1.173   0.083  1.00  0.00     0.043 C 
BRANCH   5   6
ATOM      6  C   UNL     1       7.617  -0.082  -0.622  1.00  0.00    -0.044 A 
ATOM      7  C   UNL     1       7.583  -0.167  -2.019  1.00  0.00     0.008 A 
ATOM      8  C   UNL     1       7.956  -1.204   0.100  1.00  0.00     0.054 A 
ATOM      9  C   UNL     1       7.888  -1.372  -2.625  1.00  0.00     0.051 A 
ATOM     10  C   UNL     1       8.264  -2.419  -0.518  1.00  0.00     0.166 A 
ATOM     11  C   UNL     1       8.229  -2.504  -1.892  1.00  0.00     0.165 A 
ATOM     12  O   UNL     1       8.624  -3.657  -0.029  1.00  0.00    -0.454 OA
ATOM     13  O   UNL     1       8.573  -3.806  -2.222  1.00  0.00    -0.454 OA
ATOM     14  C   UNL     1       8.920  -4.546  -1.076  1.00  0.00     0.468 C 
ENDBRANCH   5   6
ENDBRANCH   1   5
TORSDOF 3
ENDMDL
