@<TRIPOS>MOLECULE
/home/cewinharhar/GITHUB/reincatalyze/data/processed/docking_pred/2023-May-31-1438_sub9_nm5_bs15_s42_ex16_mel10_mts1000_k50_ec05_g099_lra9e-4_lrc3e-3/895ea28dab147140afd805a2e235fc395d2e1c3a_ligand_9.pdbqt
 14 15 0 0 0
SMALL
GASTEIGER

@<TRIPOS>ATOM
      1  C          8.3690    0.2450   -2.5450 C.3     1  UNL1        0.0800
      2  C          8.0300   -1.1970   -2.6990 C.2     1  UNL1        0.1300
      3  C          9.0630   -2.2090   -3.0460 C.3     1  UNL1        0.0870
      4  O          6.8850   -1.5920   -2.5440 O.2     1  UNL1       -0.3000
      5  C          8.8760    0.5450   -1.1480 C.3     1  UNL1        0.0430
      6  C          7.8100    0.4100   -0.1390 C.2     1  UNL1       -0.0440
      7  C          7.8740   -0.5560    0.8710 C.2     1  UNL1        0.0080
      8  C          6.7220    1.2520   -0.1800 C.2     1  UNL1        0.0540
      9  C          6.8440   -0.6350    1.7910 C.2     1  UNL1        0.0510
     10  C          5.6830    1.1690    0.7530 C.2     1  UNL1        0.1660
     11  C          5.7450    0.2170    1.7460 C.2     1  UNL1        0.1650
     12  O          4.5130    1.8780    0.9220 O.2     1  UNL1       -0.4540
     13  O          4.6000    0.3640    2.5140 O.2     1  UNL1       -0.4540
     14  C          3.8360    1.4640    2.0810 C.3     1  UNL1        0.4680
@<TRIPOS>BOND
     1     3     2    1
     2     2     1    1
     3     2     4    2
     4     1     5    1
     5     5     6    1
     6     8     6    2
     7     8    10    1
     8     6     7    1
     9    10    12    1
    10    10    11    2
    11     7     9    2
    12    12    14    1
    13    11     9    1
    14    11    13    1
    15    14    13    1
