MODEL 1
REMARK VINA RESULT:      -7.7      0.000      0.000
REMARK SMILES CC(=O)CCc1ccc2c(c1)OCO2
REMARK SMILES IDX 4 1 2 2 1 3 3 4 5 5 6 6 7 7 11 8 8 9 10 10 9 11 12 12 14 13
REMARK SMILES IDX 13 14
REMARK H PARENT
REMARK Flexibility Score: inf
ROOT
ATOM      1  C   UNL     1       5.540   1.928   1.261  1.00  0.00     0.080 C 
ENDROOT
BRANCH   1   2
ATOM      2  C   UNL     1       5.110   0.713   2.008  1.00  0.00     0.130 C 
ATOM      3  C   UNL     1       6.017  -0.451   2.195  1.00  0.00     0.087 C 
ATOM      4  O   UNL     1       3.992   0.638   2.492  1.00  0.00    -0.300 OA
ENDBRANCH   1   2
BRANCH   1   5
ATOM      5  C   UNL     1       5.407   1.729  -0.236  1.00  0.00     0.043 C 
BRANCH   5   6
ATOM      6  C   UNL     1       6.573   1.027  -0.800  1.00  0.00    -0.044 A 
ATOM      7  C   UNL     1       7.881   1.459  -0.549  1.00  0.00     0.008 A 
ATOM      8  C   UNL     1       6.385  -0.083  -1.592  1.00  0.00     0.054 A 
ATOM      9  C   UNL     1       8.937   0.760  -1.105  1.00  0.00     0.051 A 
ATOM     10  C   UNL     1       7.456  -0.787  -2.151  1.00  0.00     0.166 A 
ATOM     11  C   UNL     1       8.742  -0.361  -1.905  1.00  0.00     0.165 A 
ATOM     12  O   UNL     1       7.528  -1.901  -2.959  1.00  0.00    -0.454 OA
ATOM     13  O   UNL     1       9.587  -1.233  -2.575  1.00  0.00    -0.454 OA
ATOM     14  C   UNL     1       8.863  -2.277  -3.181  1.00  0.00     0.468 C 
ENDBRANCH   5   6
ENDBRANCH   1   5
TORSDOF 3
ENDMDL
MODEL 2
REMARK VINA RESULT:      -7.5      1.934      2.394
REMARK SMILES CC(=O)CCc1ccc2c(c1)OCO2
REMARK SMILES IDX 4 1 2 2 1 3 3 4 5 5 6 6 7 7 11 8 8 9 10 10 9 11 12 12 14 13
REMARK SMILES IDX 13 14
REMARK H PARENT
REMARK Flexibility Score: inf
ROOT
ATOM      1  C   UNL     1       5.739   1.314  -0.318  1.00  0.00     0.080 C 
ENDROOT
BRANCH   1   2
ATOM      2  C   UNL     1       5.129   1.253   1.039  1.00  0.00     0.130 C 
ATOM      3  C   UNL     1       5.372   0.105   1.953  1.00  0.00     0.087 C 
ATOM      4  O   UNL     1       4.406   2.150   1.443  1.00  0.00    -0.300 OA
ENDBRANCH   1   2
BRANCH   1   5
ATOM      5  C   UNL     1       7.237   1.087  -0.260  1.00  0.00     0.043 C 
BRANCH   5   6
ATOM      6  C   UNL     1       7.617  -0.201  -0.866  1.00  0.00    -0.044 A 
ATOM      7  C   UNL     1       7.713  -0.358  -2.254  1.00  0.00     0.008 A 
ATOM      8  C   UNL     1       7.890  -1.282  -0.059  1.00  0.00     0.054 A 
ATOM      9  C   UNL     1       8.076  -1.591  -2.766  1.00  0.00     0.051 A 
ATOM     10  C   UNL     1       8.257  -2.526  -0.582  1.00  0.00     0.166 A 
ATOM     11  C   UNL     1       8.350  -2.681  -1.947  1.00  0.00     0.165 A 
ATOM     12  O   UNL     1       8.573  -3.734   0.002  1.00  0.00    -0.454 OA
ATOM     13  O   UNL     1       8.726  -3.995  -2.176  1.00  0.00    -0.454 OA
ATOM     14  C   UNL     1       8.967  -4.673  -0.966  1.00  0.00     0.468 C 
ENDBRANCH   5   6
ENDBRANCH   1   5
TORSDOF 3
ENDMDL
MODEL 3
REMARK VINA RESULT:      -7.3      2.055      2.621
REMARK SMILES CC(=O)CCc1ccc2c(c1)OCO2
REMARK SMILES IDX 4 1 2 2 1 3 3 4 5 5 6 6 7 7 11 8 8 9 10 10 9 11 12 12 14 13
REMARK SMILES IDX 13 14
REMARK H PARENT
REMARK Flexibility Score: inf
ROOT
ATOM      1  C   UNL     1       5.438  -0.034   2.027  1.00  0.00     0.080 C 
ENDROOT
BRANCH   1   2
ATOM      2  C   UNL     1       4.570   1.148   1.767  1.00  0.00     0.130 C 
ATOM      3  C   UNL     1       4.893   2.134   0.701  1.00  0.00     0.087 C 
ATOM      4  O   UNL     1       3.562   1.342   2.427  1.00  0.00    -0.300 OA
ENDBRANCH   1   2
BRANCH   1   5
ATOM      5  C   UNL     1       6.866   0.224   1.589  1.00  0.00     0.043 C 
BRANCH   5   6
ATOM      6  C   UNL     1       7.290  -0.707   0.528  1.00  0.00    -0.044 A 
ATOM      7  C   UNL     1       7.168  -0.379  -0.827  1.00  0.00     0.008 A 
ATOM      8  C   UNL     1       7.821  -1.931   0.867  1.00  0.00     0.054 A 
ATOM      9  C   UNL     1       7.583  -1.293  -1.778  1.00  0.00     0.051 A 
ATOM     10  C   UNL     1       8.240  -2.851  -0.099  1.00  0.00     0.166 A 
ATOM     11  C   UNL     1       8.119  -2.530  -1.432  1.00  0.00     0.165 A 
ATOM     12  O   UNL     1       8.791  -4.112  -0.018  1.00  0.00    -0.454 OA
ATOM     13  O   UNL     1       8.605  -3.611  -2.151  1.00  0.00    -0.454 OA
ATOM     14  C   UNL     1       9.125  -4.599  -1.293  1.00  0.00     0.468 C 
ENDBRANCH   5   6
ENDBRANCH   1   5
TORSDOF 3
ENDMDL
MODEL 4
REMARK VINA RESULT:      -7.2      1.248      1.457
REMARK SMILES CC(=O)CCc1ccc2c(c1)OCO2
REMARK SMILES IDX 4 1 2 2 1 3 3 4 5 5 6 6 7 7 11 8 8 9 10 10 9 11 12 12 14 13
REMARK SMILES IDX 13 14
REMARK H PARENT
REMARK Flexibility Score: inf
ROOT
ATOM      1  C   UNL     1       6.365   1.216   0.904  1.00  0.00     0.080 C 
ENDROOT
BRANCH   1   2
ATOM      2  C   UNL     1       5.669   0.393   1.932  1.00  0.00     0.130 C 
ATOM      3  C   UNL     1       6.293  -0.828   2.508  1.00  0.00     0.087 C 
ATOM      4  O   UNL     1       4.558   0.700   2.333  1.00  0.00    -0.300 OA
ENDBRANCH   1   2
BRANCH   1   5
ATOM      5  C   UNL     1       5.851   0.908  -0.488  1.00  0.00     0.043 C 
BRANCH   5   6
ATOM      6  C   UNL     1       6.808   0.093  -1.257  1.00  0.00    -0.044 A 
ATOM      7  C   UNL     1       7.504   0.618  -2.352  1.00  0.00     0.008 A 
ATOM      8  C   UNL     1       7.032  -1.216  -0.897  1.00  0.00     0.054 A 
ATOM      9  C   UNL     1       8.391  -0.194  -3.035  1.00  0.00     0.051 A 
ATOM     10  C   UNL     1       7.931  -2.033  -1.591  1.00  0.00     0.166 A 
ATOM     11  C   UNL     1       8.615  -1.518  -2.669  1.00  0.00     0.165 A 
ATOM     12  O   UNL     1       8.322  -3.346  -1.433  1.00  0.00    -0.454 OA
ATOM     13  O   UNL     1       9.422  -2.535  -3.155  1.00  0.00    -0.454 OA
ATOM     14  C   UNL     1       9.335  -3.683  -2.346  1.00  0.00     0.468 C 
ENDBRANCH   5   6
ENDBRANCH   1   5
TORSDOF 3
ENDMDL
MODEL 5
REMARK VINA RESULT:      -6.8      1.185      5.184
REMARK SMILES CC(=O)CCc1ccc2c(c1)OCO2
REMARK SMILES IDX 4 1 2 2 1 3 3 4 5 5 6 6 7 7 11 8 8 9 10 10 9 11 12 12 14 13
REMARK SMILES IDX 13 14
REMARK H PARENT
REMARK Flexibility Score: inf
ROOT
ATOM      1  C   UNL     1       8.369   0.245  -2.545  1.00  0.00     0.080 C 
ENDROOT
BRANCH   1   2
ATOM      2  C   UNL     1       8.030  -1.197  -2.699  1.00  0.00     0.130 C 
ATOM      3  C   UNL     1       9.063  -2.209  -3.046  1.00  0.00     0.087 C 
ATOM      4  O   UNL     1       6.885  -1.592  -2.544  1.00  0.00    -0.300 OA
ENDBRANCH   1   2
BRANCH   1   5
ATOM      5  C   UNL     1       8.876   0.545  -1.148  1.00  0.00     0.043 C 
BRANCH   5   6
ATOM      6  C   UNL     1       7.810   0.410  -0.139  1.00  0.00    -0.044 A 
ATOM      7  C   UNL     1       7.874  -0.556   0.871  1.00  0.00     0.008 A 
ATOM      8  C   UNL     1       6.722   1.252  -0.180  1.00  0.00     0.054 A 
ATOM      9  C   UNL     1       6.844  -0.635   1.791  1.00  0.00     0.051 A 
ATOM     10  C   UNL     1       5.683   1.169   0.753  1.00  0.00     0.166 A 
ATOM     11  C   UNL     1       5.745   0.217   1.746  1.00  0.00     0.165 A 
ATOM     12  O   UNL     1       4.513   1.878   0.922  1.00  0.00    -0.454 OA
ATOM     13  O   UNL     1       4.600   0.364   2.514  1.00  0.00    -0.454 OA
ATOM     14  C   UNL     1       3.836   1.464   2.081  1.00  0.00     0.468 C 
ENDBRANCH   5   6
ENDBRANCH   1   5
TORSDOF 3
ENDMDL
