MODEL 1
REMARK VINA RESULT:       1.2      0.000      0.000
REMARK SMILES CC(=O)CCc1ccc2c(c1)OCO2
REMARK SMILES IDX 4 1 2 2 1 3 3 4 5 5 6 6 7 7 11 8 8 9 10 10 9 11 12 12 14 13
REMARK SMILES IDX 13 14
REMARK H PARENT
REMARK Flexibility Score: inf
ROOT
ATOM      1  C   UNL     1       8.792  -4.786  -0.374  1.00  0.00     0.080 C 
ENDROOT
BRANCH   1   2
ATOM      2  C   UNL     1       9.524  -4.687  -1.668  1.00  0.00     0.130 C 
ATOM      3  C   UNL     1      10.362  -5.805  -2.178  1.00  0.00     0.087 C 
ATOM      4  O   UNL     1       9.457  -3.678  -2.351  1.00  0.00    -0.300 OA
ENDBRANCH   1   2
BRANCH   1   5
ATOM      5  C   UNL     1       9.537  -4.071   0.736  1.00  0.00     0.043 C 
BRANCH   5   6
ATOM      6  C   UNL     1       8.881  -2.805   1.107  1.00  0.00    -0.044 A 
ATOM      7  C   UNL     1       9.605  -1.614   1.233  1.00  0.00     0.008 A 
ATOM      8  C   UNL     1       7.524  -2.781   1.336  1.00  0.00     0.054 A 
ATOM      9  C   UNL     1       8.935  -0.455   1.583  1.00  0.00     0.051 A 
ATOM     10  C   UNL     1       6.852  -1.607   1.690  1.00  0.00     0.166 A 
ATOM     11  C   UNL     1       7.563  -0.435   1.815  1.00  0.00     0.165 A 
ATOM     12  O   UNL     1       5.530  -1.329   1.966  1.00  0.00    -0.454 OA
ATOM     13  O   UNL     1       6.654   0.550   2.168  1.00  0.00    -0.454 OA
ATOM     14  C   UNL     1       5.340   0.046   2.187  1.00  0.00     0.468 C 
ENDBRANCH   5   6
ENDBRANCH   1   5
TORSDOF 3
ENDMDL
MODEL 2
REMARK VINA RESULT:       1.3      2.894      6.996
REMARK SMILES CC(=O)CCc1ccc2c(c1)OCO2
REMARK SMILES IDX 4 1 2 2 1 3 3 4 5 5 6 6 7 7 11 8 8 9 10 10 9 11 12 12 14 13
REMARK SMILES IDX 13 14
REMARK H PARENT
REMARK Flexibility Score: inf
ROOT
ATOM      1  C   UNL     1       2.238  -0.055   2.896  1.00  0.00     0.080 C 
ENDROOT
BRANCH   1   2
ATOM      2  C   UNL     1       0.804   0.329   3.025  1.00  0.00     0.130 C 
ATOM      3  C   UNL     1       0.253   1.532   2.346  1.00  0.00     0.087 C 
ATOM      4  O   UNL     1       0.035  -0.339   3.698  1.00  0.00    -0.300 OA
ENDBRANCH   1   2
BRANCH   1   5
ATOM      5  C   UNL     1       3.054   1.067   2.286  1.00  0.00     0.043 C 
BRANCH   5   6
ATOM      6  C   UNL     1       4.462   0.676   2.095  1.00  0.00    -0.044 A 
ATOM      7  C   UNL     1       5.475   1.632   1.952  1.00  0.00     0.008 A 
ATOM      8  C   UNL     1       4.801  -0.657   2.057  1.00  0.00     0.054 A 
ATOM      9  C   UNL     1       6.779   1.206   1.776  1.00  0.00     0.051 A 
ATOM     10  C   UNL     1       6.121  -1.082   1.880  1.00  0.00     0.166 A 
ATOM     11  C   UNL     1       7.118  -0.143   1.738  1.00  0.00     0.165 A 
ATOM     12  O   UNL     1       6.705  -2.329   1.807  1.00  0.00    -0.454 OA
ATOM     13  O   UNL     1       8.306  -0.840   1.580  1.00  0.00    -0.454 OA
ATOM     14  C   UNL     1       8.102  -2.227   1.709  1.00  0.00     0.468 C 
ENDBRANCH   5   6
ENDBRANCH   1   5
TORSDOF 3
ENDMDL
MODEL 3
REMARK VINA RESULT:       2.2      9.538     10.908
REMARK SMILES CC(=O)CCc1ccc2c(c1)OCO2
REMARK SMILES IDX 4 1 2 2 1 3 3 4 5 5 6 6 7 7 11 8 8 9 10 10 9 11 12 12 14 13
REMARK SMILES IDX 13 14
REMARK H PARENT
REMARK Flexibility Score: inf
ROOT
ATOM      1  C   UNL     1       2.171  -7.565  -0.692  1.00  0.00     0.080 C 
ENDROOT
BRANCH   1   2
ATOM      2  C   UNL     1       2.298  -6.097  -0.471  1.00  0.00     0.130 C 
ATOM      3  C   UNL     1       2.209  -5.128  -1.595  1.00  0.00     0.087 C 
ATOM      4  O   UNL     1       2.481  -5.646   0.648  1.00  0.00    -0.300 OA
ENDBRANCH   1   2
BRANCH   1   5
ATOM      5  C   UNL     1       2.752  -8.349   0.468  1.00  0.00     0.043 C 
BRANCH   5   6
ATOM      6  C   UNL     1       1.884  -9.475   0.856  1.00  0.00    -0.044 A 
ATOM      7  C   UNL     1       2.415 -10.695   1.290  1.00  0.00     0.008 A 
ATOM      8  C   UNL     1       0.516  -9.334   0.796  1.00  0.00     0.054 A 
ATOM      9  C   UNL     1       1.551 -11.716   1.642  1.00  0.00     0.051 A 
ATOM     10  C   UNL     1      -0.353 -10.369   1.153  1.00  0.00     0.166 A 
ATOM     11  C   UNL     1       0.169 -11.570   1.580  1.00  0.00     0.165 A 
ATOM     12  O   UNL     1      -1.728 -10.475   1.179  1.00  0.00    -0.454 OA
ATOM     13  O   UNL     1      -0.907 -12.397   1.863  1.00  0.00    -0.454 OA
ATOM     14  C   UNL     1      -2.128 -11.713   1.709  1.00  0.00     0.468 C 
ENDBRANCH   5   6
ENDBRANCH   1   5
TORSDOF 3
ENDMDL
MODEL 4
REMARK VINA RESULT:       2.7      0.896      1.023
REMARK SMILES CC(=O)CCc1ccc2c(c1)OCO2
REMARK SMILES IDX 4 1 2 2 1 3 3 4 5 5 6 6 7 7 11 8 8 9 10 10 9 11 12 12 14 13
REMARK SMILES IDX 13 14
REMARK H PARENT
REMARK Flexibility Score: inf
ROOT
ATOM      1  C   UNL     1       9.614  -3.866   0.175  1.00  0.00     0.080 C 
ENDROOT
BRANCH   1   2
ATOM      2  C   UNL     1       9.272  -4.557  -1.099  1.00  0.00     0.130 C 
ATOM      3  C   UNL     1       8.932  -6.005  -1.135  1.00  0.00     0.087 C 
ATOM      4  O   UNL     1       9.262  -3.951  -2.159  1.00  0.00    -0.300 OA
ENDBRANCH   1   2
BRANCH   1   5
ATOM      5  C   UNL     1       8.436  -3.855   1.129  1.00  0.00     0.043 C 
BRANCH   5   6
ATOM      6  C   UNL     1       7.965  -2.485   1.399  1.00  0.00    -0.044 A 
ATOM      7  C   UNL     1       8.853  -1.406   1.476  1.00  0.00     0.008 A 
ATOM      8  C   UNL     1       6.621  -2.249   1.579  1.00  0.00     0.054 A 
ATOM      9  C   UNL     1       8.352  -0.142   1.731  1.00  0.00     0.051 A 
ATOM     10  C   UNL     1       6.120  -0.970   1.836  1.00  0.00     0.166 A 
ATOM     11  C   UNL     1       6.993   0.092   1.913  1.00  0.00     0.165 A 
ATOM     12  O   UNL     1       4.847  -0.484   2.049  1.00  0.00    -0.454 OA
ATOM     13  O   UNL     1       6.230   1.220   2.174  1.00  0.00    -0.454 OA
ATOM     14  C   UNL     1       4.856   0.914   2.177  1.00  0.00     0.468 C 
ENDBRANCH   5   6
ENDBRANCH   1   5
TORSDOF 3
ENDMDL
MODEL 5
REMARK VINA RESULT:       2.8      9.660     11.036
REMARK SMILES CC(=O)CCc1ccc2c(c1)OCO2
REMARK SMILES IDX 4 1 2 2 1 3 3 4 5 5 6 6 7 7 11 8 8 9 10 10 9 11 12 12 14 13
REMARK SMILES IDX 13 14
REMARK H PARENT
REMARK Flexibility Score: inf
ROOT
ATOM      1  C   UNL     1       2.699  -7.675  -0.815  1.00  0.00     0.080 C 
ENDROOT
BRANCH   1   2
ATOM      2  C   UNL     1       2.429  -6.303  -0.304  1.00  0.00     0.130 C 
ATOM      3  C   UNL     1       2.012  -5.199  -1.210  1.00  0.00     0.087 C 
ATOM      4  O   UNL     1       2.543  -6.043   0.883  1.00  0.00    -0.300 OA
ENDBRANCH   1   2
BRANCH   1   5
ATOM      5  C   UNL     1       2.852  -8.666   0.322  1.00  0.00     0.043 C 
BRANCH   5   6
ATOM      6  C   UNL     1       1.591  -9.377   0.599  1.00  0.00    -0.044 A 
ATOM      7  C   UNL     1       0.354  -8.859   0.201  1.00  0.00     0.008 A 
ATOM      8  C   UNL     1       1.620 -10.583   1.263  1.00  0.00     0.054 A 
ATOM      9  C   UNL     1      -0.796  -9.571   0.489  1.00  0.00     0.051 A 
ATOM     10  C   UNL     1       0.455 -11.299   1.551  1.00  0.00     0.166 A 
ATOM     11  C   UNL     1      -0.764 -10.789   1.161  1.00  0.00     0.165 A 
ATOM     12  O   UNL     1       0.223 -12.499   2.189  1.00  0.00    -0.454 OA
ATOM     13  O   UNL     1      -1.728 -11.696   1.571  1.00  0.00    -0.454 OA
ATOM     14  C   UNL     1      -1.140 -12.838   2.147  1.00  0.00     0.468 C 
ENDBRANCH   5   6
ENDBRANCH   1   5
TORSDOF 3
ENDMDL
