@<TRIPOS>MOLECULE
/home/cewinharhar/GITHUB/reincatalyze/data/processed/docking_pred/2023-May-31-1438_sub9_nm5_bs15_s42_ex16_mel10_mts1000_k50_ec05_g099_lra9e-4_lrc3e-3/8a11bcf53d23875e79cb17a52aa7b3de0dc85e7d_ligand_9.pdbqt
 14 15 0 0 0
SMALL
GASTEIGER

@<TRIPOS>ATOM
      1  C          2.2380   -0.0550    2.8960 C.3     1  UNL1        0.0800
      2  C          0.8040    0.3290    3.0250 C.2     1  UNL1        0.1300
      3  C          0.2530    1.5320    2.3460 C.3     1  UNL1        0.0870
      4  O          0.0350   -0.3390    3.6980 O.2     1  UNL1       -0.3000
      5  C          3.0540    1.0670    2.2860 C.3     1  UNL1        0.0430
      6  C          4.4620    0.6760    2.0950 C.2     1  UNL1       -0.0440
      7  C          5.4750    1.6320    1.9520 C.2     1  UNL1        0.0080
      8  C          4.8010   -0.6570    2.0570 C.2     1  UNL1        0.0540
      9  C          6.7790    1.2060    1.7760 C.2     1  UNL1        0.0510
     10  C          6.1210   -1.0820    1.8800 C.2     1  UNL1        0.1660
     11  C          7.1180   -0.1430    1.7380 C.2     1  UNL1        0.1650
     12  O          6.7050   -2.3290    1.8070 O.2     1  UNL1       -0.4540
     13  O          8.3060   -0.8400    1.5800 O.2     1  UNL1       -0.4540
     14  C          8.1020   -2.2270    1.7090 C.3     1  UNL1        0.4680
@<TRIPOS>BOND
     1    13    14    1
     2    13    11    1
     3    14    12    1
     4    11     9    2
     5    11    10    1
     6     9     7    1
     7    12    10    1
     8    10     8    2
     9     7     6    2
    10     8     6    1
    11     6     5    1
    12     5     1    1
    13     3     2    1
    14     1     2    1
    15     2     4    2
