@<TRIPOS>MOLECULE
/home/cewinharhar/GITHUB/reincatalyze/data/processed/docking_pred/2023-May-31-1438_sub9_nm5_bs15_s42_ex16_mel10_mts1000_k50_ec05_g099_lra9e-4_lrc3e-3/8a11bcf53d23875e79cb17a52aa7b3de0dc85e7d_ligand_9.pdbqt
 14 15 0 0 0
SMALL
GASTEIGER

@<TRIPOS>ATOM
      1  C          2.6990   -7.6750   -0.8150 C.3     1  UNL1        0.0800
      2  C          2.4290   -6.3030   -0.3040 C.2     1  UNL1        0.1300
      3  C          2.0120   -5.1990   -1.2100 C.3     1  UNL1        0.0870
      4  O          2.5430   -6.0430    0.8830 O.2     1  UNL1       -0.3000
      5  C          2.8520   -8.6660    0.3220 C.3     1  UNL1        0.0430
      6  C          1.5910   -9.3770    0.5990 C.2     1  UNL1       -0.0440
      7  C          0.3540   -8.8590    0.2010 C.2     1  UNL1        0.0080
      8  C          1.6200  -10.5830    1.2630 C.2     1  UNL1        0.0540
      9  C         -0.7960   -9.5710    0.4890 C.2     1  UNL1        0.0510
     10  C          0.4550  -11.2990    1.5510 C.2     1  UNL1        0.1660
     11  C         -0.7640  -10.7890    1.1610 C.2     1  UNL1        0.1650
     12  O          0.2230  -12.4990    2.1890 O.2     1  UNL1       -0.4540
     13  O         -1.7280  -11.6960    1.5710 O.2     1  UNL1       -0.4540
     14  C         -1.1400  -12.8380    2.1470 C.3     1  UNL1        0.4680
@<TRIPOS>BOND
     1     3     2    1
     2     1     2    1
     3     1     5    1
     4     2     4    2
     5     7     9    1
     6     7     6    2
     7     5     6    1
     8     9    11    2
     9     6     8    1
    10    11    10    1
    11    11    13    1
    12     8    10    2
    13    10    12    1
    14    13    14    1
    15    14    12    1
