@<TRIPOS>MOLECULE
/home/cewinharhar/GITHUB/reincatalyze/data/processed/docking_pred/2023-May-31-1438_sub9_nm5_bs15_s42_ex16_mel10_mts1000_k50_ec05_g099_lra9e-4_lrc3e-3/8a11bcf53d23875e79cb17a52aa7b3de0dc85e7d_ligand_9.pdbqt
 14 15 0 0 0
SMALL
GASTEIGER

@<TRIPOS>ATOM
      1  C          9.6140   -3.8660    0.1750 C.3     1  UNL1        0.0800
      2  C          9.2720   -4.5570   -1.0990 C.2     1  UNL1        0.1300
      3  C          8.9320   -6.0050   -1.1350 C.3     1  UNL1        0.0870
      4  O          9.2620   -3.9510   -2.1590 O.2     1  UNL1       -0.3000
      5  C          8.4360   -3.8550    1.1290 C.3     1  UNL1        0.0430
      6  C          7.9650   -2.4850    1.3990 C.2     1  UNL1       -0.0440
      7  C          8.8530   -1.4060    1.4760 C.2     1  UNL1        0.0080
      8  C          6.6210   -2.2490    1.5790 C.2     1  UNL1        0.0540
      9  C          8.3520   -0.1420    1.7310 C.2     1  UNL1        0.0510
     10  C          6.1200   -0.9700    1.8360 C.2     1  UNL1        0.1660
     11  C          6.9930    0.0920    1.9130 C.2     1  UNL1        0.1650
     12  O          4.8470   -0.4840    2.0490 O.2     1  UNL1       -0.4540
     13  O          6.2300    1.2200    2.1740 O.2     1  UNL1       -0.4540
     14  C          4.8560    0.9140    2.1770 C.3     1  UNL1        0.4680
@<TRIPOS>BOND
     1     4     2    2
     2     3     2    1
     3     2     1    1
     4     1     5    1
     5     5     6    1
     6     6     7    2
     7     6     8    1
     8     7     9    1
     9     8    10    2
    10     9    11    2
    11    10    11    1
    12    10    12    1
    13    11    13    1
    14    12    14    1
    15    13    14    1
