@<TRIPOS>MOLECULE
/home/cewinharhar/GITHUB/reincatalyze/data/processed/docking_pred/2023-May-31-1438_sub9_nm5_bs15_s42_ex16_mel10_mts1000_k50_ec05_g099_lra9e-4_lrc3e-3/8c75984685002de52dc1feb6518b36ce8b766619_ligand_9.pdbqt
 14 15 0 0 0
SMALL
GASTEIGER

@<TRIPOS>ATOM
      1  C          5.5090   -0.0010    1.9620 C.3     1  UNL1        0.0800
      2  C          4.6230    1.1610    1.6740 C.2     1  UNL1        0.1300
      3  C          4.9220    2.1170    0.5740 C.3     1  UNL1        0.0870
      4  O          3.6190    1.3640    2.3380 O.2     1  UNL1       -0.3000
      5  C          6.9250    0.2540    1.4850 C.3     1  UNL1        0.0430
      6  C          7.3260   -0.6940    0.4310 C.2     1  UNL1       -0.0440
      7  C          7.1850   -0.3850   -0.9270 C.2     1  UNL1        0.0080
      8  C          7.8560   -1.9160    0.7790 C.2     1  UNL1        0.0540
      9  C          7.5790   -1.3140   -1.8720 C.2     1  UNL1        0.0510
     10  C          8.2550   -2.8520   -0.1810 C.2     1  UNL1        0.1660
     11  C          8.1140   -2.5490   -1.5170 C.2     1  UNL1        0.1650
     12  O          8.8000   -4.1150   -0.0910 O.2     1  UNL1       -0.4540
     13  O          8.5830   -3.6430   -2.2270 O.2     1  UNL1       -0.4540
     14  C          9.1110   -4.6210   -1.3640 C.3     1  UNL1        0.4680
@<TRIPOS>BOND
     1    13    11    1
     2    13    14    1
     3     9    11    2
     4     9     7    1
     5    11    10    1
     6    14    12    1
     7     7     6    2
     8    10    12    1
     9    10     8    2
    10     6     8    1
    11     6     5    1
    12     3     2    1
    13     5     1    1
    14     2     1    1
    15     2     4    2
