MODEL 1
REMARK VINA RESULT:      -7.7      0.000      0.000
REMARK SMILES CC(=O)CCc1ccc2c(c1)OCO2
REMARK SMILES IDX 4 1 2 2 1 3 3 4 5 5 6 6 7 7 11 8 8 9 10 10 9 11 12 12 14 13
REMARK SMILES IDX 13 14
REMARK H PARENT
REMARK Flexibility Score: inf
ROOT
ATOM      1  C   UNL     1       5.507   1.919   1.258  1.00  0.00     0.080 C 
ENDROOT
BRANCH   1   2
ATOM      2  C   UNL     1       5.065   0.703   1.997  1.00  0.00     0.130 C 
ATOM      3  C   UNL     1       5.953  -0.479   2.156  1.00  0.00     0.087 C 
ATOM      4  O   UNL     1       3.953   0.643   2.496  1.00  0.00    -0.300 OA
ENDBRANCH   1   2
BRANCH   1   5
ATOM      5  C   UNL     1       5.386   1.726  -0.241  1.00  0.00     0.043 C 
BRANCH   5   6
ATOM      6  C   UNL     1       6.556   1.024  -0.797  1.00  0.00    -0.044 A 
ATOM      7  C   UNL     1       7.862   1.454  -0.536  1.00  0.00     0.008 A 
ATOM      8  C   UNL     1       6.372  -0.085  -1.592  1.00  0.00     0.054 A 
ATOM      9  C   UNL     1       8.921   0.755  -1.085  1.00  0.00     0.051 A 
ATOM     10  C   UNL     1       7.446  -0.789  -2.144  1.00  0.00     0.166 A 
ATOM     11  C   UNL     1       8.731  -0.365  -1.889  1.00  0.00     0.165 A 
ATOM     12  O   UNL     1       7.523  -1.902  -2.953  1.00  0.00    -0.454 OA
ATOM     13  O   UNL     1       9.580  -1.237  -2.553  1.00  0.00    -0.454 OA
ATOM     14  C   UNL     1       8.859  -2.280  -3.166  1.00  0.00     0.468 C 
ENDBRANCH   5   6
ENDBRANCH   1   5
TORSDOF 3
ENDMDL
MODEL 2
REMARK VINA RESULT:      -7.5      1.934      2.391
REMARK SMILES CC(=O)CCc1ccc2c(c1)OCO2
REMARK SMILES IDX 4 1 2 2 1 3 3 4 5 5 6 6 7 7 11 8 8 9 10 10 9 11 12 12 14 13
REMARK SMILES IDX 13 14
REMARK H PARENT
REMARK Flexibility Score: inf
ROOT
ATOM      1  C   UNL     1       5.692   1.255  -0.302  1.00  0.00     0.080 C 
ENDROOT
BRANCH   1   2
ATOM      2  C   UNL     1       5.135   1.215   1.079  1.00  0.00     0.130 C 
ATOM      3  C   UNL     1       5.349   0.047   1.975  1.00  0.00     0.087 C 
ATOM      4  O   UNL     1       4.481   2.148   1.518  1.00  0.00    -0.300 OA
ENDBRANCH   1   2
BRANCH   1   5
ATOM      5  C   UNL     1       7.197   1.077  -0.293  1.00  0.00     0.043 C 
BRANCH   5   6
ATOM      6  C   UNL     1       7.599  -0.211  -0.886  1.00  0.00    -0.044 A 
ATOM      7  C   UNL     1       7.733  -0.372  -2.269  1.00  0.00     0.008 A 
ATOM      8  C   UNL     1       7.853  -1.289  -0.068  1.00  0.00     0.054 A 
ATOM      9  C   UNL     1       8.113  -1.604  -2.768  1.00  0.00     0.051 A 
ATOM     10  C   UNL     1       8.238  -2.533  -0.577  1.00  0.00     0.166 A 
ATOM     11  C   UNL     1       8.369  -2.692  -1.938  1.00  0.00     0.165 A 
ATOM     12  O   UNL     1       8.541  -3.739   0.018  1.00  0.00    -0.454 OA
ATOM     13  O   UNL     1       8.755  -4.005  -2.153  1.00  0.00    -0.454 OA
ATOM     14  C   UNL     1       8.964  -4.679  -0.935  1.00  0.00     0.468 C 
ENDBRANCH   5   6
ENDBRANCH   1   5
TORSDOF 3
ENDMDL
MODEL 3
REMARK VINA RESULT:      -7.2      2.049      2.599
REMARK SMILES CC(=O)CCc1ccc2c(c1)OCO2
REMARK SMILES IDX 4 1 2 2 1 3 3 4 5 5 6 6 7 7 11 8 8 9 10 10 9 11 12 12 14 13
REMARK SMILES IDX 13 14
REMARK H PARENT
REMARK Flexibility Score: inf
ROOT
ATOM      1  C   UNL     1       5.509  -0.001   1.962  1.00  0.00     0.080 C 
ENDROOT
BRANCH   1   2
ATOM      2  C   UNL     1       4.623   1.161   1.674  1.00  0.00     0.130 C 
ATOM      3  C   UNL     1       4.922   2.117   0.574  1.00  0.00     0.087 C 
ATOM      4  O   UNL     1       3.619   1.364   2.338  1.00  0.00    -0.300 OA
ENDBRANCH   1   2
BRANCH   1   5
ATOM      5  C   UNL     1       6.925   0.254   1.485  1.00  0.00     0.043 C 
BRANCH   5   6
ATOM      6  C   UNL     1       7.326  -0.694   0.431  1.00  0.00    -0.044 A 
ATOM      7  C   UNL     1       7.185  -0.385  -0.927  1.00  0.00     0.008 A 
ATOM      8  C   UNL     1       7.856  -1.916   0.779  1.00  0.00     0.054 A 
ATOM      9  C   UNL     1       7.579  -1.314  -1.872  1.00  0.00     0.051 A 
ATOM     10  C   UNL     1       8.255  -2.852  -0.181  1.00  0.00     0.166 A 
ATOM     11  C   UNL     1       8.114  -2.549  -1.517  1.00  0.00     0.165 A 
ATOM     12  O   UNL     1       8.800  -4.115  -0.091  1.00  0.00    -0.454 OA
ATOM     13  O   UNL     1       8.583  -3.643  -2.227  1.00  0.00    -0.454 OA
ATOM     14  C   UNL     1       9.111  -4.621  -1.364  1.00  0.00     0.468 C 
ENDBRANCH   5   6
ENDBRANCH   1   5
TORSDOF 3
ENDMDL
MODEL 4
REMARK VINA RESULT:      -7.1      1.256      1.467
REMARK SMILES CC(=O)CCc1ccc2c(c1)OCO2
REMARK SMILES IDX 4 1 2 2 1 3 3 4 5 5 6 6 7 7 11 8 8 9 10 10 9 11 12 12 14 13
REMARK SMILES IDX 13 14
REMARK H PARENT
REMARK Flexibility Score: inf
ROOT
ATOM      1  C   UNL     1       6.383   1.204   0.934  1.00  0.00     0.080 C 
ENDROOT
BRANCH   1   2
ATOM      2  C   UNL     1       5.660   0.380   1.943  1.00  0.00     0.130 C 
ATOM      3  C   UNL     1       6.266  -0.847   2.528  1.00  0.00     0.087 C 
ATOM      4  O   UNL     1       4.542   0.689   2.321  1.00  0.00    -0.300 OA
ENDBRANCH   1   2
BRANCH   1   5
ATOM      5  C   UNL     1       5.874   0.929  -0.467  1.00  0.00     0.043 C 
BRANCH   5   6
ATOM      6  C   UNL     1       6.821   0.105  -1.240  1.00  0.00    -0.044 A 
ATOM      7  C   UNL     1       7.504   0.618  -2.348  1.00  0.00     0.008 A 
ATOM      8  C   UNL     1       7.048  -1.201  -0.870  1.00  0.00     0.054 A 
ATOM      9  C   UNL     1       8.381  -0.202  -3.035  1.00  0.00     0.051 A 
ATOM     10  C   UNL     1       7.936  -2.026  -1.567  1.00  0.00     0.166 A 
ATOM     11  C   UNL     1       8.608  -1.522  -2.659  1.00  0.00     0.165 A 
ATOM     12  O   UNL     1       8.327  -3.338  -1.402  1.00  0.00    -0.454 OA
ATOM     13  O   UNL     1       9.406  -2.545  -3.145  1.00  0.00    -0.454 OA
ATOM     14  C   UNL     1       9.328  -3.686  -2.324  1.00  0.00     0.468 C 
ENDBRANCH   5   6
ENDBRANCH   1   5
TORSDOF 3
ENDMDL
MODEL 5
REMARK VINA RESULT:      -7.0      1.988      2.540
REMARK SMILES CC(=O)CCc1ccc2c(c1)OCO2
REMARK SMILES IDX 4 1 2 2 1 3 3 4 5 5 6 6 7 7 11 8 8 9 10 10 9 11 12 12 14 13
REMARK SMILES IDX 13 14
REMARK H PARENT
REMARK Flexibility Score: inf
ROOT
ATOM      1  C   UNL     1       6.892   0.927   1.304  1.00  0.00     0.080 C 
ENDROOT
BRANCH   1   2
ATOM      2  C   UNL     1       5.425   1.150   1.432  1.00  0.00     0.130 C 
ATOM      3  C   UNL     1       4.710   2.147   0.590  1.00  0.00     0.087 C 
ATOM      4  O   UNL     1       4.762   0.517   2.237  1.00  0.00    -0.300 OA
ENDBRANCH   1   2
BRANCH   1   5
ATOM      5  C   UNL     1       7.349   1.083  -0.133  1.00  0.00     0.043 C 
BRANCH   5   6
ATOM      6  C   UNL     1       7.666  -0.217  -0.750  1.00  0.00    -0.044 A 
ATOM      7  C   UNL     1       7.678  -0.386  -2.139  1.00  0.00     0.008 A 
ATOM      8  C   UNL     1       7.962  -1.298   0.050  1.00  0.00     0.054 A 
ATOM      9  C   UNL     1       7.984  -1.629  -2.662  1.00  0.00     0.051 A 
ATOM     10  C   UNL     1       8.271  -2.553  -0.483  1.00  0.00     0.166 A 
ATOM     11  C   UNL     1       8.282  -2.720  -1.850  1.00  0.00     0.165 A 
ATOM     12  O   UNL     1       8.594  -3.764   0.091  1.00  0.00    -0.454 OA
ATOM     13  O   UNL     1       8.616  -4.044  -2.090  1.00  0.00    -0.454 OA
ATOM     14  C   UNL     1       8.911  -4.718  -0.890  1.00  0.00     0.468 C 
ENDBRANCH   5   6
ENDBRANCH   1   5
TORSDOF 3
ENDMDL
