@<TRIPOS>MOLECULE
/home/cewinharhar/GITHUB/reincatalyze/data/processed/docking_pred/2023-May-31-1438_sub9_nm5_bs15_s42_ex16_mel10_mts1000_k50_ec05_g099_lra9e-4_lrc3e-3/8c75984685002de52dc1feb6518b36ce8b766619_ligand_9.pdbqt
 14 15 0 0 0
SMALL
GASTEIGER

@<TRIPOS>ATOM
      1  C          6.8920    0.9270    1.3040 C.3     1  UNL1        0.0800
      2  C          5.4250    1.1500    1.4320 C.2     1  UNL1        0.1300
      3  C          4.7100    2.1470    0.5900 C.3     1  UNL1        0.0870
      4  O          4.7620    0.5170    2.2370 O.2     1  UNL1       -0.3000
      5  C          7.3490    1.0830   -0.1330 C.3     1  UNL1        0.0430
      6  C          7.6660   -0.2170   -0.7500 C.2     1  UNL1       -0.0440
      7  C          7.6780   -0.3860   -2.1390 C.2     1  UNL1        0.0080
      8  C          7.9620   -1.2980    0.0500 C.2     1  UNL1        0.0540
      9  C          7.9840   -1.6290   -2.6620 C.2     1  UNL1        0.0510
     10  C          8.2710   -2.5530   -0.4830 C.2     1  UNL1        0.1660
     11  C          8.2820   -2.7200   -1.8500 C.2     1  UNL1        0.1650
     12  O          8.5940   -3.7640    0.0910 O.2     1  UNL1       -0.4540
     13  O          8.6160   -4.0440   -2.0900 O.2     1  UNL1       -0.4540
     14  C          8.9110   -4.7180   -0.8900 C.3     1  UNL1        0.4680
@<TRIPOS>BOND
     1     9     7    1
     2     9    11    2
     3     7     6    2
     4    13    11    1
     5    13    14    1
     6    11    10    1
     7    14    12    1
     8     6     5    1
     9     6     8    1
    10    10     8    2
    11    10    12    1
    12     5     1    1
    13     3     2    1
    14     1     2    1
    15     2     4    2
