@<TRIPOS>MOLECULE
/home/cewinharhar/GITHUB/reincatalyze/data/processed/docking_pred/2023-May-31-1438_sub9_nm5_bs15_s42_ex16_mel10_mts1000_k50_ec05_g099_lra9e-4_lrc3e-3/8f258178c278a1f8efc989ef7d8625b520fa90c8_ligand_9.pdbqt
 14 15 0 0 0
SMALL
GASTEIGER

@<TRIPOS>ATOM
      1  C          5.4400   -0.0250    2.0480 C.3     1  UNL1        0.0800
      2  C          4.5620    1.1460    1.7730 C.2     1  UNL1        0.1300
      3  C          4.8840    2.1310    0.7060 C.3     1  UNL1        0.0870
      4  O          3.5460    1.3330    2.4220 O.2     1  UNL1       -0.3000
      5  C          6.8650    0.2380    1.6010 C.3     1  UNL1        0.0430
      6  C          7.2850   -0.6930    0.5390 C.2     1  UNL1       -0.0440
      7  C          7.1600   -0.3640   -0.8160 C.2     1  UNL1        0.0080
      8  C          7.8170   -1.9170    0.8750 C.2     1  UNL1        0.0540
      9  C          7.5730   -1.2770   -1.7690 C.2     1  UNL1        0.0510
     10  C          8.2330   -2.8360   -0.0920 C.2     1  UNL1        0.1660
     11  C          8.1090   -2.5140   -1.4250 C.2     1  UNL1        0.1650
     12  O          8.7840   -4.0980   -0.0140 O.2     1  UNL1       -0.4540
     13  O          8.5930   -3.5950   -2.1460 O.2     1  UNL1       -0.4540
     14  C          9.1150   -4.5830   -1.2900 C.3     1  UNL1        0.4680
@<TRIPOS>BOND
     1    13    11    1
     2    13    14    1
     3     9    11    2
     4     9     7    1
     5    11    10    1
     6    14    12    1
     7     7     6    2
     8    10    12    1
     9    10     8    2
    10     6     8    1
    11     6     5    1
    12     3     2    1
    13     5     1    1
    14     2     1    1
    15     2     4    2
