@<TRIPOS>MOLECULE
/home/cewinharhar/GITHUB/reincatalyze/data/processed/docking_pred/2023-May-31-1438_sub9_nm5_bs15_s42_ex16_mel10_mts1000_k50_ec05_g099_lra9e-4_lrc3e-3/8f258178c278a1f8efc989ef7d8625b520fa90c8_ligand_9.pdbqt
 14 15 0 0 0
SMALL
GASTEIGER

@<TRIPOS>ATOM
      1  C          6.9540    0.9290    1.1840 C.3     1  UNL1        0.0800
      2  C          5.4880    1.1430    1.3400 C.2     1  UNL1        0.1300
      3  C          4.7540    2.1470    0.5230 C.3     1  UNL1        0.0870
      4  O          4.8420    0.4970    2.1490 O.2     1  UNL1       -0.3000
      5  C          7.3840    1.0970   -0.2600 C.3     1  UNL1        0.0430
      6  C          7.7340   -0.1940   -0.8790 C.2     1  UNL1       -0.0440
      7  C          7.8520   -0.3330   -2.2670 C.2     1  UNL1        0.0080
      8  C          7.9550   -1.2950   -0.0840 C.2     1  UNL1        0.0540
      9  C          8.1840   -1.5680   -2.7920 C.2     1  UNL1        0.0510
     10  C          8.2910   -2.5420   -0.6190 C.2     1  UNL1        0.1660
     11  C          8.4060   -2.6800   -1.9850 C.2     1  UNL1        0.1650
     12  O          8.5550   -3.7690   -0.0490 O.2     1  UNL1       -0.4540
     13  O          8.7430   -4.0020   -2.2270 O.2     1  UNL1       -0.4540
     14  C          8.9370   -4.7060   -1.0230 C.3     1  UNL1        0.4680
@<TRIPOS>BOND
     1     9     7    1
     2     9    11    2
     3     7     6    2
     4    13    11    1
     5    13    14    1
     6    11    10    1
     7    14    12    1
     8     6     5    1
     9     6     8    1
    10    10     8    2
    11    10    12    1
    12     5     1    1
    13     3     2    1
    14     1     2    1
    15     2     4    2
