@<TRIPOS>MOLECULE
/home/cewinharhar/GITHUB/reincatalyze/data/processed/docking_pred/2023-May-31-1438_sub9_nm5_bs15_s42_ex16_mel10_mts1000_k50_ec05_g099_lra9e-4_lrc3e-3/8f258178c278a1f8efc989ef7d8625b520fa90c8_ligand_9.pdbqt
 14 15 0 0 0
SMALL
GASTEIGER

@<TRIPOS>ATOM
      1  C          5.7030    1.2390   -0.3160 C.3     1  UNL1        0.0800
      2  C          5.1400    1.2120    1.0630 C.2     1  UNL1        0.1300
      3  C          5.3480    0.0510    1.9690 C.3     1  UNL1        0.0870
      4  O          4.4870    2.1500    1.4910 O.2     1  UNL1       -0.3000
      5  C          7.2090    1.0650   -0.2990 C.3     1  UNL1        0.0430
      6  C          7.6170   -0.2210   -0.8920 C.2     1  UNL1       -0.0440
      7  C          7.7650   -0.3760   -2.2760 C.2     1  UNL1        0.0080
      8  C          7.8640   -1.3010   -0.0760 C.2     1  UNL1        0.0540
      9  C          8.1520   -1.6070   -2.7750 C.2     1  UNL1        0.0510
     10  C          8.2560   -2.5430   -0.5860 C.2     1  UNL1        0.1660
     11  C          8.4000   -2.6970   -1.9470 C.2     1  UNL1        0.1650
     12  O          8.5550   -3.7500    0.0080 O.2     1  UNL1       -0.4540
     13  O          8.7900   -4.0090   -2.1620 O.2     1  UNL1       -0.4540
     14  C          8.9880   -4.6870   -0.9450 C.3     1  UNL1        0.4680
@<TRIPOS>BOND
     1     9     7    1
     2     9    11    2
     3     7     6    2
     4    13    11    1
     5    13    14    1
     6    11    10    1
     7    14    12    1
     8     6     5    1
     9     6     8    1
    10    10     8    2
    11    10    12    1
    12     1     5    1
    13     1     2    1
    14     2     4    2
    15     2     3    1
