MODEL 1
REMARK VINA RESULT:      -8.2      0.000      0.000
REMARK SMILES CC(=O)CCc1ccc2c(c1)OCO2
REMARK SMILES IDX 4 1 2 2 1 3 3 4 5 5 6 6 7 7 11 8 8 9 10 10 9 11 12 12 14 13
REMARK SMILES IDX 13 14
REMARK H PARENT
REMARK Flexibility Score: inf
ROOT
ATOM      1  C   UNL     1       5.857   1.599   0.903  1.00  0.00     0.080 C 
ENDROOT
BRANCH   1   2
ATOM      2  C   UNL     1       5.386   0.570   1.872  1.00  0.00     0.130 C 
ATOM      3  C   UNL     1       6.218  -0.613   2.221  1.00  0.00     0.087 C 
ATOM      4  O   UNL     1       4.296   0.669   2.411  1.00  0.00    -0.300 OA
ENDBRANCH   1   2
BRANCH   1   5
ATOM      5  C   UNL     1       5.773   1.091  -0.523  1.00  0.00     0.043 C 
BRANCH   5   6
ATOM      6  C   UNL     1       7.018   0.421  -0.938  1.00  0.00    -0.044 A 
ATOM      7  C   UNL     1       8.271   1.010  -0.734  1.00  0.00     0.008 A 
ATOM      8  C   UNL     1       6.959  -0.815  -1.540  1.00  0.00     0.054 A 
ATOM      9  C   UNL     1       9.406   0.333  -1.143  1.00  0.00     0.051 A 
ATOM     10  C   UNL     1       8.109  -1.496  -1.952  1.00  0.00     0.166 A 
ATOM     11  C   UNL     1       9.342  -0.916  -1.752  1.00  0.00     0.165 A 
ATOM     12  O   UNL     1       8.311  -2.714  -2.564  1.00  0.00    -0.454 OA
ATOM     13  O   UNL     1      10.286  -1.801  -2.250  1.00  0.00    -0.454 OA
ATOM     14  C   UNL     1       9.682  -2.993  -2.691  1.00  0.00     0.468 C 
ENDBRANCH   5   6
ENDBRANCH   1   5
TORSDOF 3
ENDMDL
MODEL 2
REMARK VINA RESULT:      -7.7      1.108      1.781
REMARK SMILES CC(=O)CCc1ccc2c(c1)OCO2
REMARK SMILES IDX 4 1 2 2 1 3 3 4 5 5 6 6 7 7 11 8 8 9 10 10 9 11 12 12 14 13
REMARK SMILES IDX 13 14
REMARK H PARENT
REMARK Flexibility Score: inf
ROOT
ATOM      1  C   UNL     1       5.889   1.273  -0.292  1.00  0.00     0.080 C 
ENDROOT
BRANCH   1   2
ATOM      2  C   UNL     1       5.298   1.122   1.067  1.00  0.00     0.130 C 
ATOM      3  C   UNL     1       5.632  -0.035   1.940  1.00  0.00     0.087 C 
ATOM      4  O   UNL     1       4.517   1.951   1.506  1.00  0.00    -0.300 OA
ENDBRANCH   1   2
BRANCH   1   5
ATOM      5  C   UNL     1       7.404   1.274  -0.237  1.00  0.00     0.043 C 
BRANCH   5   6
ATOM      6  C   UNL     1       7.981   0.180  -1.038  1.00  0.00    -0.044 A 
ATOM      7  C   UNL     1       7.429  -0.197  -2.268  1.00  0.00     0.008 A 
ATOM      8  C   UNL     1       9.090  -0.491  -0.578  1.00  0.00     0.054 A 
ATOM      9  C   UNL     1       8.014  -1.231  -2.977  1.00  0.00     0.051 A 
ATOM     10  C   UNL     1       9.678  -1.535  -1.298  1.00  0.00     0.166 A 
ATOM     11  C   UNL     1       9.135  -1.908  -2.507  1.00  0.00     0.165 A 
ATOM     12  O   UNL     1      10.767  -2.346  -1.058  1.00  0.00    -0.454 OA
ATOM     13  O   UNL     1       9.911  -2.951  -2.990  1.00  0.00    -0.454 OA
ATOM     14  C   UNL     1      11.009  -3.200  -2.146  1.00  0.00     0.468 C 
ENDBRANCH   5   6
ENDBRANCH   1   5
TORSDOF 3
ENDMDL
MODEL 3
REMARK VINA RESULT:      -7.5      1.247      2.021
REMARK SMILES CC(=O)CCc1ccc2c(c1)OCO2
REMARK SMILES IDX 4 1 2 2 1 3 3 4 5 5 6 6 7 7 11 8 8 9 10 10 9 11 12 12 14 13
REMARK SMILES IDX 13 14
REMARK H PARENT
REMARK Flexibility Score: inf
ROOT
ATOM      1  C   UNL     1       6.841   0.360   1.024  1.00  0.00     0.080 C 
ENDROOT
BRANCH   1   2
ATOM      2  C   UNL     1       5.516   0.978   1.311  1.00  0.00     0.130 C 
ATOM      3  C   UNL     1       4.961   2.064   0.459  1.00  0.00     0.087 C 
ATOM      4  O   UNL     1       4.844   0.609   2.260  1.00  0.00    -0.300 OA
ENDBRANCH   1   2
BRANCH   1   5
ATOM      5  C   UNL     1       7.471   0.959  -0.218  1.00  0.00     0.043 C 
BRANCH   5   6
ATOM      6  C   UNL     1       8.117  -0.069  -1.053  1.00  0.00    -0.044 A 
ATOM      7  C   UNL     1       7.696  -0.320  -2.364  1.00  0.00     0.008 A 
ATOM      8  C   UNL     1       9.163  -0.805  -0.543  1.00  0.00     0.054 A 
ATOM      9  C   UNL     1       8.341  -1.296  -3.101  1.00  0.00     0.051 A 
ATOM     10  C   UNL     1       9.812  -1.790  -1.292  1.00  0.00     0.166 A 
ATOM     11  C   UNL     1       9.397  -2.038  -2.582  1.00  0.00     0.165 A 
ATOM     12  O   UNL     1      10.858  -2.644  -1.015  1.00  0.00    -0.454 OA
ATOM     13  O   UNL     1      10.207  -3.049  -3.076  1.00  0.00    -0.454 OA
ATOM     14  C   UNL     1      11.205  -3.400  -2.147  1.00  0.00     0.468 C 
ENDBRANCH   5   6
ENDBRANCH   1   5
TORSDOF 3
ENDMDL
MODEL 4
REMARK VINA RESULT:      -7.4      1.439      2.166
REMARK SMILES CC(=O)CCc1ccc2c(c1)OCO2
REMARK SMILES IDX 4 1 2 2 1 3 3 4 5 5 6 6 7 7 11 8 8 9 10 10 9 11 12 12 14 13
REMARK SMILES IDX 13 14
REMARK H PARENT
REMARK Flexibility Score: inf
ROOT
ATOM      1  C   UNL     1       6.666   0.307   1.718  1.00  0.00     0.080 C 
ENDROOT
BRANCH   1   2
ATOM      2  C   UNL     1       5.354   0.992   1.557  1.00  0.00     0.130 C 
ATOM      3  C   UNL     1       5.106   1.955   0.450  1.00  0.00     0.087 C 
ATOM      4  O   UNL     1       4.437   0.782   2.334  1.00  0.00    -0.300 OA
ENDBRANCH   1   2
BRANCH   1   5
ATOM      5  C   UNL     1       6.559  -1.171   1.397  1.00  0.00     0.043 C 
BRANCH   5   6
ATOM      6  C   UNL     1       7.282  -1.515   0.160  1.00  0.00    -0.044 A 
ATOM      7  C   UNL     1       6.838  -1.080  -1.094  1.00  0.00     0.008 A 
ATOM      8  C   UNL     1       8.425  -2.279   0.228  1.00  0.00     0.054 A 
ATOM      9  C   UNL     1       7.559  -1.434  -2.220  1.00  0.00     0.051 A 
ATOM     10  C   UNL     1       9.150  -2.633  -0.913  1.00  0.00     0.166 A 
ATOM     11  C   UNL     1       8.713  -2.207  -2.148  1.00  0.00     0.165 A 
ATOM     12  O   UNL     1      10.298  -3.373  -1.106  1.00  0.00    -0.454 OA
ATOM     13  O   UNL     1       9.611  -2.698  -3.082  1.00  0.00    -0.454 OA
ATOM     14  C   UNL     1      10.681  -3.366  -2.457  1.00  0.00     0.468 C 
ENDBRANCH   5   6
ENDBRANCH   1   5
TORSDOF 3
ENDMDL
MODEL 5
REMARK VINA RESULT:      -7.3      1.931      2.442
REMARK SMILES CC(=O)CCc1ccc2c(c1)OCO2
REMARK SMILES IDX 4 1 2 2 1 3 3 4 5 5 6 6 7 7 11 8 8 9 10 10 9 11 12 12 14 13
REMARK SMILES IDX 13 14
REMARK H PARENT
REMARK Flexibility Score: inf
ROOT
ATOM      1  C   UNL     1       6.141  -0.113   1.867  1.00  0.00     0.080 C 
ENDROOT
BRANCH   1   2
ATOM      2  C   UNL     1       5.053   0.890   1.703  1.00  0.00     0.130 C 
ATOM      3  C   UNL     1       5.091   1.914   0.625  1.00  0.00     0.087 C 
ATOM      4  O   UNL     1       4.091   0.901   2.454  1.00  0.00    -0.300 OA
ENDBRANCH   1   2
BRANCH   1   5
ATOM      5  C   UNL     1       6.425  -0.836   0.565  1.00  0.00     0.043 C 
BRANCH   5   6
ATOM      6  C   UNL     1       7.845  -0.734   0.182  1.00  0.00    -0.044 A 
ATOM      7  C   UNL     1       8.322   0.334  -0.586  1.00  0.00     0.008 A 
ATOM      8  C   UNL     1       8.731  -1.706   0.586  1.00  0.00     0.054 A 
ATOM      9  C   UNL     1       9.665   0.377  -0.915  1.00  0.00     0.051 A 
ATOM     10  C   UNL     1      10.088  -1.658   0.252  1.00  0.00     0.166 A 
ATOM     11  C   UNL     1      10.559  -0.608  -0.505  1.00  0.00     0.165 A 
ATOM     12  O   UNL     1      11.154  -2.488   0.528  1.00  0.00    -0.454 OA
ATOM     13  O   UNL     1      11.918  -0.817  -0.679  1.00  0.00    -0.454 OA
ATOM     14  C   UNL     1      12.354  -1.949   0.035  1.00  0.00     0.468 C 
ENDBRANCH   5   6
ENDBRANCH   1   5
TORSDOF 3
ENDMDL
