@<TRIPOS>MOLECULE
/home/cewinharhar/GITHUB/reincatalyze/data/processed/docking_pred/2023-May-31-1438_sub9_nm5_bs15_s42_ex16_mel10_mts1000_k50_ec05_g099_lra9e-4_lrc3e-3/8f3f3cc121b2e0b9b67c9595347d7d2b0dd21437_ligand_9.pdbqt
 14 15 0 0 0
SMALL
GASTEIGER

@<TRIPOS>ATOM
      1  C          5.8890    1.2730   -0.2920 C.3     1  UNL1        0.0800
      2  C          5.2980    1.1220    1.0670 C.2     1  UNL1        0.1300
      3  C          5.6320   -0.0350    1.9400 C.3     1  UNL1        0.0870
      4  O          4.5170    1.9510    1.5060 O.2     1  UNL1       -0.3000
      5  C          7.4040    1.2740   -0.2370 C.3     1  UNL1        0.0430
      6  C          7.9810    0.1800   -1.0380 C.2     1  UNL1       -0.0440
      7  C          7.4290   -0.1970   -2.2680 C.2     1  UNL1        0.0080
      8  C          9.0900   -0.4910   -0.5780 C.2     1  UNL1        0.0540
      9  C          8.0140   -1.2310   -2.9770 C.2     1  UNL1        0.0510
     10  C          9.6780   -1.5350   -1.2980 C.2     1  UNL1        0.1660
     11  C          9.1350   -1.9080   -2.5070 C.2     1  UNL1        0.1650
     12  O         10.7670   -2.3460   -1.0580 O.2     1  UNL1       -0.4540
     13  O          9.9110   -2.9510   -2.9900 O.2     1  UNL1       -0.4540
     14  C         11.0090   -3.2000   -2.1460 C.3     1  UNL1        0.4680
@<TRIPOS>BOND
     1    13    11    1
     2    13    14    1
     3     9    11    2
     4     9     7    1
     5    11    10    1
     6     7     6    2
     7    14    12    1
     8    10    12    1
     9    10     8    2
    10     6     8    1
    11     6     5    1
    12     1     5    1
    13     1     2    1
    14     2     4    2
    15     2     3    1
