@<TRIPOS>MOLECULE
/home/cewinharhar/GITHUB/reincatalyze/data/processed/docking_pred/2023-May-31-1438_sub9_nm5_bs15_s42_ex16_mel10_mts1000_k50_ec05_g099_lra9e-4_lrc3e-3/8f7c925e970cb887b69f6e81c5db99fda922d0ae_ligand_9.pdbqt
 14 15 0 0 0
SMALL
GASTEIGER

@<TRIPOS>ATOM
      1  C          1.7840   -7.5020   -0.5110 C.3     1  UNL1        0.0800
      2  C          2.2540   -6.1020   -0.3110 C.2     1  UNL1        0.1300
      3  C          2.1410   -5.0800   -1.3860 C.3     1  UNL1        0.0870
      4  O          2.7490   -5.7530    0.7480 O.2     1  UNL1       -0.3000
      5  C          2.6000   -8.4790    0.3120 C.3     1  UNL1        0.0430
      6  C          1.7830   -9.6110    0.7850 C.2     1  UNL1       -0.0440
      7  C          2.3640  -10.7350    1.3830 C.2     1  UNL1        0.0080
      8  C          0.4150   -9.5700    0.6430 C.2     1  UNL1        0.0540
      9  C          1.5460  -11.7660    1.8090 C.2     1  UNL1        0.0510
     10  C         -0.4080  -10.6150    1.0750 C.2     1  UNL1        0.1660
     11  C          0.1630  -11.7220    1.6630 C.2     1  UNL1        0.1650
     12  O         -1.7720  -10.8110    1.0470 O.2     1  UNL1       -0.4540
     13  O         -0.8730  -12.5830    1.9870 O.2     1  UNL1       -0.4540
     14  C         -2.1240  -12.0050    1.6970 C.3     1  UNL1        0.4680
@<TRIPOS>BOND
     1     3     2    1
     2     1     2    1
     3     1     5    1
     4     2     4    2
     5     5     6    1
     6     8     6    2
     7     8    10    1
     8     6     7    1
     9    12    10    1
    10    12    14    1
    11    10    11    2
    12     7     9    2
    13    11     9    1
    14    11    13    1
    15    14    13    1
