@<TRIPOS>MOLECULE
/home/cewinharhar/GITHUB/reincatalyze/data/processed/docking_pred/2023-May-31-1438_sub9_nm5_bs15_s42_ex16_mel10_mts1000_k50_ec05_g099_lra9e-4_lrc3e-3/8f7c925e970cb887b69f6e81c5db99fda922d0ae_ligand_9.pdbqt
 14 15 0 0 0
SMALL
GASTEIGER

@<TRIPOS>ATOM
      1  C          2.0080   -0.0940    3.0300 C.3     1  UNL1        0.0800
      2  C          0.5450    0.1710    3.1190 C.2     1  UNL1        0.1300
      3  C         -0.0950    1.2810    2.3640 C.3     1  UNL1        0.0870
      4  O         -0.1750   -0.5220    3.8200 O.2     1  UNL1       -0.3000
      5  C          2.7350    1.0540    2.3570 C.3     1  UNL1        0.0430
      6  C          4.1580    0.7410    2.1300 C.2     1  UNL1       -0.0440
      7  C          5.0940    1.7460    1.8590 C.2     1  UNL1        0.0080
      8  C          4.5870   -0.5650    2.1860 C.2     1  UNL1        0.0540
      9  C          6.4160    1.3930    1.6560 C.2     1  UNL1        0.0510
     10  C          5.9240   -0.9160    1.9800 C.2     1  UNL1        0.1660
     11  C          6.8460    0.0710    1.7120 C.2     1  UNL1        0.1650
     12  O          6.5890   -2.1240    1.9820 O.2     1  UNL1       -0.4540
     13  O          8.0720   -0.5570    1.5550 O.2     1  UNL1       -0.4540
     14  C          7.9710   -1.9390    1.8070 C.3     1  UNL1        0.4680
@<TRIPOS>BOND
     1    13    11    1
     2    13    14    1
     3     9    11    2
     4     9     7    1
     5    11    10    1
     6    14    12    1
     7     7     6    2
     8    10    12    1
     9    10     8    2
    10     6     8    1
    11     6     5    1
    12     5     1    1
    13     3     2    1
    14     1     2    1
    15     2     4    2
