@<TRIPOS>MOLECULE
/home/cewinharhar/GITHUB/reincatalyze/data/processed/docking_pred/2023-May-31-1438_sub9_nm5_bs15_s42_ex16_mel10_mts1000_k50_ec05_g099_lra9e-4_lrc3e-3/8f7c925e970cb887b69f6e81c5db99fda922d0ae_ligand_9.pdbqt
 14 15 0 0 0
SMALL
GASTEIGER

@<TRIPOS>ATOM
      1  C          9.1320   -2.5110    1.0800 C.3     1  UNL1        0.0800
      2  C          9.5160   -3.8830    0.6440 C.2     1  UNL1        0.1300
      3  C          8.8560   -4.5500   -0.5100 C.3     1  UNL1        0.0870
      4  O         10.3910   -4.5030    1.2270 O.2     1  UNL1       -0.3000
      5  C          7.8900   -2.5380    1.9480 C.3     1  UNL1        0.0430
      6  C          7.1680   -1.2530    1.9090 C.2     1  UNL1       -0.0440
      7  C          7.8260   -0.0510    1.6240 C.2     1  UNL1        0.0080
      8  C          5.8140   -1.2240    2.1540 C.2     1  UNL1        0.0540
      9  C          7.0970    1.1230    1.6000 C.2     1  UNL1        0.0510
     10  C          5.0810   -0.0340    2.1280 C.2     1  UNL1        0.1660
     11  C          5.7280    1.1500    1.8490 C.2     1  UNL1        0.1650
     12  O          3.7490    0.2540    2.3350 O.2     1  UNL1       -0.4540
     13  O          4.7690    2.1500    1.8900 O.2     1  UNL1       -0.4540
     14  C          3.4850    1.6140    2.1050 C.3     1  UNL1        0.4680
@<TRIPOS>BOND
     1     3     2    1
     2     2     1    1
     3     2     4    2
     4     1     5    1
     5     9     7    1
     6     9    11    2
     7     7     6    2
     8    11    13    1
     9    11    10    1
    10    13    14    1
    11     6     5    1
    12     6     8    1
    13    14    12    1
    14    10     8    2
    15    10    12    1
