@<TRIPOS>MOLECULE
/home/cewinharhar/GITHUB/reincatalyze/data/processed/docking_pred/2023-May-31-1438_sub9_nm5_bs15_s42_ex16_mel10_mts1000_k50_ec05_g099_lra9e-4_lrc3e-3/8f7e92428ebbeefdf44ae8ea1c0956f20f305f25_ligand_9.pdbqt
 14 15 0 0 0
SMALL
GASTEIGER

@<TRIPOS>ATOM
      1  C          5.5500    1.8960    1.2890 C.3     1  UNL1        0.0800
      2  C          5.0970    0.6760    2.0130 C.2     1  UNL1        0.1300
      3  C          5.9830   -0.5080    2.1770 C.3     1  UNL1        0.0870
      4  O          3.9780    0.6120    2.4950 O.2     1  UNL1       -0.3000
      5  C          5.4170    1.7270   -0.2120 C.3     1  UNL1        0.0430
      6  C          6.5800    1.0280   -0.7870 C.2     1  UNL1       -0.0440
      7  C          7.8880    1.4690   -0.5570 C.2     1  UNL1        0.0080
      8  C          6.3870   -0.0870   -1.5700 C.2     1  UNL1        0.0540
      9  C          8.9410    0.7720   -1.1230 C.2     1  UNL1        0.0510
     10  C          7.4540   -0.7890   -2.1390 C.2     1  UNL1        0.1660
     11  C          8.7410   -0.3550   -1.9140 C.2     1  UNL1        0.1650
     12  O          7.5220   -1.9070   -2.9430 O.2     1  UNL1       -0.4540
     13  O          9.5820   -1.2260   -2.5890 O.2     1  UNL1       -0.4540
     14  C          8.8550   -2.2780   -3.1800 C.3     1  UNL1        0.4680
@<TRIPOS>BOND
     1    14    12    1
     2    14    13    1
     3    12    10    1
     4    13    11    1
     5    10    11    2
     6    10     8    1
     7    11     9    1
     8     8     6    2
     9     9     7    2
    10     6     7    1
    11     6     5    1
    12     5     1    1
    13     1     2    1
    14     2     3    1
    15     2     4    2
