MODEL 1
REMARK VINA RESULT:      -7.6      0.000      0.000
REMARK SMILES CC(=O)CCc1ccc2c(c1)OCO2
REMARK SMILES IDX 4 1 2 2 1 3 3 4 5 5 6 6 7 7 11 8 8 9 10 10 9 11 12 12 14 13
REMARK SMILES IDX 13 14
REMARK H PARENT
REMARK Flexibility Score: inf
ROOT
ATOM      1  C   UNL     1       5.550   1.896   1.289  1.00  0.00     0.080 C 
ENDROOT
BRANCH   1   2
ATOM      2  C   UNL     1       5.097   0.676   2.013  1.00  0.00     0.130 C 
ATOM      3  C   UNL     1       5.983  -0.508   2.177  1.00  0.00     0.087 C 
ATOM      4  O   UNL     1       3.978   0.612   2.495  1.00  0.00    -0.300 OA
ENDBRANCH   1   2
BRANCH   1   5
ATOM      5  C   UNL     1       5.417   1.727  -0.212  1.00  0.00     0.043 C 
BRANCH   5   6
ATOM      6  C   UNL     1       6.580   1.028  -0.787  1.00  0.00    -0.044 A 
ATOM      7  C   UNL     1       7.888   1.469  -0.557  1.00  0.00     0.008 A 
ATOM      8  C   UNL     1       6.387  -0.087  -1.570  1.00  0.00     0.054 A 
ATOM      9  C   UNL     1       8.941   0.772  -1.123  1.00  0.00     0.051 A 
ATOM     10  C   UNL     1       7.454  -0.789  -2.139  1.00  0.00     0.166 A 
ATOM     11  C   UNL     1       8.741  -0.355  -1.914  1.00  0.00     0.165 A 
ATOM     12  O   UNL     1       7.522  -1.907  -2.943  1.00  0.00    -0.454 OA
ATOM     13  O   UNL     1       9.582  -1.226  -2.589  1.00  0.00    -0.454 OA
ATOM     14  C   UNL     1       8.855  -2.278  -3.180  1.00  0.00     0.468 C 
ENDBRANCH   5   6
ENDBRANCH   1   5
TORSDOF 3
ENDMDL
MODEL 2
REMARK VINA RESULT:      -7.4      1.925      2.394
REMARK SMILES CC(=O)CCc1ccc2c(c1)OCO2
REMARK SMILES IDX 4 1 2 2 1 3 3 4 5 5 6 6 7 7 11 8 8 9 10 10 9 11 12 12 14 13
REMARK SMILES IDX 13 14
REMARK H PARENT
REMARK Flexibility Score: inf
ROOT
ATOM      1  C   UNL     1       5.778   1.346  -0.293  1.00  0.00     0.080 C 
ENDROOT
BRANCH   1   2
ATOM      2  C   UNL     1       5.178   1.267   1.068  1.00  0.00     0.130 C 
ATOM      3  C   UNL     1       5.444   0.116   1.973  1.00  0.00     0.087 C 
ATOM      4  O   UNL     1       4.445   2.150   1.483  1.00  0.00    -0.300 OA
ENDBRANCH   1   2
BRANCH   1   5
ATOM      5  C   UNL     1       7.273   1.102  -0.251  1.00  0.00     0.043 C 
BRANCH   5   6
ATOM      6  C   UNL     1       7.634  -0.189  -0.863  1.00  0.00    -0.044 A 
ATOM      7  C   UNL     1       7.664  -0.359  -2.252  1.00  0.00     0.008 A 
ATOM      8  C   UNL     1       7.953  -1.259  -0.059  1.00  0.00     0.054 A 
ATOM      9  C   UNL     1       8.011  -1.593  -2.769  1.00  0.00     0.051 A 
ATOM     10  C   UNL     1       8.304  -2.506  -0.587  1.00  0.00     0.166 A 
ATOM     11  C   UNL     1       8.333  -2.674  -1.953  1.00  0.00     0.165 A 
ATOM     12  O   UNL     1       8.656  -3.706  -0.008  1.00  0.00    -0.454 OA
ATOM     13  O   UNL     1       8.707  -3.988  -2.187  1.00  0.00    -0.454 OA
ATOM     14  C   UNL     1       9.010  -4.652  -0.984  1.00  0.00     0.468 C 
ENDBRANCH   5   6
ENDBRANCH   1   5
TORSDOF 3
ENDMDL
MODEL 3
REMARK VINA RESULT:      -7.2      2.080      2.623
REMARK SMILES CC(=O)CCc1ccc2c(c1)OCO2
REMARK SMILES IDX 4 1 2 2 1 3 3 4 5 5 6 6 7 7 11 8 8 9 10 10 9 11 12 12 14 13
REMARK SMILES IDX 13 14
REMARK H PARENT
REMARK Flexibility Score: inf
ROOT
ATOM      1  C   UNL     1       5.570   0.004   1.968  1.00  0.00     0.080 C 
ENDROOT
BRANCH   1   2
ATOM      2  C   UNL     1       4.670   1.148   1.651  1.00  0.00     0.130 C 
ATOM      3  C   UNL     1       4.983   2.108   0.558  1.00  0.00     0.087 C 
ATOM      4  O   UNL     1       3.643   1.333   2.284  1.00  0.00    -0.300 OA
ENDBRANCH   1   2
BRANCH   1   5
ATOM      5  C   UNL     1       6.980   0.258   1.473  1.00  0.00     0.043 C 
BRANCH   5   6
ATOM      6  C   UNL     1       7.374  -0.705   0.430  1.00  0.00    -0.044 A 
ATOM      7  C   UNL     1       7.239  -0.408  -0.931  1.00  0.00     0.008 A 
ATOM      8  C   UNL     1       7.892  -1.928   0.791  1.00  0.00     0.054 A 
ATOM      9  C   UNL     1       7.627  -1.351  -1.865  1.00  0.00     0.051 A 
ATOM     10  C   UNL     1       8.283  -2.878  -0.157  1.00  0.00     0.166 A 
ATOM     11  C   UNL     1       8.150  -2.587  -1.496  1.00  0.00     0.165 A 
ATOM     12  O   UNL     1       8.817  -4.145  -0.053  1.00  0.00    -0.454 OA
ATOM     13  O   UNL     1       8.609  -3.692  -2.195  1.00  0.00    -0.454 OA
ATOM     14  C   UNL     1       9.125  -4.667  -1.320  1.00  0.00     0.468 C 
ENDBRANCH   5   6
ENDBRANCH   1   5
TORSDOF 3
ENDMDL
MODEL 4
REMARK VINA RESULT:      -7.1      1.245      1.450
REMARK SMILES CC(=O)CCc1ccc2c(c1)OCO2
REMARK SMILES IDX 4 1 2 2 1 3 3 4 5 5 6 6 7 7 11 8 8 9 10 10 9 11 12 12 14 13
REMARK SMILES IDX 13 14
REMARK H PARENT
REMARK Flexibility Score: inf
ROOT
ATOM      1  C   UNL     1       6.335   1.243   0.893  1.00  0.00     0.080 C 
ENDROOT
BRANCH   1   2
ATOM      2  C   UNL     1       5.658   0.409   1.925  1.00  0.00     0.130 C 
ATOM      3  C   UNL     1       6.287  -0.825   2.467  1.00  0.00     0.087 C 
ATOM      4  O   UNL     1       4.559   0.717   2.357  1.00  0.00    -0.300 OA
ENDBRANCH   1   2
BRANCH   1   5
ATOM      5  C   UNL     1       5.821   0.924  -0.497  1.00  0.00     0.043 C 
BRANCH   5   6
ATOM      6  C   UNL     1       6.780   0.104  -1.259  1.00  0.00    -0.044 A 
ATOM      7  C   UNL     1       7.469   0.618  -2.363  1.00  0.00     0.008 A 
ATOM      8  C   UNL     1       7.013  -1.199  -0.883  1.00  0.00     0.054 A 
ATOM      9  C   UNL     1       8.358  -0.198  -3.040  1.00  0.00     0.051 A 
ATOM     10  C   UNL     1       7.913  -2.020  -1.569  1.00  0.00     0.166 A 
ATOM     11  C   UNL     1       8.590  -1.515  -2.657  1.00  0.00     0.165 A 
ATOM     12  O   UNL     1       8.312  -3.328  -1.396  1.00  0.00    -0.454 OA
ATOM     13  O   UNL     1       9.401  -2.534  -3.133  1.00  0.00    -0.454 OA
ATOM     14  C   UNL     1       9.323  -3.672  -2.308  1.00  0.00     0.468 C 
ENDBRANCH   5   6
ENDBRANCH   1   5
TORSDOF 3
ENDMDL
MODEL 5
REMARK VINA RESULT:      -6.8      1.182      5.160
REMARK SMILES CC(=O)CCc1ccc2c(c1)OCO2
REMARK SMILES IDX 4 1 2 2 1 3 3 4 5 5 6 6 7 7 11 8 8 9 10 10 9 11 12 12 14 13
REMARK SMILES IDX 13 14
REMARK H PARENT
REMARK Flexibility Score: inf
ROOT
ATOM      1  C   UNL     1       8.326   0.216  -2.646  1.00  0.00     0.080 C 
ENDROOT
BRANCH   1   2
ATOM      2  C   UNL     1       8.030  -1.242  -2.720  1.00  0.00     0.130 C 
ATOM      3  C   UNL     1       9.094  -2.241  -3.011  1.00  0.00     0.087 C 
ATOM      4  O   UNL     1       6.898  -1.662  -2.544  1.00  0.00    -0.300 OA
ENDBRANCH   1   2
BRANCH   1   5
ATOM      5  C   UNL     1       8.849   0.602  -1.277  1.00  0.00     0.043 C 
BRANCH   5   6
ATOM      6  C   UNL     1       7.819   0.449  -0.235  1.00  0.00    -0.044 A 
ATOM      7  C   UNL     1       7.940  -0.505   0.782  1.00  0.00     0.008 A 
ATOM      8  C   UNL     1       6.707   1.261  -0.250  1.00  0.00     0.054 A 
ATOM      9  C   UNL     1       6.941  -0.602   1.733  1.00  0.00     0.051 A 
ATOM     10  C   UNL     1       5.701   1.160   0.715  1.00  0.00     0.166 A 
ATOM     11  C   UNL     1       5.819   0.220   1.715  1.00  0.00     0.165 A 
ATOM     12  O   UNL     1       4.518   1.839   0.914  1.00  0.00    -0.454 OA
ATOM     13  O   UNL     1       4.694   0.343   2.516  1.00  0.00    -0.454 OA
ATOM     14  C   UNL     1       3.887   1.418   2.097  1.00  0.00     0.468 C 
ENDBRANCH   5   6
ENDBRANCH   1   5
TORSDOF 3
ENDMDL
