@<TRIPOS>MOLECULE
/home/cewinharhar/GITHUB/reincatalyze/data/processed/docking_pred/2023-May-31-1438_sub9_nm5_bs15_s42_ex16_mel10_mts1000_k50_ec05_g099_lra9e-4_lrc3e-3/8f7e92428ebbeefdf44ae8ea1c0956f20f305f25_ligand_9.pdbqt
 14 15 0 0 0
SMALL
GASTEIGER

@<TRIPOS>ATOM
      1  C          8.3260    0.2160   -2.6460 C.3     1  UNL1        0.0800
      2  C          8.0300   -1.2420   -2.7200 C.2     1  UNL1        0.1300
      3  C          9.0940   -2.2410   -3.0110 C.3     1  UNL1        0.0870
      4  O          6.8980   -1.6620   -2.5440 O.2     1  UNL1       -0.3000
      5  C          8.8490    0.6020   -1.2770 C.3     1  UNL1        0.0430
      6  C          7.8190    0.4490   -0.2350 C.2     1  UNL1       -0.0440
      7  C          7.9400   -0.5050    0.7820 C.2     1  UNL1        0.0080
      8  C          6.7070    1.2610   -0.2500 C.2     1  UNL1        0.0540
      9  C          6.9410   -0.6020    1.7330 C.2     1  UNL1        0.0510
     10  C          5.7010    1.1600    0.7150 C.2     1  UNL1        0.1660
     11  C          5.8190    0.2200    1.7150 C.2     1  UNL1        0.1650
     12  O          4.5180    1.8390    0.9140 O.2     1  UNL1       -0.4540
     13  O          4.6940    0.3430    2.5160 O.2     1  UNL1       -0.4540
     14  C          3.8870    1.4180    2.0970 C.3     1  UNL1        0.4680
@<TRIPOS>BOND
     1     3     2    1
     2     2     1    1
     3     2     4    2
     4     1     5    1
     5     5     6    1
     6     8     6    2
     7     8    10    1
     8     6     7    1
     9    10    12    1
    10    10    11    2
    11     7     9    2
    12    12    14    1
    13    11     9    1
    14    11    13    1
    15    14    13    1
