@<TRIPOS>MOLECULE
/home/cewinharhar/GITHUB/reincatalyze/data/processed/docking_pred/2023-May-31-1438_sub9_nm5_bs15_s42_ex16_mel10_mts1000_k50_ec05_g099_lra9e-4_lrc3e-3/8f7e92428ebbeefdf44ae8ea1c0956f20f305f25_ligand_9.pdbqt
 14 15 0 0 0
SMALL
GASTEIGER

@<TRIPOS>ATOM
      1  C          6.3350    1.2430    0.8930 C.3     1  UNL1        0.0800
      2  C          5.6580    0.4090    1.9250 C.2     1  UNL1        0.1300
      3  C          6.2870   -0.8250    2.4670 C.3     1  UNL1        0.0870
      4  O          4.5590    0.7170    2.3570 O.2     1  UNL1       -0.3000
      5  C          5.8210    0.9240   -0.4970 C.3     1  UNL1        0.0430
      6  C          6.7800    0.1040   -1.2590 C.2     1  UNL1       -0.0440
      7  C          7.4690    0.6180   -2.3630 C.2     1  UNL1        0.0080
      8  C          7.0130   -1.1990   -0.8830 C.2     1  UNL1        0.0540
      9  C          8.3580   -0.1980   -3.0400 C.2     1  UNL1        0.0510
     10  C          7.9130   -2.0200   -1.5690 C.2     1  UNL1        0.1660
     11  C          8.5900   -1.5150   -2.6570 C.2     1  UNL1        0.1650
     12  O          8.3120   -3.3280   -1.3960 O.2     1  UNL1       -0.4540
     13  O          9.4010   -2.5340   -3.1330 O.2     1  UNL1       -0.4540
     14  C          9.3230   -3.6720   -2.3080 C.3     1  UNL1        0.4680
@<TRIPOS>BOND
     1    13    11    1
     2    13    14    1
     3     9    11    2
     4     9     7    1
     5    11    10    1
     6     7     6    2
     7    14    12    1
     8    10    12    1
     9    10     8    2
    10     6     8    1
    11     6     5    1
    12     5     1    1
    13     1     2    1
    14     2     4    2
    15     2     3    1
