@<TRIPOS>MOLECULE
/home/cewinharhar/GITHUB/reincatalyze/data/processed/docking_pred/2023-May-31-1438_sub9_nm5_bs15_s42_ex16_mel10_mts1000_k50_ec05_g099_lra9e-4_lrc3e-3/91438d65c636cbfd2c8442c68b92b155f88758ee_ligand_9.pdbqt
 14 15 0 0 0
SMALL
GASTEIGER

@<TRIPOS>ATOM
      1  C          6.6540    1.1420    1.2440 C.3     1  UNL1        0.0800
      2  C          5.2640    1.6010    0.9680 C.2     1  UNL1        0.1300
      3  C          4.8720    2.1500   -0.3570 C.3     1  UNL1        0.0870
      4  O          4.4020    1.5410    1.8300 O.2     1  UNL1       -0.3000
      5  C          7.5310    1.2710    0.0140 C.3     1  UNL1        0.0430
      6  C          7.7830   -0.0370   -0.6170 C.2     1  UNL1       -0.0440
      7  C          7.7330   -0.2020   -2.0060 C.2     1  UNL1        0.0080
      8  C          8.0790   -1.1270    0.1680 C.2     1  UNL1        0.0540
      9  C          7.9800   -1.4530   -2.5420 C.2     1  UNL1        0.0510
     10  C          8.3280   -2.3900   -0.3790 C.2     1  UNL1        0.1660
     11  C          8.2780   -2.5540   -1.7450 C.2     1  UNL1        0.1650
     12  O          8.6370   -3.6120    0.1800 O.2     1  UNL1       -0.4540
     13  O          8.5610   -3.8860   -1.9990 O.2     1  UNL1       -0.4540
     14  C          8.8850   -4.5730   -0.8140 C.3     1  UNL1        0.4680
@<TRIPOS>BOND
     1     9     7    1
     2     9    11    2
     3     7     6    2
     4    13    11    1
     5    13    14    1
     6    11    10    1
     7    14    12    1
     8     6     5    1
     9     6     8    1
    10    10     8    2
    11    10    12    1
    12     3     2    1
    13     5     1    1
    14     2     1    1
    15     2     4    2
