@<TRIPOS>MOLECULE
/home/cewinharhar/GITHUB/reincatalyze/data/processed/docking_pred/2023-May-31-1438_sub9_nm5_bs15_s42_ex16_mel10_mts1000_k50_ec05_g099_lra9e-4_lrc3e-3/91438d65c636cbfd2c8442c68b92b155f88758ee_ligand_9.pdbqt
 14 15 0 0 0
SMALL
GASTEIGER

@<TRIPOS>ATOM
      1  C          5.8170    1.3900   -0.2780 C.3     1  UNL1        0.0800
      2  C          5.1500    1.2820    1.0500 C.2     1  UNL1        0.1300
      3  C          5.3860    0.1230    1.9510 C.3     1  UNL1        0.0870
      4  O          4.3840    2.1500    1.4380 O.2     1  UNL1       -0.3000
      5  C          7.2960    1.0750   -0.1770 C.3     1  UNL1        0.0430
      6  C          7.6260   -0.2120   -0.8160 C.2     1  UNL1       -0.0440
      7  C          7.6180   -0.3620   -2.2080 C.2     1  UNL1        0.0080
      8  C          7.9530   -1.2970   -0.0360 C.2     1  UNL1        0.0540
      9  C          7.9370   -1.5940   -2.7510 C.2     1  UNL1        0.0510
     10  C          8.2750   -2.5400   -0.5900 C.2     1  UNL1        0.1660
     11  C          8.2660   -2.6890   -1.9590 C.2     1  UNL1        0.1650
     12  O          8.6270   -3.7520   -0.0370 O.2     1  UNL1       -0.4540
     13  O          8.6190   -4.0040   -2.2210 O.2     1  UNL1       -0.4540
     14  C          8.9450   -4.6890   -1.0350 C.3     1  UNL1        0.4680
@<TRIPOS>BOND
     1     9     7    1
     2     9    11    2
     3    13    11    1
     4    13    14    1
     5     7     6    2
     6    11    10    1
     7    14    12    1
     8     6     5    1
     9     6     8    1
    10    10    12    1
    11    10     8    2
    12     1     5    1
    13     1     2    1
    14     2     4    2
    15     2     3    1
