@<TRIPOS>MOLECULE
/home/cewinharhar/GITHUB/reincatalyze/data/processed/docking_pred/2023-May-31-1438_sub9_nm5_bs15_s42_ex16_mel10_mts1000_k50_ec05_g099_lra9e-4_lrc3e-3/91438d65c636cbfd2c8442c68b92b155f88758ee_ligand_9.pdbqt
 14 15 0 0 0
SMALL
GASTEIGER

@<TRIPOS>ATOM
      1  C          6.3890    1.2130    0.9370 C.3     1  UNL1        0.0800
      2  C          5.6570    0.3780    1.9290 C.2     1  UNL1        0.1300
      3  C          6.2560   -0.8560    2.5060 C.3     1  UNL1        0.0870
      4  O          4.5350    0.6840    2.2990 O.2     1  UNL1       -0.3000
      5  C          5.8900    0.9590   -0.4720 C.3     1  UNL1        0.0430
      6  C          6.8280    0.1220   -1.2410 C.2     1  UNL1       -0.0440
      7  C          7.5180    0.6250   -2.3510 C.2     1  UNL1        0.0080
      8  C          7.0410   -1.1850   -0.8670 C.2     1  UNL1        0.0540
      9  C          8.3860   -0.2070   -3.0340 C.2     1  UNL1        0.0510
     10  C          7.9200   -2.0220   -1.5610 C.2     1  UNL1        0.1660
     11  C          8.5980   -1.5290   -2.6540 C.2     1  UNL1        0.1650
     12  O          8.2970   -3.3370   -1.3910 O.2     1  UNL1       -0.4540
     13  O          9.3870   -2.5620   -3.1360 O.2     1  UNL1       -0.4540
     14  C          9.2950   -3.6990   -2.3110 C.3     1  UNL1        0.4680
@<TRIPOS>BOND
     1    13    11    1
     2    13    14    1
     3     9    11    2
     4     9     7    1
     5    11    10    1
     6     7     6    2
     7    14    12    1
     8    10    12    1
     9    10     8    2
    10     6     8    1
    11     6     5    1
    12     5     1    1
    13     1     2    1
    14     2     4    2
    15     2     3    1
