@<TRIPOS>MOLECULE
/home/cewinharhar/GITHUB/reincatalyze/data/processed/docking_pred/2023-May-31-1438_sub9_nm5_bs15_s42_ex16_mel10_mts1000_k50_ec05_g099_lra9e-4_lrc3e-3/9282b18981f6708324b0af4486d36de930a99903_ligand_9.pdbqt
 14 15 0 0 0
SMALL
GASTEIGER

@<TRIPOS>ATOM
      1  C          2.3650   -7.6610   -0.7160 C.3     1  UNL1        0.0800
      2  C          2.2850   -6.2200   -0.3480 C.2     1  UNL1        0.1300
      3  C          2.0140   -5.1690   -1.3650 C.3     1  UNL1        0.0870
      4  O          2.4410   -5.8590    0.8070 O.2     1  UNL1       -0.3000
      5  C          2.9220   -8.4900    0.4240 C.3     1  UNL1        0.0430
      6  C          1.9970   -9.5680    0.8190 C.2     1  UNL1       -0.0440
      7  C          2.4660  -10.8080    1.2670 C.2     1  UNL1        0.0080
      8  C          0.6390   -9.3590    0.7520 C.2     1  UNL1        0.0540
      9  C          1.5500  -11.7820    1.6250 C.2     1  UNL1        0.0510
     10  C         -0.2830  -10.3460    1.1160 C.2     1  UNL1        0.1660
     11  C          0.1770  -11.5670    1.5550 C.2     1  UNL1        0.1650
     12  O         -1.6610  -10.3830    1.1370 O.2     1  UNL1       -0.4540
     13  O         -0.9390  -12.3370    1.8420 O.2     1  UNL1       -0.4540
     14  C         -2.1240  -11.5940    1.6770 C.3     1  UNL1        0.4680
@<TRIPOS>BOND
     1     3     2    1
     2     1     2    1
     3     1     5    1
     4     2     4    2
     5     5     6    1
     6     8     6    2
     7     8    10    1
     8     6     7    1
     9    10    12    1
    10    10    11    2
    11    12    14    1
    12     7     9    2
    13    11     9    1
    14    11    13    1
    15    14    13    1
