@<TRIPOS>MOLECULE
/home/cewinharhar/GITHUB/reincatalyze/data/processed/docking_pred/2023-May-31-1438_sub9_nm5_bs15_s42_ex16_mel10_mts1000_k50_ec05_g099_lra9e-4_lrc3e-3/9282b18981f6708324b0af4486d36de930a99903_ligand_9.pdbqt
 14 15 0 0 0
SMALL
GASTEIGER

@<TRIPOS>ATOM
      1  C          7.9360   -3.0670    0.9570 C.3     1  UNL1        0.0800
      2  C          9.0970   -3.9000    0.5360 C.2     1  UNL1        0.1300
      3  C          9.0410   -4.7610   -0.6760 C.3     1  UNL1        0.0870
      4  O         10.1350   -3.8990    1.1780 O.2     1  UNL1       -0.3000
      5  C          8.3760   -1.9120    1.8340 C.3     1  UNL1        0.0430
      6  C          7.3910   -0.8160    1.8290 C.2     1  UNL1       -0.0440
      7  C          7.7550    0.4950    1.5010 C.2     1  UNL1        0.0080
      8  C          6.0780   -1.0770    2.1510 C.2     1  UNL1        0.0540
      9  C          6.7870    1.4830    1.5120 C.2     1  UNL1        0.0510
     10  C          5.1030   -0.0750    2.1600 C.2     1  UNL1        0.1660
     11  C          5.4610    1.2160    1.8390 C.2     1  UNL1        0.1650
     12  O          3.7540   -0.0800    2.4420 O.2     1  UNL1       -0.4540
     13  O          4.3110    1.9840    1.9290 O.2     1  UNL1       -0.4540
     14  C          3.1880    1.1870    2.2200 C.3     1  UNL1        0.4680
@<TRIPOS>BOND
     1     3     2    1
     2     2     1    1
     3     2     4    2
     4     1     5    1
     5     7     9    1
     6     7     6    2
     7     9    11    2
     8     6     5    1
     9     6     8    1
    10    11    13    1
    11    11    10    1
    12    13    14    1
    13     8    10    2
    14    10    12    1
    15    14    12    1
