@<TRIPOS>MOLECULE
/home/cewinharhar/GITHUB/reincatalyze/data/processed/docking_pred/2023-May-31-1438_sub9_nm5_bs15_s42_ex16_mel10_mts1000_k50_ec05_g099_lra9e-4_lrc3e-3/939bd1e5684a89eea32cbd4f4170b12915347732_ligand_9.pdbqt
 14 15 0 0 0
SMALL
GASTEIGER

@<TRIPOS>ATOM
      1  C          6.6430    0.2220    1.8040 C.3     1  UNL1        0.0800
      2  C          5.3360    0.9150    1.6320 C.2     1  UNL1        0.1300
      3  C          5.1140    1.9060    0.5450 C.3     1  UNL1        0.0870
      4  O          4.4030    0.6880    2.3850 O.2     1  UNL1       -0.3000
      5  C          6.5380   -1.2470    1.4460 C.3     1  UNL1        0.0430
      6  C          7.2730   -1.5620    0.2080 C.2     1  UNL1       -0.0440
      7  C          6.8550   -1.0750   -1.0360 C.2     1  UNL1        0.0080
      8  C          8.3990   -2.3510    0.2640 C.2     1  UNL1        0.0540
      9  C          7.5850   -1.4020   -2.1650 C.2     1  UNL1        0.0510
     10  C          9.1340   -2.6780   -0.8790 C.2     1  UNL1        0.1660
     11  C          8.7230   -2.2010   -2.1040 C.2     1  UNL1        0.1650
     12  O         10.2690   -3.4340   -1.0820 O.2     1  UNL1       -0.4540
     13  O          9.6250   -2.6760   -3.0430 O.2     1  UNL1       -0.4540
     14  C         10.6720   -3.3870   -2.4270 C.3     1  UNL1        0.4680
@<TRIPOS>BOND
     1    13    14    1
     2    13    11    1
     3    14    12    1
     4     9    11    2
     5     9     7    1
     6    11    10    1
     7    12    10    1
     8     7     6    2
     9    10     8    2
    10     6     8    1
    11     6     5    1
    12     3     2    1
    13     5     1    1
    14     2     1    1
    15     2     4    2
