@<TRIPOS>MOLECULE
/home/cewinharhar/GITHUB/reincatalyze/data/processed/docking_pred/2023-May-31-1438_sub9_nm5_bs15_s42_ex16_mel10_mts1000_k50_ec05_g099_lra9e-4_lrc3e-3/939bd1e5684a89eea32cbd4f4170b12915347732_ligand_9.pdbqt
 14 15 0 0 0
SMALL
GASTEIGER

@<TRIPOS>ATOM
      1  C          5.8490    1.6000    0.8760 C.3     1  UNL1        0.0800
      2  C          5.3980    0.5870    1.8700 C.2     1  UNL1        0.1300
      3  C          6.2430   -0.5820    2.2330 C.3     1  UNL1        0.0870
      4  O          4.3130    0.6880    2.4200 O.2     1  UNL1       -0.3000
      5  C          5.7640    1.0590   -0.5380 C.3     1  UNL1        0.0430
      6  C          7.0170    0.4000   -0.9470 C.2     1  UNL1       -0.0440
      7  C          8.2630    1.0020   -0.7400 C.2     1  UNL1        0.0080
      8  C          6.9720   -0.8380   -1.5460 C.2     1  UNL1        0.0540
      9  C          9.4060    0.3360   -1.1440 C.2     1  UNL1        0.0510
     10  C          8.1300   -1.5080   -1.9520 C.2     1  UNL1        0.1660
     11  C          9.3570   -0.9160   -1.7500 C.2     1  UNL1        0.1650
     12  O          8.3470   -2.7260   -2.5600 O.2     1  UNL1       -0.4540
     13  O         10.3110   -1.7930   -2.2420 O.2     1  UNL1       -0.4540
     14  C          9.7210   -2.9920   -2.6820 C.3     1  UNL1        0.4680
@<TRIPOS>BOND
     1    14    12    1
     2    14    13    1
     3    12    10    1
     4    13    11    1
     5    10    11    2
     6    10     8    1
     7    11     9    1
     8     8     6    2
     9     9     7    2
    10     6     7    1
    11     6     5    1
    12     5     1    1
    13     1     2    1
    14     2     3    1
    15     2     4    2
