@<TRIPOS>MOLECULE
/home/cewinharhar/GITHUB/reincatalyze/data/processed/docking_pred/2023-May-31-1438_sub9_nm5_bs15_s42_ex16_mel10_mts1000_k50_ec05_g099_lra9e-4_lrc3e-3/939bd1e5684a89eea32cbd4f4170b12915347732_ligand_9.pdbqt
 14 15 0 0 0
SMALL
GASTEIGER

@<TRIPOS>ATOM
      1  C          6.7660    0.2100    1.0380 C.3     1  UNL1        0.0800
      2  C          5.4980    0.9280    1.3480 C.2     1  UNL1        0.1300
      3  C          4.9940    2.0300    0.4850 C.3     1  UNL1        0.0870
      4  O          4.8330    0.6320    2.3270 O.2     1  UNL1       -0.3000
      5  C          7.4980    0.8590   -0.1200 C.3     1  UNL1        0.0430
      6  C          8.1390   -0.1420   -0.9910 C.2     1  UNL1       -0.0440
      7  C          7.6960   -0.3680   -2.2990 C.2     1  UNL1        0.0080
      8  C          9.2020   -0.8770   -0.5170 C.2     1  UNL1        0.0540
      9  C          8.3370   -1.3200   -3.0710 C.2     1  UNL1        0.0510
     10  C          9.8480   -1.8380   -1.3010 C.2     1  UNL1        0.1660
     11  C          9.4120   -2.0610   -2.5880 C.2     1  UNL1        0.1650
     12  O         10.9090   -2.6860   -1.0640 O.2     1  UNL1       -0.4540
     13  O         10.2230   -3.0510   -3.1210 O.2     1  UNL1       -0.4540
     14  C         11.2430   -3.4110   -2.2200 C.3     1  UNL1        0.4680
@<TRIPOS>BOND
     1    13    11    1
     2    13    14    1
     3     9    11    2
     4     9     7    1
     5    11    10    1
     6     7     6    2
     7    14    12    1
     8    10    12    1
     9    10     8    2
    10     6     8    1
    11     6     5    1
    12     5     1    1
    13     3     2    1
    14     1     2    1
    15     2     4    2
