@<TRIPOS>MOLECULE
/home/cewinharhar/GITHUB/reincatalyze/data/processed/docking_pred/2023-May-31-1438_sub9_nm5_bs15_s42_ex16_mel10_mts1000_k50_ec05_g099_lra9e-4_lrc3e-3/939bd1e5684a89eea32cbd4f4170b12915347732_ligand_9.pdbqt
 14 15 0 0 0
SMALL
GASTEIGER

@<TRIPOS>ATOM
      1  C          6.3300    1.6680    0.2120 C.3     1  UNL1        0.0800
      2  C          5.2410    1.3040    1.1600 C.2     1  UNL1        0.1300
      3  C          5.2930    0.0550    1.9670 C.3     1  UNL1        0.0870
      4  O          4.2670    2.0250    1.3030 O.2     1  UNL1       -0.3000
      5  C          6.3490    0.7400   -0.9870 C.3     1  UNL1        0.0430
      6  C          7.5720   -0.0810   -1.0240 C.2     1  UNL1       -0.0440
      7  C          8.5060   -0.0520    0.0180 C.2     1  UNL1        0.0080
      8  C          7.8120   -0.9010   -2.1030 C.2     1  UNL1        0.0540
      9  C          9.6360   -0.8450   -0.0710 C.2     1  UNL1        0.0510
     10  C          8.9550   -1.7010   -2.1880 C.2     1  UNL1        0.1660
     11  C          9.8750   -1.6720   -1.1640 C.2     1  UNL1        0.1650
     12  O          9.4140   -2.5850   -3.1410 O.2     1  UNL1       -0.4540
     13  O         10.8890   -2.5500   -1.5110 O.2     1  UNL1       -0.4540
     14  C         10.5930   -3.2180   -2.7140 C.3     1  UNL1        0.4680
@<TRIPOS>BOND
     1    12    14    1
     2    12    10    1
     3    14    13    1
     4    10     8    1
     5    10    11    2
     6     8     6    2
     7    13    11    1
     8    11     9    1
     9     6     5    1
    10     6     7    1
    11     5     1    1
    12     9     7    2
    13     1     2    1
    14     2     4    2
    15     2     3    1
