MODEL 1
REMARK VINA RESULT:      -8.2      0.000      0.000
REMARK SMILES CC(=O)CCc1ccc2c(c1)OCO2
REMARK SMILES IDX 4 1 2 2 1 3 3 4 5 5 6 6 7 7 11 8 8 9 10 10 9 11 12 12 14 13
REMARK SMILES IDX 13 14
REMARK H PARENT
REMARK Flexibility Score: inf
ROOT
ATOM      1  C   UNL     1       5.849   1.600   0.876  1.00  0.00     0.080 C 
ENDROOT
BRANCH   1   2
ATOM      2  C   UNL     1       5.398   0.587   1.870  1.00  0.00     0.130 C 
ATOM      3  C   UNL     1       6.243  -0.582   2.233  1.00  0.00     0.087 C 
ATOM      4  O   UNL     1       4.313   0.688   2.420  1.00  0.00    -0.300 OA
ENDBRANCH   1   2
BRANCH   1   5
ATOM      5  C   UNL     1       5.764   1.059  -0.538  1.00  0.00     0.043 C 
BRANCH   5   6
ATOM      6  C   UNL     1       7.017   0.400  -0.947  1.00  0.00    -0.044 A 
ATOM      7  C   UNL     1       8.263   1.002  -0.740  1.00  0.00     0.008 A 
ATOM      8  C   UNL     1       6.972  -0.838  -1.546  1.00  0.00     0.054 A 
ATOM      9  C   UNL     1       9.406   0.336  -1.144  1.00  0.00     0.051 A 
ATOM     10  C   UNL     1       8.130  -1.508  -1.952  1.00  0.00     0.166 A 
ATOM     11  C   UNL     1       9.357  -0.916  -1.750  1.00  0.00     0.165 A 
ATOM     12  O   UNL     1       8.347  -2.726  -2.560  1.00  0.00    -0.454 OA
ATOM     13  O   UNL     1      10.311  -1.793  -2.242  1.00  0.00    -0.454 OA
ATOM     14  C   UNL     1       9.721  -2.992  -2.682  1.00  0.00     0.468 C 
ENDBRANCH   5   6
ENDBRANCH   1   5
TORSDOF 3
ENDMDL
MODEL 2
REMARK VINA RESULT:      -7.7      1.089      1.792
REMARK SMILES CC(=O)CCc1ccc2c(c1)OCO2
REMARK SMILES IDX 4 1 2 2 1 3 3 4 5 5 6 6 7 7 11 8 8 9 10 10 9 11 12 12 14 13
REMARK SMILES IDX 13 14
REMARK H PARENT
REMARK Flexibility Score: inf
ROOT
ATOM      1  C   UNL     1       5.890   1.307  -0.321  1.00  0.00     0.080 C 
ENDROOT
BRANCH   1   2
ATOM      2  C   UNL     1       5.290   1.136   1.031  1.00  0.00     0.130 C 
ATOM      3  C   UNL     1       5.610  -0.040   1.885  1.00  0.00     0.087 C 
ATOM      4  O   UNL     1       4.512   1.961   1.480  1.00  0.00    -0.300 OA
ENDBRANCH   1   2
BRANCH   1   5
ATOM      5  C   UNL     1       7.405   1.294  -0.257  1.00  0.00     0.043 C 
BRANCH   5   6
ATOM      6  C   UNL     1       7.976   0.184  -1.041  1.00  0.00    -0.044 A 
ATOM      7  C   UNL     1       7.385  -0.251  -2.233  1.00  0.00     0.008 A 
ATOM      8  C   UNL     1       9.118  -0.445  -0.601  1.00  0.00     0.054 A 
ATOM      9  C   UNL     1       7.966  -1.297  -2.927  1.00  0.00     0.051 A 
ATOM     10  C   UNL     1       9.702  -1.501  -1.307  1.00  0.00     0.166 A 
ATOM     11  C   UNL     1       9.121  -1.931  -2.479  1.00  0.00     0.165 A 
ATOM     12  O   UNL     1      10.818  -2.278  -1.082  1.00  0.00    -0.454 OA
ATOM     13  O   UNL     1       9.901  -2.973  -2.955  1.00  0.00    -0.454 OA
ATOM     14  C   UNL     1      11.038  -3.166  -2.147  1.00  0.00     0.468 C 
ENDBRANCH   5   6
ENDBRANCH   1   5
TORSDOF 3
ENDMDL
MODEL 3
REMARK VINA RESULT:      -7.4      1.241      2.024
REMARK SMILES CC(=O)CCc1ccc2c(c1)OCO2
REMARK SMILES IDX 4 1 2 2 1 3 3 4 5 5 6 6 7 7 11 8 8 9 10 10 9 11 12 12 14 13
REMARK SMILES IDX 13 14
REMARK H PARENT
REMARK Flexibility Score: inf
ROOT
ATOM      1  C   UNL     1       6.766   0.210   1.038  1.00  0.00     0.080 C 
ENDROOT
BRANCH   1   2
ATOM      2  C   UNL     1       5.498   0.928   1.348  1.00  0.00     0.130 C 
ATOM      3  C   UNL     1       4.994   2.030   0.485  1.00  0.00     0.087 C 
ATOM      4  O   UNL     1       4.833   0.632   2.327  1.00  0.00    -0.300 OA
ENDBRANCH   1   2
BRANCH   1   5
ATOM      5  C   UNL     1       7.498   0.859  -0.120  1.00  0.00     0.043 C 
BRANCH   5   6
ATOM      6  C   UNL     1       8.139  -0.142  -0.991  1.00  0.00    -0.044 A 
ATOM      7  C   UNL     1       7.696  -0.368  -2.299  1.00  0.00     0.008 A 
ATOM      8  C   UNL     1       9.202  -0.877  -0.517  1.00  0.00     0.054 A 
ATOM      9  C   UNL     1       8.337  -1.320  -3.071  1.00  0.00     0.051 A 
ATOM     10  C   UNL     1       9.848  -1.838  -1.301  1.00  0.00     0.166 A 
ATOM     11  C   UNL     1       9.412  -2.061  -2.588  1.00  0.00     0.165 A 
ATOM     12  O   UNL     1      10.909  -2.686  -1.064  1.00  0.00    -0.454 OA
ATOM     13  O   UNL     1      10.223  -3.051  -3.121  1.00  0.00    -0.454 OA
ATOM     14  C   UNL     1      11.243  -3.411  -2.220  1.00  0.00     0.468 C 
ENDBRANCH   5   6
ENDBRANCH   1   5
TORSDOF 3
ENDMDL
MODEL 4
REMARK VINA RESULT:      -7.4      1.413      2.162
REMARK SMILES CC(=O)CCc1ccc2c(c1)OCO2
REMARK SMILES IDX 4 1 2 2 1 3 3 4 5 5 6 6 7 7 11 8 8 9 10 10 9 11 12 12 14 13
REMARK SMILES IDX 13 14
REMARK H PARENT
REMARK Flexibility Score: inf
ROOT
ATOM      1  C   UNL     1       6.643   0.222   1.804  1.00  0.00     0.080 C 
ENDROOT
BRANCH   1   2
ATOM      2  C   UNL     1       5.336   0.915   1.632  1.00  0.00     0.130 C 
ATOM      3  C   UNL     1       5.114   1.906   0.545  1.00  0.00     0.087 C 
ATOM      4  O   UNL     1       4.403   0.688   2.385  1.00  0.00    -0.300 OA
ENDBRANCH   1   2
BRANCH   1   5
ATOM      5  C   UNL     1       6.538  -1.247   1.446  1.00  0.00     0.043 C 
BRANCH   5   6
ATOM      6  C   UNL     1       7.273  -1.562   0.208  1.00  0.00    -0.044 A 
ATOM      7  C   UNL     1       6.855  -1.075  -1.036  1.00  0.00     0.008 A 
ATOM      8  C   UNL     1       8.399  -2.351   0.264  1.00  0.00     0.054 A 
ATOM      9  C   UNL     1       7.585  -1.402  -2.165  1.00  0.00     0.051 A 
ATOM     10  C   UNL     1       9.134  -2.678  -0.879  1.00  0.00     0.166 A 
ATOM     11  C   UNL     1       8.723  -2.201  -2.104  1.00  0.00     0.165 A 
ATOM     12  O   UNL     1      10.269  -3.434  -1.082  1.00  0.00    -0.454 OA
ATOM     13  O   UNL     1       9.625  -2.676  -3.043  1.00  0.00    -0.454 OA
ATOM     14  C   UNL     1      10.672  -3.387  -2.427  1.00  0.00     0.468 C 
ENDBRANCH   5   6
ENDBRANCH   1   5
TORSDOF 3
ENDMDL
MODEL 5
REMARK VINA RESULT:      -7.3      1.093      1.146
REMARK SMILES CC(=O)CCc1ccc2c(c1)OCO2
REMARK SMILES IDX 4 1 2 2 1 3 3 4 5 5 6 6 7 7 11 8 8 9 10 10 9 11 12 12 14 13
REMARK SMILES IDX 13 14
REMARK H PARENT
REMARK Flexibility Score: inf
ROOT
ATOM      1  C   UNL     1       6.330   1.668   0.212  1.00  0.00     0.080 C 
ENDROOT
BRANCH   1   2
ATOM      2  C   UNL     1       5.241   1.304   1.160  1.00  0.00     0.130 C 
ATOM      3  C   UNL     1       5.293   0.055   1.967  1.00  0.00     0.087 C 
ATOM      4  O   UNL     1       4.267   2.025   1.303  1.00  0.00    -0.300 OA
ENDBRANCH   1   2
BRANCH   1   5
ATOM      5  C   UNL     1       6.349   0.740  -0.987  1.00  0.00     0.043 C 
BRANCH   5   6
ATOM      6  C   UNL     1       7.572  -0.081  -1.024  1.00  0.00    -0.044 A 
ATOM      7  C   UNL     1       8.506  -0.052   0.018  1.00  0.00     0.008 A 
ATOM      8  C   UNL     1       7.812  -0.901  -2.103  1.00  0.00     0.054 A 
ATOM      9  C   UNL     1       9.636  -0.845  -0.071  1.00  0.00     0.051 A 
ATOM     10  C   UNL     1       8.955  -1.701  -2.188  1.00  0.00     0.166 A 
ATOM     11  C   UNL     1       9.875  -1.672  -1.164  1.00  0.00     0.165 A 
ATOM     12  O   UNL     1       9.414  -2.585  -3.141  1.00  0.00    -0.454 OA
ATOM     13  O   UNL     1      10.889  -2.550  -1.511  1.00  0.00    -0.454 OA
ATOM     14  C   UNL     1      10.593  -3.218  -2.714  1.00  0.00     0.468 C 
ENDBRANCH   5   6
ENDBRANCH   1   5
TORSDOF 3
ENDMDL
