@<TRIPOS>MOLECULE
/home/cewinharhar/GITHUB/reincatalyze/data/processed/docking_pred/2023-May-31-1438_sub9_nm5_bs15_s42_ex16_mel10_mts1000_k50_ec05_g099_lra9e-4_lrc3e-3/939bd1e5684a89eea32cbd4f4170b12915347732_ligand_9.pdbqt
 14 15 0 0 0
SMALL
GASTEIGER

@<TRIPOS>ATOM
      1  C          5.8900    1.3070   -0.3210 C.3     1  UNL1        0.0800
      2  C          5.2900    1.1360    1.0310 C.2     1  UNL1        0.1300
      3  C          5.6100   -0.0400    1.8850 C.3     1  UNL1        0.0870
      4  O          4.5120    1.9610    1.4800 O.2     1  UNL1       -0.3000
      5  C          7.4050    1.2940   -0.2570 C.3     1  UNL1        0.0430
      6  C          7.9760    0.1840   -1.0410 C.2     1  UNL1       -0.0440
      7  C          7.3850   -0.2510   -2.2330 C.2     1  UNL1        0.0080
      8  C          9.1180   -0.4450   -0.6010 C.2     1  UNL1        0.0540
      9  C          7.9660   -1.2970   -2.9270 C.2     1  UNL1        0.0510
     10  C          9.7020   -1.5010   -1.3070 C.2     1  UNL1        0.1660
     11  C          9.1210   -1.9310   -2.4790 C.2     1  UNL1        0.1650
     12  O         10.8180   -2.2780   -1.0820 O.2     1  UNL1       -0.4540
     13  O          9.9010   -2.9730   -2.9550 O.2     1  UNL1       -0.4540
     14  C         11.0380   -3.1660   -2.1470 C.3     1  UNL1        0.4680
@<TRIPOS>BOND
     1    13    11    1
     2    13    14    1
     3     9    11    2
     4     9     7    1
     5    11    10    1
     6     7     6    2
     7    14    12    1
     8    10    12    1
     9    10     8    2
    10     6     8    1
    11     6     5    1
    12     1     5    1
    13     1     2    1
    14     2     4    2
    15     2     3    1
