@<TRIPOS>MOLECULE
/home/cewinharhar/GITHUB/reincatalyze/data/processed/docking_pred/2023-May-31-1438_sub9_nm5_bs15_s42_ex16_mel10_mts1000_k50_ec05_g099_lra9e-4_lrc3e-3/93b19c8378935853b44d27bbf459025f9fc44a5e_ligand_9.pdbqt
 14 15 0 0 0
SMALL
GASTEIGER

@<TRIPOS>ATOM
      1  C          5.3380   -0.0410    1.9880 C.3     1  UNL1        0.0800
      2  C          4.4530    1.1400    1.7860 C.2     1  UNL1        0.1300
      3  C          4.7280    2.1500    0.7300 C.3     1  UNL1        0.0870
      4  O          3.4700    1.3140    2.4880 O.2     1  UNL1       -0.3000
      5  C          6.8010    0.3470    1.9110 C.3     1  UNL1        0.0430
      6  C          7.3970   -0.0200    0.6140 C.2     1  UNL1       -0.0440
      7  C          7.8840    0.9500   -0.2700 C.2     1  UNL1        0.0080
      8  C          7.4840   -1.3450    0.2550 C.2     1  UNL1        0.0540
      9  C          8.4330    0.5460   -1.4730 C.2     1  UNL1        0.0510
     10  C          8.0410   -1.7490   -0.9630 C.2     1  UNL1        0.1660
     11  C          8.5190   -0.7950   -1.8340 C.2     1  UNL1        0.1650
     12  O          8.2390   -2.9840   -1.5420 O.2     1  UNL1       -0.4540
     13  O          9.0060   -1.4720   -2.9410 O.2     1  UNL1       -0.4540
     14  C          8.9310   -2.8650   -2.7590 C.3     1  UNL1        0.4680
@<TRIPOS>BOND
     1    13    14    1
     2    13    11    1
     3    14    12    1
     4    11     9    2
     5    11    10    1
     6    12    10    1
     7     9     7    1
     8    10     8    2
     9     7     6    2
    10     8     6    1
    11     6     5    1
    12     3     2    1
    13     2     1    1
    14     2     4    2
    15     5     1    1
