@<TRIPOS>MOLECULE
/home/cewinharhar/GITHUB/reincatalyze/data/processed/docking_pred/2023-May-31-1438_sub9_nm5_bs15_s42_ex16_mel10_mts1000_k50_ec05_g099_lra9e-4_lrc3e-3/93b19c8378935853b44d27bbf459025f9fc44a5e_ligand_9.pdbqt
 14 15 0 0 0
SMALL
GASTEIGER

@<TRIPOS>ATOM
      1  C          5.4940   -0.0120    1.9980 C.3     1  UNL1        0.0800
      2  C          4.6070    1.1570    1.7420 C.2     1  UNL1        0.1300
      3  C          4.8950    2.1330    0.6570 C.3     1  UNL1        0.0870
      4  O          3.6100    1.3480    2.4200 O.2     1  UNL1       -0.3000
      5  C          6.9080    0.2550    1.5200 C.3     1  UNL1        0.0430
      6  C          7.3200   -0.6990    0.4750 C.2     1  UNL1       -0.0440
      7  C          7.1820   -0.4010   -0.8850 C.2     1  UNL1        0.0080
      8  C          7.8580   -1.9140    0.8340 C.2     1  UNL1        0.0540
      9  C          7.5870   -1.3350   -1.8220 C.2     1  UNL1        0.0510
     10  C          8.2670   -2.8540   -0.1160 C.2     1  UNL1        0.1660
     11  C          8.1300   -2.5620   -1.4550 C.2     1  UNL1        0.1650
     12  O          8.8210   -4.1130   -0.0150 O.2     1  UNL1       -0.4540
     13  O          8.6090   -3.6580   -2.1560 O.2     1  UNL1       -0.4540
     14  C          9.1400   -4.6260   -1.2830 C.3     1  UNL1        0.4680
@<TRIPOS>BOND
     1    13    11    1
     2    13    14    1
     3     9    11    2
     4     9     7    1
     5    11    10    1
     6    14    12    1
     7     7     6    2
     8    10    12    1
     9    10     8    2
    10     6     8    1
    11     6     5    1
    12     3     2    1
    13     5     1    1
    14     2     1    1
    15     2     4    2
