@<TRIPOS>MOLECULE
/home/cewinharhar/GITHUB/reincatalyze/data/processed/docking_pred/2023-May-31-1438_sub9_nm5_bs15_s42_ex16_mel10_mts1000_k50_ec05_g099_lra9e-4_lrc3e-3/93b19c8378935853b44d27bbf459025f9fc44a5e_ligand_9.pdbqt
 14 15 0 0 0
SMALL
GASTEIGER

@<TRIPOS>ATOM
      1  C          5.4950    1.9130    1.2660 C.3     1  UNL1        0.0800
      2  C          5.0330    0.7010    1.9990 C.2     1  UNL1        0.1300
      3  C          5.8840   -0.5130    2.1170 C.3     1  UNL1        0.0870
      4  O          3.9330    0.6700    2.5270 O.2     1  UNL1       -0.3000
      5  C          5.3760    1.7280   -0.2340 C.3     1  UNL1        0.0430
      6  C          6.5500    1.0340   -0.7930 C.2     1  UNL1       -0.0440
      7  C          7.8530    1.4780   -0.5410 C.2     1  UNL1        0.0080
      8  C          6.3730   -0.0790   -1.5830 C.2     1  UNL1        0.0540
      9  C          8.9170    0.7870   -1.0930 C.2     1  UNL1        0.0510
     10  C          7.4510   -0.7750   -2.1370 C.2     1  UNL1        0.1660
     11  C          8.7330   -0.3380   -1.8910 C.2     1  UNL1        0.1650
     12  O          7.5350   -1.8910   -2.9430 O.2     1  UNL1       -0.4540
     13  O          9.5870   -1.2040   -2.5560 O.2     1  UNL1       -0.4540
     14  C          8.8740   -2.2560   -3.1610 C.3     1  UNL1        0.4680
@<TRIPOS>BOND
     1    14    12    1
     2    14    13    1
     3    12    10    1
     4    13    11    1
     5    10    11    2
     6    10     8    1
     7    11     9    1
     8     8     6    2
     9     9     7    2
    10     6     7    1
    11     6     5    1
    12     5     1    1
    13     1     2    1
    14     2     3    1
    15     2     4    2
