@<TRIPOS>MOLECULE
/home/cewinharhar/GITHUB/reincatalyze/data/processed/docking_pred/2023-May-31-1438_sub9_nm5_bs15_s42_ex16_mel10_mts1000_k50_ec05_g099_lra9e-4_lrc3e-3/9545d038953ad0bd3b50a81295f717fe73892d7b_ligand_9.pdbqt
 14 15 0 0 0
SMALL
GASTEIGER

@<TRIPOS>ATOM
      1  C          6.6930    0.1100    1.6650 C.3     1  UNL1        0.0800
      2  C          5.4080    0.8560    1.5700 C.2     1  UNL1        0.1300
      3  C          5.1560    1.8430    0.4860 C.3     1  UNL1        0.0870
      4  O          4.5170    0.6770    2.3850 O.2     1  UNL1       -0.3000
      5  C          6.5290   -1.3290    1.2200 C.3     1  UNL1        0.0430
      6  C          7.3320   -1.6260    0.0200 C.2     1  UNL1       -0.0440
      7  C          6.9960   -1.1040   -1.2340 C.2     1  UNL1        0.0080
      8  C          8.4430   -2.4320    0.1250 C.2     1  UNL1        0.0540
      9  C          7.7870   -1.4150   -2.3250 C.2     1  UNL1        0.0510
     10  C          9.2400   -2.7430   -0.9810 C.2     1  UNL1        0.1660
     11  C          8.9090   -2.2310   -2.2150 C.2     1  UNL1        0.1650
     12  O         10.3760   -3.5100   -1.1340 O.2     1  UNL1       -0.4540
     13  O          9.8590   -2.6980   -3.1100 O.2     1  UNL1       -0.4540
     14  C         10.8590   -3.4380   -2.4510 C.3     1  UNL1        0.4680
@<TRIPOS>BOND
     1    13    14    1
     2    13    11    1
     3    14    12    1
     4     9    11    2
     5     9     7    1
     6    11    10    1
     7     7     6    2
     8    12    10    1
     9    10     8    2
    10     6     8    1
    11     6     5    1
    12     3     2    1
    13     5     1    1
    14     2     1    1
    15     2     4    2
