@<TRIPOS>MOLECULE
/home/cewinharhar/GITHUB/reincatalyze/data/processed/docking_pred/2023-May-31-1438_sub9_nm5_bs15_s42_ex16_mel10_mts1000_k50_ec05_g099_lra9e-4_lrc3e-3/9545d038953ad0bd3b50a81295f717fe73892d7b_ligand_9.pdbqt
 14 15 0 0 0
SMALL
GASTEIGER

@<TRIPOS>ATOM
      1  C          6.1610    0.1100    1.8470 C.3     1  UNL1        0.0800
      2  C          5.0350    1.0540    1.6020 C.2     1  UNL1        0.1300
      3  C          5.0640    2.0290    0.4800 C.3     1  UNL1        0.0870
      4  O          4.0500    1.0530    2.3220 O.2     1  UNL1       -0.3000
      5  C          6.4380   -0.7460    0.6270 C.3     1  UNL1        0.0430
      6  C          7.8520   -0.6730    0.2170 C.2     1  UNL1       -0.0440
      7  C          8.3260    0.3610   -0.5990 C.2     1  UNL1        0.0080
      8  C          8.7360   -1.6370    0.6440 C.2     1  UNL1        0.0540
      9  C          9.6640    0.3780   -0.9510 C.2     1  UNL1        0.0510
     10  C         10.0880   -1.6150    0.2860 C.2     1  UNL1        0.1660
     11  C         10.5550   -0.5990   -0.5180 C.2     1  UNL1        0.1650
     12  O         11.1500   -2.4440    0.5760 O.2     1  UNL1       -0.4540
     13  O         11.9090   -0.8280   -0.7060 O.2     1  UNL1       -0.4540
     14  C         12.3460   -1.9360    0.0430 C.3     1  UNL1        0.4680
@<TRIPOS>BOND
     1     9     7    1
     2     9    11    2
     3    13    11    1
     4    13    14    1
     5     7     6    2
     6    11    10    1
     7    14    12    1
     8     6     5    1
     9     6     8    1
    10    10    12    1
    11    10     8    2
    12     3     2    1
    13     5     1    1
    14     2     1    1
    15     2     4    2
