@<TRIPOS>MOLECULE
/home/cewinharhar/GITHUB/reincatalyze/data/processed/docking_pred/2023-May-31-1438_sub9_nm5_bs15_s42_ex16_mel10_mts1000_k50_ec05_g099_lra9e-4_lrc3e-3/9545d038953ad0bd3b50a81295f717fe73892d7b_ligand_9.pdbqt
 14 15 0 0 0
SMALL
GASTEIGER

@<TRIPOS>ATOM
      1  C          5.8450    1.3420   -0.2870 C.3     1  UNL1        0.0800
      2  C          5.2620    1.1280    1.0670 C.2     1  UNL1        0.1300
      3  C          5.6070   -0.0640    1.8870 C.3     1  UNL1        0.0870
      4  O          4.4780    1.9320    1.5450 O.2     1  UNL1       -0.3000
      5  C          7.3600    1.3100   -0.2450 C.3     1  UNL1        0.0430
      6  C          7.9050    0.1820   -1.0200 C.2     1  UNL1       -0.0440
      7  C          7.2500   -0.3140   -2.1530 C.2     1  UNL1        0.0080
      8  C          9.0880   -0.4060   -0.6310 C.2     1  UNL1        0.0540
      9  C          7.8090   -1.3750   -2.8420 C.2     1  UNL1        0.0510
     10  C          9.6490   -1.4780   -1.3310 C.2     1  UNL1        0.1660
     11  C          9.0040   -1.9670   -2.4450 C.2     1  UNL1        0.1650
     12  O         10.7950   -2.2220   -1.1480 O.2     1  UNL1       -0.4540
     13  O          9.7760   -3.0110   -2.9290 O.2     1  UNL1       -0.4540
     14  C         10.9660   -3.1480   -2.1900 C.3     1  UNL1        0.4680
@<TRIPOS>BOND
     1    13    11    1
     2    13    14    1
     3     9    11    2
     4     9     7    1
     5    11    10    1
     6    14    12    1
     7     7     6    2
     8    10    12    1
     9    10     8    2
    10     6     8    1
    11     6     5    1
    12     1     5    1
    13     1     2    1
    14     2     4    2
    15     2     3    1
