MODEL 1
REMARK VINA RESULT:      -8.2      0.000      0.000
REMARK SMILES CC(=O)CCc1ccc2c(c1)OCO2
REMARK SMILES IDX 4 1 2 2 1 3 3 4 5 5 6 6 7 7 11 8 8 9 10 10 9 11 12 12 14 13
REMARK SMILES IDX 13 14
REMARK H PARENT
REMARK Flexibility Score: inf
ROOT
ATOM      1  C   UNL     1       5.848   1.602   0.878  1.00  0.00     0.080 C 
ENDROOT
BRANCH   1   2
ATOM      2  C   UNL     1       5.393   0.589   1.872  1.00  0.00     0.130 C 
ATOM      3  C   UNL     1       6.230  -0.589   2.224  1.00  0.00     0.087 C 
ATOM      4  O   UNL     1       4.313   0.698   2.428  1.00  0.00    -0.300 OA
ENDBRANCH   1   2
BRANCH   1   5
ATOM      5  C   UNL     1       5.765   1.062  -0.536  1.00  0.00     0.043 C 
BRANCH   5   6
ATOM      6  C   UNL     1       7.019   0.405  -0.945  1.00  0.00    -0.044 A 
ATOM      7  C   UNL     1       8.265   1.008  -0.735  1.00  0.00     0.008 A 
ATOM      8  C   UNL     1       6.976  -0.832  -1.546  1.00  0.00     0.054 A 
ATOM      9  C   UNL     1       9.408   0.344  -1.139  1.00  0.00     0.051 A 
ATOM     10  C   UNL     1       8.136  -1.500  -1.953  1.00  0.00     0.166 A 
ATOM     11  C   UNL     1       9.362  -0.907  -1.748  1.00  0.00     0.165 A 
ATOM     12  O   UNL     1       8.354  -2.717  -2.563  1.00  0.00    -0.454 OA
ATOM     13  O   UNL     1      10.317  -1.781  -2.241  1.00  0.00    -0.454 OA
ATOM     14  C   UNL     1       9.728  -2.980  -2.684  1.00  0.00     0.468 C 
ENDBRANCH   5   6
ENDBRANCH   1   5
TORSDOF 3
ENDMDL
MODEL 2
REMARK VINA RESULT:      -7.7      1.054      1.781
REMARK SMILES CC(=O)CCc1ccc2c(c1)OCO2
REMARK SMILES IDX 4 1 2 2 1 3 3 4 5 5 6 6 7 7 11 8 8 9 10 10 9 11 12 12 14 13
REMARK SMILES IDX 13 14
REMARK H PARENT
REMARK Flexibility Score: inf
ROOT
ATOM      1  C   UNL     1       5.845   1.342  -0.287  1.00  0.00     0.080 C 
ENDROOT
BRANCH   1   2
ATOM      2  C   UNL     1       5.262   1.128   1.067  1.00  0.00     0.130 C 
ATOM      3  C   UNL     1       5.607  -0.064   1.887  1.00  0.00     0.087 C 
ATOM      4  O   UNL     1       4.478   1.932   1.545  1.00  0.00    -0.300 OA
ENDBRANCH   1   2
BRANCH   1   5
ATOM      5  C   UNL     1       7.360   1.310  -0.245  1.00  0.00     0.043 C 
BRANCH   5   6
ATOM      6  C   UNL     1       7.905   0.182  -1.020  1.00  0.00    -0.044 A 
ATOM      7  C   UNL     1       7.250  -0.314  -2.153  1.00  0.00     0.008 A 
ATOM      8  C   UNL     1       9.088  -0.406  -0.631  1.00  0.00     0.054 A 
ATOM      9  C   UNL     1       7.809  -1.375  -2.842  1.00  0.00     0.051 A 
ATOM     10  C   UNL     1       9.649  -1.478  -1.331  1.00  0.00     0.166 A 
ATOM     11  C   UNL     1       9.004  -1.967  -2.445  1.00  0.00     0.165 A 
ATOM     12  O   UNL     1      10.795  -2.222  -1.148  1.00  0.00    -0.454 OA
ATOM     13  O   UNL     1       9.776  -3.011  -2.929  1.00  0.00    -0.454 OA
ATOM     14  C   UNL     1      10.966  -3.148  -2.190  1.00  0.00     0.468 C 
ENDBRANCH   5   6
ENDBRANCH   1   5
TORSDOF 3
ENDMDL
MODEL 3
REMARK VINA RESULT:      -7.5      1.243      2.004
REMARK SMILES CC(=O)CCc1ccc2c(c1)OCO2
REMARK SMILES IDX 4 1 2 2 1 3 3 4 5 5 6 6 7 7 11 8 8 9 10 10 9 11 12 12 14 13
REMARK SMILES IDX 13 14
REMARK H PARENT
REMARK Flexibility Score: inf
ROOT
ATOM      1  C   UNL     1       6.645   0.149   1.030  1.00  0.00     0.080 C 
ENDROOT
BRANCH   1   2
ATOM      2  C   UNL     1       5.412   0.923   1.348  1.00  0.00     0.130 C 
ATOM      3  C   UNL     1       4.975   2.073   0.512  1.00  0.00     0.087 C 
ATOM      4  O   UNL     1       4.721   0.633   2.311  1.00  0.00    -0.300 OA
ENDBRANCH   1   2
BRANCH   1   5
ATOM      5  C   UNL     1       7.449   0.820  -0.066  1.00  0.00     0.043 C 
BRANCH   5   6
ATOM      6  C   UNL     1       8.095  -0.165  -0.952  1.00  0.00    -0.044 A 
ATOM      7  C   UNL     1       7.673  -0.351  -2.273  1.00  0.00     0.008 A 
ATOM      8  C   UNL     1       9.140  -0.925  -0.479  1.00  0.00     0.054 A 
ATOM      9  C   UNL     1       8.318  -1.289  -3.058  1.00  0.00     0.051 A 
ATOM     10  C   UNL     1       9.789  -1.873  -1.276  1.00  0.00     0.166 A 
ATOM     11  C   UNL     1       9.374  -2.056  -2.576  1.00  0.00     0.165 A 
ATOM     12  O   UNL     1      10.836  -2.739  -1.042  1.00  0.00    -0.454 OA
ATOM     13  O   UNL     1      10.184  -3.041  -3.120  1.00  0.00    -0.454 OA
ATOM     14  C   UNL     1      11.183  -3.437  -2.211  1.00  0.00     0.468 C 
ENDBRANCH   5   6
ENDBRANCH   1   5
TORSDOF 3
ENDMDL
MODEL 4
REMARK VINA RESULT:      -7.3      1.419      2.160
REMARK SMILES CC(=O)CCc1ccc2c(c1)OCO2
REMARK SMILES IDX 4 1 2 2 1 3 3 4 5 5 6 6 7 7 11 8 8 9 10 10 9 11 12 12 14 13
REMARK SMILES IDX 13 14
REMARK H PARENT
REMARK Flexibility Score: inf
ROOT
ATOM      1  C   UNL     1       6.693   0.110   1.665  1.00  0.00     0.080 C 
ENDROOT
BRANCH   1   2
ATOM      2  C   UNL     1       5.408   0.856   1.570  1.00  0.00     0.130 C 
ATOM      3  C   UNL     1       5.156   1.843   0.486  1.00  0.00     0.087 C 
ATOM      4  O   UNL     1       4.517   0.677   2.385  1.00  0.00    -0.300 OA
ENDBRANCH   1   2
BRANCH   1   5
ATOM      5  C   UNL     1       6.529  -1.329   1.220  1.00  0.00     0.043 C 
BRANCH   5   6
ATOM      6  C   UNL     1       7.332  -1.626   0.020  1.00  0.00    -0.044 A 
ATOM      7  C   UNL     1       6.996  -1.104  -1.234  1.00  0.00     0.008 A 
ATOM      8  C   UNL     1       8.443  -2.432   0.125  1.00  0.00     0.054 A 
ATOM      9  C   UNL     1       7.787  -1.415  -2.325  1.00  0.00     0.051 A 
ATOM     10  C   UNL     1       9.240  -2.743  -0.981  1.00  0.00     0.166 A 
ATOM     11  C   UNL     1       8.909  -2.231  -2.215  1.00  0.00     0.165 A 
ATOM     12  O   UNL     1      10.376  -3.510  -1.134  1.00  0.00    -0.454 OA
ATOM     13  O   UNL     1       9.859  -2.698  -3.110  1.00  0.00    -0.454 OA
ATOM     14  C   UNL     1      10.859  -3.438  -2.451  1.00  0.00     0.468 C 
ENDBRANCH   5   6
ENDBRANCH   1   5
TORSDOF 3
ENDMDL
MODEL 5
REMARK VINA RESULT:      -7.3      1.946      2.439
REMARK SMILES CC(=O)CCc1ccc2c(c1)OCO2
REMARK SMILES IDX 4 1 2 2 1 3 3 4 5 5 6 6 7 7 11 8 8 9 10 10 9 11 12 12 14 13
REMARK SMILES IDX 13 14
REMARK H PARENT
REMARK Flexibility Score: inf
ROOT
ATOM      1  C   UNL     1       6.161   0.110   1.847  1.00  0.00     0.080 C 
ENDROOT
BRANCH   1   2
ATOM      2  C   UNL     1       5.035   1.054   1.602  1.00  0.00     0.130 C 
ATOM      3  C   UNL     1       5.064   2.029   0.480  1.00  0.00     0.087 C 
ATOM      4  O   UNL     1       4.050   1.053   2.322  1.00  0.00    -0.300 OA
ENDBRANCH   1   2
BRANCH   1   5
ATOM      5  C   UNL     1       6.438  -0.746   0.627  1.00  0.00     0.043 C 
BRANCH   5   6
ATOM      6  C   UNL     1       7.852  -0.673   0.217  1.00  0.00    -0.044 A 
ATOM      7  C   UNL     1       8.326   0.361  -0.599  1.00  0.00     0.008 A 
ATOM      8  C   UNL     1       8.736  -1.637   0.644  1.00  0.00     0.054 A 
ATOM      9  C   UNL     1       9.664   0.378  -0.951  1.00  0.00     0.051 A 
ATOM     10  C   UNL     1      10.088  -1.615   0.286  1.00  0.00     0.166 A 
ATOM     11  C   UNL     1      10.555  -0.599  -0.518  1.00  0.00     0.165 A 
ATOM     12  O   UNL     1      11.150  -2.444   0.576  1.00  0.00    -0.454 OA
ATOM     13  O   UNL     1      11.909  -0.828  -0.706  1.00  0.00    -0.454 OA
ATOM     14  C   UNL     1      12.346  -1.936   0.043  1.00  0.00     0.468 C 
ENDBRANCH   5   6
ENDBRANCH   1   5
TORSDOF 3
ENDMDL
