@<TRIPOS>MOLECULE
/home/cewinharhar/GITHUB/reincatalyze/data/processed/docking_pred/2023-May-31-1438_sub9_nm5_bs15_s42_ex16_mel10_mts1000_k50_ec05_g099_lra9e-4_lrc3e-3/9545d038953ad0bd3b50a81295f717fe73892d7b_ligand_9.pdbqt
 14 15 0 0 0
SMALL
GASTEIGER

@<TRIPOS>ATOM
      1  C          6.6450    0.1490    1.0300 C.3     1  UNL1        0.0800
      2  C          5.4120    0.9230    1.3480 C.2     1  UNL1        0.1300
      3  C          4.9750    2.0730    0.5120 C.3     1  UNL1        0.0870
      4  O          4.7210    0.6330    2.3110 O.2     1  UNL1       -0.3000
      5  C          7.4490    0.8200   -0.0660 C.3     1  UNL1        0.0430
      6  C          8.0950   -0.1650   -0.9520 C.2     1  UNL1       -0.0440
      7  C          7.6730   -0.3510   -2.2730 C.2     1  UNL1        0.0080
      8  C          9.1400   -0.9250   -0.4790 C.2     1  UNL1        0.0540
      9  C          8.3180   -1.2890   -3.0580 C.2     1  UNL1        0.0510
     10  C          9.7890   -1.8730   -1.2760 C.2     1  UNL1        0.1660
     11  C          9.3740   -2.0560   -2.5760 C.2     1  UNL1        0.1650
     12  O         10.8360   -2.7390   -1.0420 O.2     1  UNL1       -0.4540
     13  O         10.1840   -3.0410   -3.1200 O.2     1  UNL1       -0.4540
     14  C         11.1830   -3.4370   -2.2110 C.3     1  UNL1        0.4680
@<TRIPOS>BOND
     1    13    11    1
     2    13    14    1
     3     9    11    2
     4     9     7    1
     5    11    10    1
     6     7     6    2
     7    14    12    1
     8    10    12    1
     9    10     8    2
    10     6     8    1
    11     6     5    1
    12     5     1    1
    13     3     2    1
    14     1     2    1
    15     2     4    2
