@<TRIPOS>MOLECULE
/home/cewinharhar/GITHUB/reincatalyze/data/processed/docking_pred/2023-May-31-1438_sub9_nm5_bs15_s42_ex16_mel10_mts1000_k50_ec05_g099_lra9e-4_lrc3e-3/9545d038953ad0bd3b50a81295f717fe73892d7b_ligand_9.pdbqt
 14 15 0 0 0
SMALL
GASTEIGER

@<TRIPOS>ATOM
      1  C          5.8480    1.6020    0.8780 C.3     1  UNL1        0.0800
      2  C          5.3930    0.5890    1.8720 C.2     1  UNL1        0.1300
      3  C          6.2300   -0.5890    2.2240 C.3     1  UNL1        0.0870
      4  O          4.3130    0.6980    2.4280 O.2     1  UNL1       -0.3000
      5  C          5.7650    1.0620   -0.5360 C.3     1  UNL1        0.0430
      6  C          7.0190    0.4050   -0.9450 C.2     1  UNL1       -0.0440
      7  C          8.2650    1.0080   -0.7350 C.2     1  UNL1        0.0080
      8  C          6.9760   -0.8320   -1.5460 C.2     1  UNL1        0.0540
      9  C          9.4080    0.3440   -1.1390 C.2     1  UNL1        0.0510
     10  C          8.1360   -1.5000   -1.9530 C.2     1  UNL1        0.1660
     11  C          9.3620   -0.9070   -1.7480 C.2     1  UNL1        0.1650
     12  O          8.3540   -2.7170   -2.5630 O.2     1  UNL1       -0.4540
     13  O         10.3170   -1.7810   -2.2410 O.2     1  UNL1       -0.4540
     14  C          9.7280   -2.9800   -2.6840 C.3     1  UNL1        0.4680
@<TRIPOS>BOND
     1    14    12    1
     2    14    13    1
     3    12    10    1
     4    13    11    1
     5    10    11    2
     6    10     8    1
     7    11     9    1
     8     8     6    2
     9     9     7    2
    10     6     7    1
    11     6     5    1
    12     5     1    1
    13     1     2    1
    14     2     3    1
    15     2     4    2
