@<TRIPOS>MOLECULE
/home/cewinharhar/GITHUB/reincatalyze/data/processed/docking_pred/2023-May-31-1438_sub9_nm5_bs15_s42_ex16_mel10_mts1000_k50_ec05_g099_lra9e-4_lrc3e-3/96aa1335557473cc7235c71144735280de1f686e_ligand_9.pdbqt
 14 15 0 0 0
SMALL
GASTEIGER

@<TRIPOS>ATOM
      1  C          5.7130    1.3370   -0.2880 C.3     1  UNL1        0.0800
      2  C          5.1070    1.2740    1.0710 C.2     1  UNL1        0.1300
      3  C          5.4240    0.1720    2.0170 C.3     1  UNL1        0.0870
      4  O          4.3270    2.1330    1.4500 O.2     1  UNL1       -0.3000
      5  C          7.2110    1.1130   -0.2340 C.3     1  UNL1        0.0430
      6  C          7.5940   -0.1720   -0.8460 C.2     1  UNL1       -0.0440
      7  C          7.6850   -0.3250   -2.2340 C.2     1  UNL1        0.0080
      8  C          7.8730   -1.2540   -0.0420 C.2     1  UNL1        0.0540
      9  C          8.0500   -1.5540   -2.7520 C.2     1  UNL1        0.0510
     10  C          8.2420   -2.4950   -0.5700 C.2     1  UNL1        0.1660
     11  C          8.3310   -2.6460   -1.9360 C.2     1  UNL1        0.1650
     12  O          8.5640   -3.7040    0.0090 O.2     1  UNL1       -0.4540
     13  O          8.7110   -3.9590   -2.1700 O.2     1  UNL1       -0.4540
     14  C          8.9570   -4.6390   -0.9630 C.3     1  UNL1        0.4680
@<TRIPOS>BOND
     1     9     7    1
     2     9    11    2
     3     7     6    2
     4    13    11    1
     5    13    14    1
     6    11    10    1
     7    14    12    1
     8     6     5    1
     9     6     8    1
    10    10     8    2
    11    10    12    1
    12     1     5    1
    13     1     2    1
    14     2     4    2
    15     2     3    1
