MODEL 1
REMARK VINA RESULT:      -7.6      0.000      0.000
REMARK SMILES CC(=O)CCc1ccc2c(c1)OCO2
REMARK SMILES IDX 4 1 2 2 1 3 3 4 5 5 6 6 7 7 11 8 8 9 10 10 9 11 12 12 14 13
REMARK SMILES IDX 13 14
REMARK H PARENT
REMARK Flexibility Score: inf
ROOT
ATOM      1  C   UNL     1       5.554   1.913   1.271  1.00  0.00     0.080 C 
ENDROOT
BRANCH   1   2
ATOM      2  C   UNL     1       5.111   0.701   2.016  1.00  0.00     0.130 C 
ATOM      3  C   UNL     1       6.004  -0.474   2.197  1.00  0.00     0.087 C 
ATOM      4  O   UNL     1       3.993   0.638   2.502  1.00  0.00    -0.300 OA
ENDBRANCH   1   2
BRANCH   1   5
ATOM      5  C   UNL     1       5.417   1.718  -0.227  1.00  0.00     0.043 C 
BRANCH   5   6
ATOM      6  C   UNL     1       6.583   1.017  -0.795  1.00  0.00    -0.044 A 
ATOM      7  C   UNL     1       7.890   1.454  -0.552  1.00  0.00     0.008 A 
ATOM      8  C   UNL     1       6.392  -0.095  -1.582  1.00  0.00     0.054 A 
ATOM      9  C   UNL     1       8.945   0.756  -1.112  1.00  0.00     0.051 A 
ATOM     10  C   UNL     1       7.462  -0.798  -2.145  1.00  0.00     0.166 A 
ATOM     11  C   UNL     1       8.749  -0.369  -1.908  1.00  0.00     0.165 A 
ATOM     12  O   UNL     1       7.533  -1.914  -2.951  1.00  0.00    -0.454 OA
ATOM     13  O   UNL     1       9.592  -1.240  -2.579  1.00  0.00    -0.454 OA
ATOM     14  C   UNL     1       8.868  -2.288  -3.178  1.00  0.00     0.468 C 
ENDBRANCH   5   6
ENDBRANCH   1   5
TORSDOF 3
ENDMDL
MODEL 2
REMARK VINA RESULT:      -7.4      1.938      2.415
REMARK SMILES CC(=O)CCc1ccc2c(c1)OCO2
REMARK SMILES IDX 4 1 2 2 1 3 3 4 5 5 6 6 7 7 11 8 8 9 10 10 9 11 12 12 14 13
REMARK SMILES IDX 13 14
REMARK H PARENT
REMARK Flexibility Score: inf
ROOT
ATOM      1  C   UNL     1       5.755   1.238  -0.316  1.00  0.00     0.080 C 
ENDROOT
BRANCH   1   2
ATOM      2  C   UNL     1       5.198   1.202   1.065  1.00  0.00     0.130 C 
ATOM      3  C   UNL     1       5.377   0.020   1.949  1.00  0.00     0.087 C 
ATOM      4  O   UNL     1       4.573   2.150   1.513  1.00  0.00    -0.300 OA
ENDBRANCH   1   2
BRANCH   1   5
ATOM      5  C   UNL     1       7.259   1.044  -0.308  1.00  0.00     0.043 C 
BRANCH   5   6
ATOM      6  C   UNL     1       7.647  -0.246  -0.905  1.00  0.00    -0.044 A 
ATOM      7  C   UNL     1       7.737  -0.415  -2.291  1.00  0.00     0.008 A 
ATOM      8  C   UNL     1       7.933  -1.317  -0.088  1.00  0.00     0.054 A 
ATOM      9  C   UNL     1       8.107  -1.650  -2.794  1.00  0.00     0.051 A 
ATOM     10  C   UNL     1       8.307  -2.562  -0.601  1.00  0.00     0.166 A 
ATOM     11  C   UNL     1       8.395  -2.730  -1.965  1.00  0.00     0.165 A 
ATOM     12  O   UNL     1       8.636  -3.762  -0.008  1.00  0.00    -0.454 OA
ATOM     13  O   UNL     1       8.780  -4.043  -2.184  1.00  0.00    -0.454 OA
ATOM     14  C   UNL     1       9.033  -4.708  -0.968  1.00  0.00     0.468 C 
ENDBRANCH   5   6
ENDBRANCH   1   5
TORSDOF 3
ENDMDL
MODEL 3
REMARK VINA RESULT:      -7.2      2.077      2.609
REMARK SMILES CC(=O)CCc1ccc2c(c1)OCO2
REMARK SMILES IDX 4 1 2 2 1 3 3 4 5 5 6 6 7 7 11 8 8 9 10 10 9 11 12 12 14 13
REMARK SMILES IDX 13 14
REMARK H PARENT
REMARK Flexibility Score: inf
ROOT
ATOM      1  C   UNL     1       5.585   0.024   1.900  1.00  0.00     0.080 C 
ENDROOT
BRANCH   1   2
ATOM      2  C   UNL     1       4.686   1.175   1.609  1.00  0.00     0.130 C 
ATOM      3  C   UNL     1       4.990   2.150   0.528  1.00  0.00     0.087 C 
ATOM      4  O   UNL     1       3.666   1.353   2.256  1.00  0.00    -0.300 OA
ENDBRANCH   1   2
BRANCH   1   5
ATOM      5  C   UNL     1       6.991   0.282   1.397  1.00  0.00     0.043 C 
BRANCH   5   6
ATOM      6  C   UNL     1       7.391  -0.692   0.367  1.00  0.00    -0.044 A 
ATOM      7  C   UNL     1       7.272  -0.406  -0.998  1.00  0.00     0.008 A 
ATOM      8  C   UNL     1       7.897  -1.915   0.744  1.00  0.00     0.054 A 
ATOM      9  C   UNL     1       7.664  -1.360  -1.920  1.00  0.00     0.051 A 
ATOM     10  C   UNL     1       8.293  -2.875  -0.192  1.00  0.00     0.166 A 
ATOM     11  C   UNL     1       8.175  -2.595  -1.535  1.00  0.00     0.165 A 
ATOM     12  O   UNL     1       8.817  -4.145  -0.072  1.00  0.00    -0.454 OA
ATOM     13  O   UNL     1       8.635  -3.710  -2.219  1.00  0.00    -0.454 OA
ATOM     14  C   UNL     1       9.136  -4.680  -1.331  1.00  0.00     0.468 C 
ENDBRANCH   5   6
ENDBRANCH   1   5
TORSDOF 3
ENDMDL
MODEL 4
REMARK VINA RESULT:      -7.1      1.250      1.456
REMARK SMILES CC(=O)CCc1ccc2c(c1)OCO2
REMARK SMILES IDX 4 1 2 2 1 3 3 4 5 5 6 6 7 7 11 8 8 9 10 10 9 11 12 12 14 13
REMARK SMILES IDX 13 14
REMARK H PARENT
REMARK Flexibility Score: inf
ROOT
ATOM      1  C   UNL     1       6.381   1.181   0.956  1.00  0.00     0.080 C 
ENDROOT
BRANCH   1   2
ATOM      2  C   UNL     1       5.648   0.362   1.962  1.00  0.00     0.130 C 
ATOM      3  C   UNL     1       6.243  -0.866   2.551  1.00  0.00     0.087 C 
ATOM      4  O   UNL     1       4.529   0.679   2.332  1.00  0.00    -0.300 OA
ENDBRANCH   1   2
BRANCH   1   5
ATOM      5  C   UNL     1       5.867   0.920  -0.446  1.00  0.00     0.043 C 
BRANCH   5   6
ATOM      6  C   UNL     1       6.809   0.099  -1.228  1.00  0.00    -0.044 A 
ATOM      7  C   UNL     1       7.474   0.612  -2.348  1.00  0.00     0.008 A 
ATOM      8  C   UNL     1       7.049  -1.205  -0.856  1.00  0.00     0.054 A 
ATOM      9  C   UNL     1       8.346  -0.206  -3.043  1.00  0.00     0.051 A 
ATOM     10  C   UNL     1       7.933  -2.027  -1.562  1.00  0.00     0.166 A 
ATOM     11  C   UNL     1       8.587  -1.523  -2.665  1.00  0.00     0.165 A 
ATOM     12  O   UNL     1       8.335  -3.335  -1.396  1.00  0.00    -0.454 OA
ATOM     13  O   UNL     1       9.386  -2.543  -3.157  1.00  0.00    -0.454 OA
ATOM     14  C   UNL     1       9.325  -3.680  -2.330  1.00  0.00     0.468 C 
ENDBRANCH   5   6
ENDBRANCH   1   5
TORSDOF 3
ENDMDL
MODEL 5
REMARK VINA RESULT:      -6.8      1.261      1.751
REMARK SMILES CC(=O)CCc1ccc2c(c1)OCO2
REMARK SMILES IDX 4 1 2 2 1 3 3 4 5 5 6 6 7 7 11 8 8 9 10 10 9 11 12 12 14 13
REMARK SMILES IDX 13 14
REMARK H PARENT
REMARK Flexibility Score: inf
ROOT
ATOM      1  C   UNL     1       5.325  -0.074   1.983  1.00  0.00     0.080 C 
ENDROOT
BRANCH   1   2
ATOM      2  C   UNL     1       4.446   1.115   1.799  1.00  0.00     0.130 C 
ATOM      3  C   UNL     1       4.731   2.143   0.763  1.00  0.00     0.087 C 
ATOM      4  O   UNL     1       3.460   1.280   2.499  1.00  0.00    -0.300 OA
ENDBRANCH   1   2
BRANCH   1   5
ATOM      5  C   UNL     1       6.790   0.310   1.921  1.00  0.00     0.043 C 
BRANCH   5   6
ATOM      6  C   UNL     1       7.393  -0.042   0.623  1.00  0.00    -0.044 A 
ATOM      7  C   UNL     1       7.888   0.938  -0.244  1.00  0.00     0.008 A 
ATOM      8  C   UNL     1       7.478  -1.363   0.246  1.00  0.00     0.054 A 
ATOM      9  C   UNL     1       8.444   0.549  -1.449  1.00  0.00     0.051 A 
ATOM     10  C   UNL     1       8.041  -1.752  -0.973  1.00  0.00     0.166 A 
ATOM     11  C   UNL     1       8.528  -0.788  -1.828  1.00  0.00     0.165 A 
ATOM     12  O   UNL     1       8.238  -2.980  -1.568  1.00  0.00    -0.454 OA
ATOM     13  O   UNL     1       9.019  -1.451  -2.941  1.00  0.00    -0.454 OA
ATOM     14  C   UNL     1       8.938  -2.847  -2.779  1.00  0.00     0.468 C 
ENDBRANCH   5   6
ENDBRANCH   1   5
TORSDOF 3
ENDMDL
