@<TRIPOS>MOLECULE
/home/cewinharhar/GITHUB/reincatalyze/data/processed/docking_pred/2023-May-31-1438_sub9_nm5_bs15_s42_ex16_mel10_mts1000_k50_ec05_g099_lra9e-4_lrc3e-3/97b80f67ae9ab19215981068b7c743dd8d1e9d0d_ligand_9.pdbqt
 14 15 0 0 0
SMALL
GASTEIGER

@<TRIPOS>ATOM
      1  C          5.7550    1.2380   -0.3160 C.3     1  UNL1        0.0800
      2  C          5.1980    1.2020    1.0650 C.2     1  UNL1        0.1300
      3  C          5.3770    0.0200    1.9490 C.3     1  UNL1        0.0870
      4  O          4.5730    2.1500    1.5130 O.2     1  UNL1       -0.3000
      5  C          7.2590    1.0440   -0.3080 C.3     1  UNL1        0.0430
      6  C          7.6470   -0.2460   -0.9050 C.2     1  UNL1       -0.0440
      7  C          7.7370   -0.4150   -2.2910 C.2     1  UNL1        0.0080
      8  C          7.9330   -1.3170   -0.0880 C.2     1  UNL1        0.0540
      9  C          8.1070   -1.6500   -2.7940 C.2     1  UNL1        0.0510
     10  C          8.3070   -2.5620   -0.6010 C.2     1  UNL1        0.1660
     11  C          8.3950   -2.7300   -1.9650 C.2     1  UNL1        0.1650
     12  O          8.6360   -3.7620   -0.0080 O.2     1  UNL1       -0.4540
     13  O          8.7800   -4.0430   -2.1840 O.2     1  UNL1       -0.4540
     14  C          9.0330   -4.7080   -0.9680 C.3     1  UNL1        0.4680
@<TRIPOS>BOND
     1     9     7    1
     2     9    11    2
     3     7     6    2
     4    13    11    1
     5    13    14    1
     6    11    10    1
     7    14    12    1
     8     6     5    1
     9     6     8    1
    10    10     8    2
    11    10    12    1
    12     1     5    1
    13     1     2    1
    14     2     4    2
    15     2     3    1
