@<TRIPOS>MOLECULE
/home/cewinharhar/GITHUB/reincatalyze/data/processed/docking_pred/2023-May-31-1438_sub9_nm5_bs15_s42_ex16_mel10_mts1000_k50_ec05_g099_lra9e-4_lrc3e-3/97b80f67ae9ab19215981068b7c743dd8d1e9d0d_ligand_9.pdbqt
 14 15 0 0 0
SMALL
GASTEIGER

@<TRIPOS>ATOM
      1  C          6.3810    1.1810    0.9560 C.3     1  UNL1        0.0800
      2  C          5.6480    0.3620    1.9620 C.2     1  UNL1        0.1300
      3  C          6.2430   -0.8660    2.5510 C.3     1  UNL1        0.0870
      4  O          4.5290    0.6790    2.3320 O.2     1  UNL1       -0.3000
      5  C          5.8670    0.9200   -0.4460 C.3     1  UNL1        0.0430
      6  C          6.8090    0.0990   -1.2280 C.2     1  UNL1       -0.0440
      7  C          7.4740    0.6120   -2.3480 C.2     1  UNL1        0.0080
      8  C          7.0490   -1.2050   -0.8560 C.2     1  UNL1        0.0540
      9  C          8.3460   -0.2060   -3.0430 C.2     1  UNL1        0.0510
     10  C          7.9330   -2.0270   -1.5620 C.2     1  UNL1        0.1660
     11  C          8.5870   -1.5230   -2.6650 C.2     1  UNL1        0.1650
     12  O          8.3350   -3.3350   -1.3960 O.2     1  UNL1       -0.4540
     13  O          9.3860   -2.5430   -3.1570 O.2     1  UNL1       -0.4540
     14  C          9.3250   -3.6800   -2.3300 C.3     1  UNL1        0.4680
@<TRIPOS>BOND
     1    13    11    1
     2    13    14    1
     3     9    11    2
     4     9     7    1
     5    11    10    1
     6     7     6    2
     7    14    12    1
     8    10    12    1
     9    10     8    2
    10     6     8    1
    11     6     5    1
    12     5     1    1
    13     1     2    1
    14     2     4    2
    15     2     3    1
