@<TRIPOS>MOLECULE
/home/cewinharhar/GITHUB/reincatalyze/data/processed/docking_pred/2023-May-31-1438_sub9_nm5_bs15_s42_ex16_mel10_mts1000_k50_ec05_g099_lra9e-4_lrc3e-3/97b80f67ae9ab19215981068b7c743dd8d1e9d0d_ligand_9.pdbqt
 14 15 0 0 0
SMALL
GASTEIGER

@<TRIPOS>ATOM
      1  C          5.3250   -0.0740    1.9830 C.3     1  UNL1        0.0800
      2  C          4.4460    1.1150    1.7990 C.2     1  UNL1        0.1300
      3  C          4.7310    2.1430    0.7630 C.3     1  UNL1        0.0870
      4  O          3.4600    1.2800    2.4990 O.2     1  UNL1       -0.3000
      5  C          6.7900    0.3100    1.9210 C.3     1  UNL1        0.0430
      6  C          7.3930   -0.0420    0.6230 C.2     1  UNL1       -0.0440
      7  C          7.8880    0.9380   -0.2440 C.2     1  UNL1        0.0080
      8  C          7.4780   -1.3630    0.2460 C.2     1  UNL1        0.0540
      9  C          8.4440    0.5490   -1.4490 C.2     1  UNL1        0.0510
     10  C          8.0410   -1.7520   -0.9730 C.2     1  UNL1        0.1660
     11  C          8.5280   -0.7880   -1.8280 C.2     1  UNL1        0.1650
     12  O          8.2380   -2.9800   -1.5680 O.2     1  UNL1       -0.4540
     13  O          9.0190   -1.4510   -2.9410 O.2     1  UNL1       -0.4540
     14  C          8.9380   -2.8470   -2.7790 C.3     1  UNL1        0.4680
@<TRIPOS>BOND
     1    13    14    1
     2    13    11    1
     3    14    12    1
     4    11     9    2
     5    11    10    1
     6    12    10    1
     7     9     7    1
     8    10     8    2
     9     7     6    2
    10     8     6    1
    11     6     5    1
    12     3     2    1
    13     2     1    1
    14     2     4    2
    15     5     1    1
