@<TRIPOS>MOLECULE
/home/cewinharhar/GITHUB/reincatalyze/data/processed/docking_pred/2023-May-31-1438_sub9_nm5_bs15_s42_ex16_mel10_mts1000_k50_ec05_g099_lra9e-4_lrc3e-3/98720eda2f8b5e3d73e45599e80051818594e19a_ligand_9.pdbqt
 14 15 0 0 0
SMALL
GASTEIGER

@<TRIPOS>ATOM
      1  C          5.6990    1.3210   -0.2990 C.3     1  UNL1        0.0800
      2  C          5.0650    1.2590    1.0470 C.2     1  UNL1        0.1300
      3  C          5.3070    0.1200    1.9720 C.3     1  UNL1        0.0870
      4  O          4.3210    2.1470    1.4310 O.2     1  UNL1       -0.3000
      5  C          7.1950    1.0920   -0.2130 C.3     1  UNL1        0.0430
      6  C          7.5900   -0.1840   -0.8350 C.2     1  UNL1       -0.0440
      7  C          7.6870   -0.3250   -2.2240 C.2     1  UNL1        0.0080
      8  C          7.8740   -1.2710   -0.0390 C.2     1  UNL1        0.0540
      9  C          8.0620   -1.5470   -2.7500 C.2     1  UNL1        0.0510
     10  C          8.2540   -2.5050   -0.5760 C.2     1  UNL1        0.1660
     11  C          8.3490   -2.6440   -1.9430 C.2     1  UNL1        0.1650
     12  O          8.5830   -3.7160   -0.0070 O.2     1  UNL1       -0.4540
     13  O          8.7390   -3.9510   -2.1870 O.2     1  UNL1       -0.4540
     14  C          8.9870   -4.6400   -0.9850 C.3     1  UNL1        0.4680
@<TRIPOS>BOND
     1     9     7    1
     2     9    11    2
     3     7     6    2
     4    13    11    1
     5    13    14    1
     6    11    10    1
     7    14    12    1
     8     6     5    1
     9     6     8    1
    10    10     8    2
    11    10    12    1
    12     1     5    1
    13     1     2    1
    14     2     4    2
    15     2     3    1
