@<TRIPOS>MOLECULE
/home/cewinharhar/GITHUB/reincatalyze/data/processed/docking_pred/2023-May-31-1438_sub9_nm5_bs15_s42_ex16_mel10_mts1000_k50_ec05_g099_lra9e-4_lrc3e-3/98720eda2f8b5e3d73e45599e80051818594e19a_ligand_9.pdbqt
 14 15 0 0 0
SMALL
GASTEIGER

@<TRIPOS>ATOM
      1  C          5.5540    1.8920    1.2990 C.3     1  UNL1        0.0800
      2  C          5.1010    0.6680    2.0160 C.2     1  UNL1        0.1300
      3  C          5.9880   -0.5140    2.1800 C.3     1  UNL1        0.0870
      4  O          3.9790    0.6000    2.4930 O.2     1  UNL1       -0.3000
      5  C          5.4250    1.7300   -0.2030 C.3     1  UNL1        0.0430
      6  C          6.5850    1.0270   -0.7780 C.2     1  UNL1       -0.0440
      7  C          7.8950    1.4580   -0.5410 C.2     1  UNL1        0.0080
      8  C          6.3870   -0.0830   -1.5670 C.2     1  UNL1        0.0540
      9  C          8.9450    0.7570   -1.1060 C.2     1  UNL1        0.0510
     10  C          7.4510   -0.7890   -2.1360 C.2     1  UNL1        0.1660
     11  C          8.7410   -0.3650   -1.9040 C.2     1  UNL1        0.1650
     12  O          7.5150   -1.9040   -2.9450 O.2     1  UNL1       -0.4540
     13  O          9.5780   -1.2380   -2.5810 O.2     1  UNL1       -0.4540
     14  C          8.8470   -2.2810   -3.1800 C.3     1  UNL1        0.4680
@<TRIPOS>BOND
     1    14    12    1
     2    14    13    1
     3    12    10    1
     4    13    11    1
     5    10    11    2
     6    10     8    1
     7    11     9    1
     8     8     6    2
     9     9     7    2
    10     6     7    1
    11     6     5    1
    12     5     1    1
    13     1     2    1
    14     2     3    1
    15     2     4    2
