@<TRIPOS>MOLECULE
/home/cewinharhar/GITHUB/reincatalyze/data/processed/docking_pred/2023-May-31-1438_sub9_nm5_bs15_s42_ex16_mel10_mts1000_k50_ec05_g099_lra9e-4_lrc3e-3/98720eda2f8b5e3d73e45599e80051818594e19a_ligand_9.pdbqt
 14 15 0 0 0
SMALL
GASTEIGER

@<TRIPOS>ATOM
      1  C          5.3940   -0.0740    2.0140 C.3     1  UNL1        0.0800
      2  C          4.5670    1.1400    1.7690 C.2     1  UNL1        0.1300
      3  C          4.9220    2.1270    0.7140 C.3     1  UNL1        0.0870
      4  O          3.5670    1.3620    2.4330 O.2     1  UNL1       -0.3000
      5  C          6.8410    0.1590    1.6290 C.3     1  UNL1        0.0430
      6  C          7.2760   -0.7550    0.5570 C.2     1  UNL1       -0.0440
      7  C          7.1560   -0.4100   -0.7940 C.2     1  UNL1        0.0080
      8  C          7.8160   -1.9790    0.8820 C.2     1  UNL1        0.0540
      9  C          7.5810   -1.3080   -1.7560 C.2     1  UNL1        0.0510
     10  C          8.2450   -2.8830   -0.0950 C.2     1  UNL1        0.1660
     11  C          8.1260   -2.5440   -1.4250 C.2     1  UNL1        0.1650
     12  O          8.8060   -4.1400   -0.0300 O.2     1  UNL1       -0.4540
     13  O          8.6230   -3.6120   -2.1560 O.2     1  UNL1       -0.4540
     14  C          9.1480   -4.6070   -1.3100 C.3     1  UNL1        0.4680
@<TRIPOS>BOND
     1    13    11    1
     2    13    14    1
     3     9    11    2
     4     9     7    1
     5    11    10    1
     6    14    12    1
     7     7     6    2
     8    10    12    1
     9    10     8    2
    10     6     8    1
    11     6     5    1
    12     3     2    1
    13     5     1    1
    14     2     1    1
    15     2     4    2
