MODEL 1
REMARK VINA RESULT:      -3.8      0.000      0.000
REMARK SMILES CC(=O)CCc1ccc2c(c1)OCO2
REMARK SMILES IDX 4 1 2 2 1 3 3 4 5 5 6 6 7 7 11 8 8 9 10 10 9 11 12 12 14 13
REMARK SMILES IDX 13 14
REMARK H PARENT
REMARK Flexibility Score: inf
ROOT
ATOM      1  C   UNL     1      12.282  -3.734  -1.790  1.00  0.00     0.080 C 
ENDROOT
BRANCH   1   2
ATOM      2  C   UNL     1      11.012  -4.062  -2.495  1.00  0.00     0.130 C 
ATOM      3  C   UNL     1      10.372  -5.399  -2.370  1.00  0.00     0.087 C 
ATOM      4  O   UNL     1      10.457  -3.237  -3.203  1.00  0.00    -0.300 OA
ENDBRANCH   1   2
BRANCH   1   5
ATOM      5  C   UNL     1      12.130  -3.875  -0.288  1.00  0.00     0.043 C 
BRANCH   5   6
ATOM      6  C   UNL     1      11.099  -2.966   0.244  1.00  0.00    -0.044 A 
ATOM      7  C   UNL     1      11.335  -1.595   0.390  1.00  0.00     0.008 A 
ATOM      8  C   UNL     1       9.869  -3.468   0.608  1.00  0.00     0.054 A 
ATOM      9  C   UNL     1      10.329  -0.790   0.895  1.00  0.00     0.051 A 
ATOM     10  C   UNL     1       8.856  -2.650   1.117  1.00  0.00     0.166 A 
ATOM     11  C   UNL     1       9.088  -1.301   1.262  1.00  0.00     0.165 A 
ATOM     12  O   UNL     1       7.570  -2.904   1.544  1.00  0.00    -0.454 OA
ATOM     13  O   UNL     1       7.927  -0.748   1.779  1.00  0.00    -0.454 OA
ATOM     14  C   UNL     1       6.909  -1.714   1.889  1.00  0.00     0.468 C 
ENDBRANCH   5   6
ENDBRANCH   1   5
TORSDOF 3
ENDMDL
MODEL 2
REMARK VINA RESULT:      -3.7      1.972      4.348
REMARK SMILES CC(=O)CCc1ccc2c(c1)OCO2
REMARK SMILES IDX 4 1 2 2 1 3 3 4 5 5 6 6 7 7 11 8 8 9 10 10 9 11 12 12 14 13
REMARK SMILES IDX 13 14
REMARK H PARENT
REMARK Flexibility Score: inf
ROOT
ATOM      1  C   UNL     1      11.921  -1.242   1.237  1.00  0.00     0.080 C 
ENDROOT
BRANCH   1   2
ATOM      2  C   UNL     1      10.767  -0.651   0.504  1.00  0.00     0.130 C 
ATOM      3  C   UNL     1      10.963   0.285  -0.635  1.00  0.00     0.087 C 
ATOM      4  O   UNL     1       9.620  -0.919   0.821  1.00  0.00    -0.300 OA
ENDBRANCH   1   2
BRANCH   1   5
ATOM      5  C   UNL     1      12.855  -1.976   0.295  1.00  0.00     0.043 C 
BRANCH   5   6
ATOM      6  C   UNL     1      12.143  -2.997  -0.494  1.00  0.00    -0.044 A 
ATOM      7  C   UNL     1      12.713  -3.569  -1.637  1.00  0.00     0.008 A 
ATOM      8  C   UNL     1      10.888  -3.407  -0.106  1.00  0.00     0.054 A 
ATOM      9  C   UNL     1      11.998  -4.524  -2.338  1.00  0.00     0.051 A 
ATOM     10  C   UNL     1      10.169  -4.373  -0.817  1.00  0.00     0.166 A 
ATOM     11  C   UNL     1      10.729  -4.935  -1.942  1.00  0.00     0.165 A 
ATOM     12  O   UNL     1       8.925  -4.940  -0.638  1.00  0.00    -0.454 OA
ATOM     13  O   UNL     1       9.808  -5.846  -2.436  1.00  0.00    -0.454 OA
ATOM     14  C   UNL     1       8.688  -5.947  -1.588  1.00  0.00     0.468 C 
ENDBRANCH   5   6
ENDBRANCH   1   5
TORSDOF 3
ENDMDL
MODEL 3
REMARK VINA RESULT:      -3.6      2.691      3.362
REMARK SMILES CC(=O)CCc1ccc2c(c1)OCO2
REMARK SMILES IDX 4 1 2 2 1 3 3 4 5 5 6 6 7 7 11 8 8 9 10 10 9 11 12 12 14 13
REMARK SMILES IDX 13 14
REMARK H PARENT
REMARK Flexibility Score: inf
ROOT
ATOM      1  C   UNL     1       9.969  -5.335  -2.523  1.00  0.00     0.080 C 
ENDROOT
BRANCH   1   2
ATOM      2  C   UNL     1       9.100  -5.791  -1.403  1.00  0.00     0.130 C 
ATOM      3  C   UNL     1       8.764  -7.227  -1.211  1.00  0.00     0.087 C 
ATOM      4  O   UNL     1       8.637  -4.993  -0.604  1.00  0.00    -0.300 OA
ENDBRANCH   1   2
BRANCH   1   5
ATOM      5  C   UNL     1      11.407  -5.168  -2.073  1.00  0.00     0.043 C 
BRANCH   5   6
ATOM      6  C   UNL     1      11.614  -3.890  -1.369  1.00  0.00    -0.044 A 
ATOM      7  C   UNL     1      12.548  -3.766  -0.334  1.00  0.00     0.008 A 
ATOM      8  C   UNL     1      10.879  -2.784  -1.731  1.00  0.00     0.054 A 
ATOM      9  C   UNL     1      12.700  -2.542   0.290  1.00  0.00     0.051 A 
ATOM     10  C   UNL     1      11.037  -1.548  -1.098  1.00  0.00     0.166 A 
ATOM     11  C   UNL     1      11.955  -1.426  -0.079  1.00  0.00     0.165 A 
ATOM     12  O   UNL     1      10.436  -0.320  -1.272  1.00  0.00    -0.454 OA
ATOM     13  O   UNL     1      11.898  -0.111   0.356  1.00  0.00    -0.454 OA
ATOM     14  C   UNL     1      11.013   0.648  -0.433  1.00  0.00     0.468 C 
ENDBRANCH   5   6
ENDBRANCH   1   5
TORSDOF 3
ENDMDL
MODEL 4
REMARK VINA RESULT:      -3.5      1.701      5.263
REMARK SMILES CC(=O)CCc1ccc2c(c1)OCO2
REMARK SMILES IDX 4 1 2 2 1 3 3 4 5 5 6 6 7 7 11 8 8 9 10 10 9 11 12 12 14 13
REMARK SMILES IDX 13 14
REMARK H PARENT
REMARK Flexibility Score: inf
ROOT
ATOM      1  C   UNL     1       7.460  -0.929   2.172  1.00  0.00     0.080 C 
ENDROOT
BRANCH   1   2
ATOM      2  C   UNL     1       6.078  -0.626   1.705  1.00  0.00     0.130 C 
ATOM      3  C   UNL     1       5.445   0.698   1.944  1.00  0.00     0.087 C 
ATOM      4  O   UNL     1       5.421  -1.464   1.108  1.00  0.00    -0.300 OA
ENDBRANCH   1   2
BRANCH   1   5
ATOM      5  C   UNL     1       7.908  -2.302   1.712  1.00  0.00     0.043 C 
BRANCH   5   6
ATOM      6  C   UNL     1       9.218  -2.251   1.039  1.00  0.00    -0.044 A 
ATOM      7  C   UNL     1      10.008  -1.096   1.058  1.00  0.00     0.008 A 
ATOM      8  C   UNL     1       9.687  -3.362   0.375  1.00  0.00     0.054 A 
ATOM      9  C   UNL     1      11.230  -1.108   0.409  1.00  0.00     0.051 A 
ATOM     10  C   UNL     1      10.923  -3.369  -0.279  1.00  0.00     0.166 A 
ATOM     11  C   UNL     1      11.700  -2.233  -0.262  1.00  0.00     0.165 A 
ATOM     12  O   UNL     1      11.600  -4.331  -0.998  1.00  0.00    -0.454 OA
ATOM     13  O   UNL     1      12.851  -2.524  -0.978  1.00  0.00    -0.454 OA
ATOM     14  C   UNL     1      12.869  -3.871  -1.385  1.00  0.00     0.468 C 
ENDBRANCH   5   6
ENDBRANCH   1   5
TORSDOF 3
ENDMDL
MODEL 5
REMARK VINA RESULT:      -3.4      2.096      4.357
REMARK SMILES CC(=O)CCc1ccc2c(c1)OCO2
REMARK SMILES IDX 4 1 2 2 1 3 3 4 5 5 6 6 7 7 11 8 8 9 10 10 9 11 12 12 14 13
REMARK SMILES IDX 13 14
REMARK H PARENT
REMARK Flexibility Score: inf
ROOT
ATOM      1  C   UNL     1      12.322  -0.574  -0.178  1.00  0.00     0.080 C 
ENDROOT
BRANCH   1   2
ATOM      2  C   UNL     1      10.901  -0.128  -0.143  1.00  0.00     0.130 C 
ATOM      3  C   UNL     1       9.960  -0.601   0.908  1.00  0.00     0.087 C 
ATOM      4  O   UNL     1      10.465   0.643  -0.982  1.00  0.00    -0.300 OA
ENDBRANCH   1   2
BRANCH   1   5
ATOM      5  C   UNL     1      12.489  -1.933   0.474  1.00  0.00     0.043 C 
BRANCH   5   6
ATOM      6  C   UNL     1      11.935  -3.012  -0.363  1.00  0.00    -0.044 A 
ATOM      7  C   UNL     1      12.684  -3.604  -1.387  1.00  0.00     0.008 A 
ATOM      8  C   UNL     1      10.652  -3.458  -0.140  1.00  0.00     0.054 A 
ATOM      9  C   UNL     1      12.111  -4.613  -2.139  1.00  0.00     0.051 A 
ATOM     10  C   UNL     1      10.078  -4.479  -0.903  1.00  0.00     0.166 A 
ATOM     11  C   UNL     1      10.814  -5.061  -1.911  1.00  0.00     0.165 A 
ATOM     12  O   UNL     1       8.842  -5.089  -0.879  1.00  0.00    -0.454 OA
ATOM     13  O   UNL     1      10.006  -6.027  -2.490  1.00  0.00    -0.454 OA
ATOM     14  C   UNL     1       8.780  -6.141  -1.808  1.00  0.00     0.468 C 
ENDBRANCH   5   6
ENDBRANCH   1   5
TORSDOF 3
ENDMDL
