@<TRIPOS>MOLECULE
/home/cewinharhar/GITHUB/reincatalyze/data/processed/docking_pred/2023-May-31-1438_sub9_nm5_bs15_s42_ex16_mel10_mts1000_k50_ec05_g099_lra9e-4_lrc3e-3/98ce2146f260201d1ebb2f82702d5d512d51d1e1_ligand_9.pdbqt
 14 15 0 0 0
SMALL
GASTEIGER

@<TRIPOS>ATOM
      1  C         11.9210   -1.2420    1.2370 C.3     1  UNL1        0.0800
      2  C         10.7670   -0.6510    0.5040 C.2     1  UNL1        0.1300
      3  C         10.9630    0.2850   -0.6350 C.3     1  UNL1        0.0870
      4  O          9.6200   -0.9190    0.8210 O.2     1  UNL1       -0.3000
      5  C         12.8550   -1.9760    0.2950 C.3     1  UNL1        0.0430
      6  C         12.1430   -2.9970   -0.4940 C.2     1  UNL1       -0.0440
      7  C         12.7130   -3.5690   -1.6370 C.2     1  UNL1        0.0080
      8  C         10.8880   -3.4070   -0.1060 C.2     1  UNL1        0.0540
      9  C         11.9980   -4.5240   -2.3380 C.2     1  UNL1        0.0510
     10  C         10.1690   -4.3730   -0.8170 C.2     1  UNL1        0.1660
     11  C         10.7290   -4.9350   -1.9420 C.2     1  UNL1        0.1650
     12  O          8.9250   -4.9400   -0.6380 O.2     1  UNL1       -0.4540
     13  O          9.8080   -5.8460   -2.4360 O.2     1  UNL1       -0.4540
     14  C          8.6880   -5.9470   -1.5880 C.3     1  UNL1        0.4680
@<TRIPOS>BOND
     1    13    11    1
     2    13    14    1
     3     9    11    2
     4     9     7    1
     5    11    10    1
     6     7     6    2
     7    14    12    1
     8    10    12    1
     9    10     8    2
    10     3     2    1
    11     6     8    1
    12     6     5    1
    13     5     1    1
    14     2     4    2
    15     2     1    1
