@<TRIPOS>MOLECULE
/home/cewinharhar/GITHUB/reincatalyze/data/processed/docking_pred/2023-May-31-1438_sub9_nm5_bs15_s42_ex16_mel10_mts1000_k50_ec05_g099_lra9e-4_lrc3e-3/98ce2146f260201d1ebb2f82702d5d512d51d1e1_ligand_9.pdbqt
 14 15 0 0 0
SMALL
GASTEIGER

@<TRIPOS>ATOM
      1  C         12.3220   -0.5740   -0.1780 C.3     1  UNL1        0.0800
      2  C         10.9010   -0.1280   -0.1430 C.2     1  UNL1        0.1300
      3  C          9.9600   -0.6010    0.9080 C.3     1  UNL1        0.0870
      4  O         10.4650    0.6430   -0.9820 O.2     1  UNL1       -0.3000
      5  C         12.4890   -1.9330    0.4740 C.3     1  UNL1        0.0430
      6  C         11.9350   -3.0120   -0.3630 C.2     1  UNL1       -0.0440
      7  C         12.6840   -3.6040   -1.3870 C.2     1  UNL1        0.0080
      8  C         10.6520   -3.4580   -0.1400 C.2     1  UNL1        0.0540
      9  C         12.1110   -4.6130   -2.1390 C.2     1  UNL1        0.0510
     10  C         10.0780   -4.4790   -0.9030 C.2     1  UNL1        0.1660
     11  C         10.8140   -5.0610   -1.9110 C.2     1  UNL1        0.1650
     12  O          8.8420   -5.0890   -0.8790 O.2     1  UNL1       -0.4540
     13  O         10.0060   -6.0270   -2.4900 O.2     1  UNL1       -0.4540
     14  C          8.7800   -6.1410   -1.8080 C.3     1  UNL1        0.4680
@<TRIPOS>BOND
     1    13    11    1
     2    13    14    1
     3     9    11    2
     4     9     7    1
     5    11    10    1
     6    14    12    1
     7     7     6    2
     8     4     2    2
     9    10    12    1
    10    10     8    2
    11     6     8    1
    12     6     5    1
    13     1     2    1
    14     1     5    1
    15     2     3    1
