@<TRIPOS>MOLECULE
/home/cewinharhar/GITHUB/reincatalyze/data/processed/docking_pred/2023-May-31-1438_sub9_nm5_bs15_s42_ex16_mel10_mts1000_k50_ec05_g099_lra9e-4_lrc3e-3/98ce2146f260201d1ebb2f82702d5d512d51d1e1_ligand_9.pdbqt
 14 15 0 0 0
SMALL
GASTEIGER

@<TRIPOS>ATOM
      1  C         12.2820   -3.7340   -1.7900 C.3     1  UNL1        0.0800
      2  C         11.0120   -4.0620   -2.4950 C.2     1  UNL1        0.1300
      3  C         10.3720   -5.3990   -2.3700 C.3     1  UNL1        0.0870
      4  O         10.4570   -3.2370   -3.2030 O.2     1  UNL1       -0.3000
      5  C         12.1300   -3.8750   -0.2880 C.3     1  UNL1        0.0430
      6  C         11.0990   -2.9660    0.2440 C.2     1  UNL1       -0.0440
      7  C         11.3350   -1.5950    0.3900 C.2     1  UNL1        0.0080
      8  C          9.8690   -3.4680    0.6080 C.2     1  UNL1        0.0540
      9  C         10.3290   -0.7900    0.8950 C.2     1  UNL1        0.0510
     10  C          8.8560   -2.6500    1.1170 C.2     1  UNL1        0.1660
     11  C          9.0880   -1.3010    1.2620 C.2     1  UNL1        0.1650
     12  O          7.5700   -2.9040    1.5440 O.2     1  UNL1       -0.4540
     13  O          7.9270   -0.7480    1.7790 O.2     1  UNL1       -0.4540
     14  C          6.9090   -1.7140    1.8890 C.3     1  UNL1        0.4680
@<TRIPOS>BOND
     1     4     2    2
     2     2     3    1
     3     2     1    1
     4     1     5    1
     5     5     6    1
     6     6     7    2
     7     6     8    1
     8     7     9    1
     9     8    10    2
    10     9    11    2
    11    10    11    1
    12    10    12    1
    13    11    13    1
    14    12    14    1
    15    13    14    1
