@<TRIPOS>MOLECULE
/home/cewinharhar/GITHUB/reincatalyze/data/processed/docking_pred/2023-May-31-1438_sub9_nm5_bs15_s42_ex16_mel10_mts1000_k50_ec05_g099_lra9e-4_lrc3e-3/9a7d3f5f853688f06c0e35b58fb12e655ab1ce10_ligand_9.pdbqt
 14 15 0 0 0
SMALL
GASTEIGER

@<TRIPOS>ATOM
      1  C          5.5660    0.0010    1.9150 C.3     1  UNL1        0.0800
      2  C          4.6770    1.1620    1.6310 C.2     1  UNL1        0.1300
      3  C          4.9560    2.1040    0.5140 C.3     1  UNL1        0.0870
      4  O          3.6880    1.3760    2.3130 O.2     1  UNL1       -0.3000
      5  C          6.9810    0.2610    1.4380 C.3     1  UNL1        0.0430
      6  C          7.3960   -0.7060    0.4070 C.2     1  UNL1       -0.0440
      7  C          7.3180   -0.4030   -0.9570 C.2     1  UNL1        0.0080
      8  C          7.8770   -1.9400    0.7830 C.2     1  UNL1        0.0540
      9  C          7.7230   -1.3500   -1.8800 C.2     1  UNL1        0.0510
     10  C          8.2850   -2.8940   -0.1540 C.2     1  UNL1        0.1660
     11  C          8.2080   -2.5970   -1.4960 C.2     1  UNL1        0.1650
     12  O          8.7900   -4.1720   -0.0350 O.2     1  UNL1       -0.4540
     13  O          8.6720   -3.7090   -2.1810 O.2     1  UNL1       -0.4540
     14  C          9.1360   -4.6960   -1.2920 C.3     1  UNL1        0.4680
@<TRIPOS>BOND
     1    13    11    1
     2    13    14    1
     3     9    11    2
     4     9     7    1
     5    11    10    1
     6    14    12    1
     7     7     6    2
     8    10    12    1
     9    10     8    2
    10     6     8    1
    11     6     5    1
    12     3     2    1
    13     5     1    1
    14     2     1    1
    15     2     4    2
