@<TRIPOS>MOLECULE
/home/cewinharhar/GITHUB/reincatalyze/data/processed/docking_pred/2023-May-31-1438_sub9_nm5_bs15_s42_ex16_mel10_mts1000_k50_ec05_g099_lra9e-4_lrc3e-3/9c92d7019ca479aa147a964f0da84773825070a7_ligand_9.pdbqt
 14 15 0 0 0
SMALL
GASTEIGER

@<TRIPOS>ATOM
      1  C         12.2880   -3.7550   -1.7890 C.3     1  UNL1        0.0800
      2  C         11.0240   -4.0660   -2.5130 C.2     1  UNL1        0.1300
      3  C         10.3640   -5.3940   -2.3970 C.3     1  UNL1        0.0870
      4  O         10.4910   -3.2330   -3.2290 O.2     1  UNL1       -0.3000
      5  C         12.1180   -3.9160   -0.2910 C.3     1  UNL1        0.0430
      6  C         11.0970   -2.9980    0.2450 C.2     1  UNL1       -0.0440
      7  C         11.3470   -1.6290    0.3930 C.2     1  UNL1        0.0080
      8  C          9.8630   -3.4880    0.6090 C.2     1  UNL1        0.0540
      9  C         10.3490   -0.8160    0.9010 C.2     1  UNL1        0.0510
     10  C          8.8580   -2.6620    1.1210 C.2     1  UNL1        0.1660
     11  C          9.1040   -1.3150    1.2680 C.2     1  UNL1        0.1650
     12  O          7.5700   -2.9040    1.5490 O.2     1  UNL1       -0.4540
     13  O          7.9490   -0.7520    1.7880 O.2     1  UNL1       -0.4540
     14  C          6.9210   -1.7080    1.8970 C.3     1  UNL1        0.4680
@<TRIPOS>BOND
     1     4     2    2
     2     2     3    1
     3     2     1    1
     4     1     5    1
     5     5     6    1
     6     6     7    2
     7     6     8    1
     8     7     9    1
     9     8    10    2
    10     9    11    2
    11    10    11    1
    12    10    12    1
    13    11    13    1
    14    12    14    1
    15    13    14    1
