MODEL 1
REMARK VINA RESULT:      -7.7      0.000      0.000
REMARK SMILES CC(=O)CCc1ccc2c(c1)OCO2
REMARK SMILES IDX 4 1 2 2 1 3 3 4 5 5 6 6 7 7 11 8 8 9 10 10 9 11 12 12 14 13
REMARK SMILES IDX 13 14
REMARK H PARENT
REMARK Flexibility Score: inf
ROOT
ATOM      1  C   UNL     1       5.509   1.926   1.249  1.00  0.00     0.080 C 
ENDROOT
BRANCH   1   2
ATOM      2  C   UNL     1       5.026   0.727   1.990  1.00  0.00     0.130 C 
ATOM      3  C   UNL     1       5.856  -0.500   2.116  1.00  0.00     0.087 C 
ATOM      4  O   UNL     1       3.925   0.718   2.518  1.00  0.00    -0.300 OA
ENDBRANCH   1   2
BRANCH   1   5
ATOM      5  C   UNL     1       5.390   1.731  -0.249  1.00  0.00     0.043 C 
BRANCH   5   6
ATOM      6  C   UNL     1       6.562   1.030  -0.804  1.00  0.00    -0.044 A 
ATOM      7  C   UNL     1       7.867   1.460  -0.540  1.00  0.00     0.008 A 
ATOM      8  C   UNL     1       6.379  -0.078  -1.600  1.00  0.00     0.054 A 
ATOM      9  C   UNL     1       8.928   0.762  -1.087  1.00  0.00     0.051 A 
ATOM     10  C   UNL     1       7.455  -0.781  -2.151  1.00  0.00     0.166 A 
ATOM     11  C   UNL     1       8.740  -0.358  -1.893  1.00  0.00     0.165 A 
ATOM     12  O   UNL     1       7.534  -1.894  -2.962  1.00  0.00    -0.454 OA
ATOM     13  O   UNL     1       9.590  -1.229  -2.556  1.00  0.00    -0.454 OA
ATOM     14  C   UNL     1       8.871  -2.271  -3.171  1.00  0.00     0.468 C 
ENDBRANCH   5   6
ENDBRANCH   1   5
TORSDOF 3
ENDMDL
MODEL 2
REMARK VINA RESULT:      -7.5      1.938      2.394
REMARK SMILES CC(=O)CCc1ccc2c(c1)OCO2
REMARK SMILES IDX 4 1 2 2 1 3 3 4 5 5 6 6 7 7 11 8 8 9 10 10 9 11 12 12 14 13
REMARK SMILES IDX 13 14
REMARK H PARENT
REMARK Flexibility Score: inf
ROOT
ATOM      1  C   UNL     1       5.718   1.246  -0.311  1.00  0.00     0.080 C 
ENDROOT
BRANCH   1   2
ATOM      2  C   UNL     1       5.144   1.235   1.063  1.00  0.00     0.130 C 
ATOM      3  C   UNL     1       5.404   0.117   2.009  1.00  0.00     0.087 C 
ATOM      4  O   UNL     1       4.438   2.150   1.455  1.00  0.00    -0.300 OA
ENDBRANCH   1   2
BRANCH   1   5
ATOM      5  C   UNL     1       7.223   1.066  -0.281  1.00  0.00     0.043 C 
BRANCH   5   6
ATOM      6  C   UNL     1       7.632  -0.216  -0.881  1.00  0.00    -0.044 A 
ATOM      7  C   UNL     1       7.774  -0.366  -2.265  1.00  0.00     0.008 A 
ATOM      8  C   UNL     1       7.886  -1.299  -0.069  1.00  0.00     0.054 A 
ATOM      9  C   UNL     1       8.162  -1.593  -2.771  1.00  0.00     0.051 A 
ATOM     10  C   UNL     1       8.278  -2.537  -0.585  1.00  0.00     0.166 A 
ATOM     11  C   UNL     1       8.417  -2.686  -1.947  1.00  0.00     0.165 A 
ATOM     12  O   UNL     1       8.583  -3.746   0.003  1.00  0.00    -0.454 OA
ATOM     13  O   UNL     1       8.810  -3.996  -2.170  1.00  0.00    -0.454 OA
ATOM     14  C   UNL     1       9.015  -4.678  -0.955  1.00  0.00     0.468 C 
ENDBRANCH   5   6
ENDBRANCH   1   5
TORSDOF 3
ENDMDL
MODEL 3
REMARK VINA RESULT:      -7.2      2.072      2.634
REMARK SMILES CC(=O)CCc1ccc2c(c1)OCO2
REMARK SMILES IDX 4 1 2 2 1 3 3 4 5 5 6 6 7 7 11 8 8 9 10 10 9 11 12 12 14 13
REMARK SMILES IDX 13 14
REMARK H PARENT
REMARK Flexibility Score: inf
ROOT
ATOM      1  C   UNL     1       5.427  -0.053   2.010  1.00  0.00     0.080 C 
ENDROOT
BRANCH   1   2
ATOM      2  C   UNL     1       4.577   1.146   1.765  1.00  0.00     0.130 C 
ATOM      3  C   UNL     1       4.909   2.136   0.705  1.00  0.00     0.087 C 
ATOM      4  O   UNL     1       3.577   1.352   2.433  1.00  0.00    -0.300 OA
ENDBRANCH   1   2
BRANCH   1   5
ATOM      5  C   UNL     1       6.862   0.195   1.590  1.00  0.00     0.043 C 
BRANCH   5   6
ATOM      6  C   UNL     1       7.290  -0.736   0.531  1.00  0.00    -0.044 A 
ATOM      7  C   UNL     1       7.169  -0.410  -0.825  1.00  0.00     0.008 A 
ATOM      8  C   UNL     1       7.825  -1.957   0.871  1.00  0.00     0.054 A 
ATOM      9  C   UNL     1       7.588  -1.323  -1.775  1.00  0.00     0.051 A 
ATOM     10  C   UNL     1       8.248  -2.877  -0.093  1.00  0.00     0.166 A 
ATOM     11  C   UNL     1       8.128  -2.557  -1.427  1.00  0.00     0.165 A 
ATOM     12  O   UNL     1       8.804  -4.136  -0.011  1.00  0.00    -0.454 OA
ATOM     13  O   UNL     1       8.619  -3.638  -2.144  1.00  0.00    -0.454 OA
ATOM     14  C   UNL     1       9.141  -4.623  -1.284  1.00  0.00     0.468 C 
ENDBRANCH   5   6
ENDBRANCH   1   5
TORSDOF 3
ENDMDL
MODEL 4
REMARK VINA RESULT:      -7.1      1.262      1.476
REMARK SMILES CC(=O)CCc1ccc2c(c1)OCO2
REMARK SMILES IDX 4 1 2 2 1 3 3 4 5 5 6 6 7 7 11 8 8 9 10 10 9 11 12 12 14 13
REMARK SMILES IDX 13 14
REMARK H PARENT
REMARK Flexibility Score: inf
ROOT
ATOM      1  C   UNL     1       6.377   1.191   0.932  1.00  0.00     0.080 C 
ENDROOT
BRANCH   1   2
ATOM      2  C   UNL     1       5.658   0.370   1.946  1.00  0.00     0.130 C 
ATOM      3  C   UNL     1       6.262  -0.858   2.527  1.00  0.00     0.087 C 
ATOM      4  O   UNL     1       4.543   0.685   2.330  1.00  0.00    -0.300 OA
ENDBRANCH   1   2
BRANCH   1   5
ATOM      5  C   UNL     1       5.864   0.913  -0.467  1.00  0.00     0.043 C 
BRANCH   5   6
ATOM      6  C   UNL     1       6.812   0.096  -1.244  1.00  0.00    -0.044 A 
ATOM      7  C   UNL     1       7.491   0.616  -2.352  1.00  0.00     0.008 A 
ATOM      8  C   UNL     1       7.046  -1.211  -0.880  1.00  0.00     0.054 A 
ATOM      9  C   UNL     1       8.370  -0.198  -3.043  1.00  0.00     0.051 A 
ATOM     10  C   UNL     1       7.936  -2.029  -1.582  1.00  0.00     0.166 A 
ATOM     11  C   UNL     1       8.603  -1.518  -2.673  1.00  0.00     0.165 A 
ATOM     12  O   UNL     1       8.333  -3.340  -1.421  1.00  0.00    -0.454 OA
ATOM     13  O   UNL     1       9.406  -2.536  -3.164  1.00  0.00    -0.454 OA
ATOM     14  C   UNL     1       9.334  -3.680  -2.347  1.00  0.00     0.468 C 
ENDBRANCH   5   6
ENDBRANCH   1   5
TORSDOF 3
ENDMDL
MODEL 5
REMARK VINA RESULT:      -7.1      1.990      2.551
REMARK SMILES CC(=O)CCc1ccc2c(c1)OCO2
REMARK SMILES IDX 4 1 2 2 1 3 3 4 5 5 6 6 7 7 11 8 8 9 10 10 9 11 12 12 14 13
REMARK SMILES IDX 13 14
REMARK H PARENT
REMARK Flexibility Score: inf
ROOT
ATOM      1  C   UNL     1       6.781   0.744   1.375  1.00  0.00     0.080 C 
ENDROOT
BRANCH   1   2
ATOM      2  C   UNL     1       5.347   1.131   1.481  1.00  0.00     0.130 C 
ATOM      3  C   UNL     1       4.738   2.129   0.560  1.00  0.00     0.087 C 
ATOM      4  O   UNL     1       4.625   0.638   2.332  1.00  0.00    -0.300 OA
ENDBRANCH   1   2
BRANCH   1   5
ATOM      5  C   UNL     1       7.310   0.965  -0.028  1.00  0.00     0.043 C 
BRANCH   5   6
ATOM      6  C   UNL     1       7.633  -0.308  -0.697  1.00  0.00    -0.044 A 
ATOM      7  C   UNL     1       7.599  -0.433  -2.091  1.00  0.00     0.008 A 
ATOM      8  C   UNL     1       7.982  -1.405   0.057  1.00  0.00     0.054 A 
ATOM      9  C   UNL     1       7.914  -1.652  -2.663  1.00  0.00     0.051 A 
ATOM     10  C   UNL     1       8.300  -2.636  -0.526  1.00  0.00     0.166 A 
ATOM     11  C   UNL     1       8.265  -2.760  -1.897  1.00  0.00     0.165 A 
ATOM     12  O   UNL     1       8.670  -3.856  -0.003  1.00  0.00    -0.454 OA
ATOM     13  O   UNL     1       8.619  -4.068  -2.190  1.00  0.00    -0.454 OA
ATOM     14  C   UNL     1       8.973  -4.772  -1.024  1.00  0.00     0.468 C 
ENDBRANCH   5   6
ENDBRANCH   1   5
TORSDOF 3
ENDMDL
