@<TRIPOS>MOLECULE
/home/cewinharhar/GITHUB/reincatalyze/data/processed/docking_pred/2023-May-31-1438_sub9_nm5_bs15_s42_ex16_mel10_mts1000_k50_ec05_g099_lra9e-4_lrc3e-3/a1c3c4a97d6bd518e48ffa0772dda1f342f6565e_ligand_9.pdbqt
 14 15 0 0 0
SMALL
GASTEIGER

@<TRIPOS>ATOM
      1  C          5.4020   -0.0760    2.0260 C.3     1  UNL1        0.0800
      2  C          4.5500    1.1200    1.7750 C.2     1  UNL1        0.1300
      3  C          4.8960    2.1200    0.7290 C.3     1  UNL1        0.0870
      4  O          3.5360    1.3150    2.4250 O.2     1  UNL1       -0.3000
      5  C          6.8390    0.1770    1.6160 C.3     1  UNL1        0.0430
      6  C          7.2710   -0.7380    0.5440 C.2     1  UNL1       -0.0440
      7  C          7.1460   -0.3950   -0.8070 C.2     1  UNL1        0.0080
      8  C          7.8120   -1.9610    0.8680 C.2     1  UNL1        0.0540
      9  C          7.5690   -1.2940   -1.7690 C.2     1  UNL1        0.0510
     10  C          8.2390   -2.8660   -0.1080 C.2     1  UNL1        0.1660
     11  C          8.1160   -2.5300   -1.4380 C.2     1  UNL1        0.1650
     12  O          8.8010   -4.1240   -0.0430 O.2     1  UNL1       -0.4540
     13  O          8.6110   -3.5980   -2.1690 O.2     1  UNL1       -0.4540
     14  C          9.1390   -4.5920   -1.3230 C.3     1  UNL1        0.4680
@<TRIPOS>BOND
     1    13    11    1
     2    13    14    1
     3     9    11    2
     4     9     7    1
     5    11    10    1
     6    14    12    1
     7     7     6    2
     8    10    12    1
     9    10     8    2
    10     6     8    1
    11     6     5    1
    12     3     2    1
    13     5     1    1
    14     2     1    1
    15     2     4    2
