@<TRIPOS>MOLECULE
/home/cewinharhar/GITHUB/reincatalyze/data/processed/docking_pred/2023-May-31-1438_sub9_nm5_bs15_s42_ex16_mel10_mts1000_k50_ec05_g099_lra9e-4_lrc3e-3/a1c3c4a97d6bd518e48ffa0772dda1f342f6565e_ligand_9.pdbqt
 14 15 0 0 0
SMALL
GASTEIGER

@<TRIPOS>ATOM
      1  C          5.5410    1.8900    1.3060 C.3     1  UNL1        0.0800
      2  C          5.0470    0.6740    2.0090 C.2     1  UNL1        0.1300
      3  C          5.8810   -0.5520    2.1290 C.3     1  UNL1        0.0870
      4  O          3.9340    0.6490    2.5110 O.2     1  UNL1       -0.3000
      5  C          5.4210    1.7440   -0.1980 C.3     1  UNL1        0.0430
      6  C          6.5820    1.0420   -0.7730 C.2     1  UNL1       -0.0440
      7  C          7.8920    1.4710   -0.5310 C.2     1  UNL1        0.0080
      8  C          6.3850   -0.0660   -1.5670 C.2     1  UNL1        0.0540
      9  C          8.9430    0.7720   -1.0970 C.2     1  UNL1        0.0510
     10  C          7.4510   -0.7690   -2.1360 C.2     1  UNL1        0.1660
     11  C          8.7400   -0.3470   -1.8990 C.2     1  UNL1        0.1650
     12  O          7.5160   -1.8810   -2.9480 O.2     1  UNL1       -0.4540
     13  O          9.5790   -1.2180   -2.5770 O.2     1  UNL1       -0.4540
     14  C          8.8490   -2.2590   -3.1810 C.3     1  UNL1        0.4680
@<TRIPOS>BOND
     1    14    12    1
     2    14    13    1
     3    12    10    1
     4    13    11    1
     5    10    11    2
     6    10     8    1
     7    11     9    1
     8     8     6    2
     9     9     7    2
    10     6     7    1
    11     6     5    1
    12     5     1    1
    13     1     2    1
    14     2     3    1
    15     2     4    2
