@<TRIPOS>MOLECULE
/home/cewinharhar/GITHUB/reincatalyze/data/processed/docking_pred/2023-May-31-1438_sub9_nm5_bs15_s42_ex16_mel10_mts1000_k50_ec05_g099_lra9e-4_lrc3e-3/a1c3c4a97d6bd518e48ffa0772dda1f342f6565e_ligand_9.pdbqt
 14 15 0 0 0
SMALL
GASTEIGER

@<TRIPOS>ATOM
      1  C          6.3940    1.2060    0.8760 C.3     1  UNL1        0.0800
      2  C          5.6930    0.4050    1.9180 C.2     1  UNL1        0.1300
      3  C          6.3000   -0.8220    2.5000 C.3     1  UNL1        0.0870
      4  O          4.5920    0.7350    2.3270 O.2     1  UNL1       -0.3000
      5  C          5.8720    0.8840   -0.5100 C.3     1  UNL1        0.0430
      6  C          6.8260    0.0630   -1.2760 C.2     1  UNL1       -0.0440
      7  C          7.5230    0.5810   -2.3740 C.2     1  UNL1        0.0080
      8  C          7.0470   -1.2460   -0.9110 C.2     1  UNL1        0.0540
      9  C          8.4070   -0.2360   -3.0550 C.2     1  UNL1        0.0510
     10  C          7.9420   -2.0680   -1.6020 C.2     1  UNL1        0.1660
     11  C          8.6270   -1.5590   -2.6830 C.2     1  UNL1        0.1650
     12  O          8.3300   -3.3810   -1.4390 O.2     1  UNL1       -0.4540
     13  O          9.4300   -2.5800   -3.1660 O.2     1  UNL1       -0.4540
     14  C          9.3410   -3.7250   -2.3520 C.3     1  UNL1        0.4680
@<TRIPOS>BOND
     1    13    11    1
     2    13    14    1
     3     9    11    2
     4     9     7    1
     5    11    10    1
     6     7     6    2
     7    14    12    1
     8    10    12    1
     9    10     8    2
    10     6     8    1
    11     6     5    1
    12     5     1    1
    13     1     2    1
    14     2     4    2
    15     2     3    1
