@<TRIPOS>MOLECULE
/home/cewinharhar/GITHUB/reincatalyze/data/processed/docking_pred/2023-May-31-1438_sub9_nm5_bs15_s42_ex16_mel10_mts1000_k50_ec05_g099_lra9e-4_lrc3e-3/a1c3c4a97d6bd518e48ffa0772dda1f342f6565e_ligand_9.pdbqt
 14 15 0 0 0
SMALL
GASTEIGER

@<TRIPOS>ATOM
      1  C          6.7630    0.7120    1.4650 C.3     1  UNL1        0.0800
      2  C          5.3460    1.1690    1.4940 C.2     1  UNL1        0.1300
      3  C          4.8220    2.1490    0.5060 C.3     1  UNL1        0.0870
      4  O          4.5690    0.7490    2.3360 O.2     1  UNL1       -0.3000
      5  C          7.3960    0.9650    0.1110 C.3     1  UNL1        0.0430
      6  C          7.7010   -0.2930   -0.5930 C.2     1  UNL1       -0.0440
      7  C          7.6770   -0.3750   -1.9900 C.2     1  UNL1        0.0080
      8  C          8.0190   -1.4200    0.1300 C.2     1  UNL1        0.0540
      9  C          7.9720   -1.5820   -2.5970 C.2     1  UNL1        0.0510
     10  C          8.3180   -2.6380   -0.4880 C.2     1  UNL1        0.1660
     11  C          8.2930   -2.7200   -1.8630 C.2     1  UNL1        0.1650
     12  O          8.6580   -3.8820    0.0010 O.2     1  UNL1       -0.4540
     13  O          8.6240   -4.0250   -2.1930 O.2     1  UNL1       -0.4540
     14  C          8.9520   -4.7720   -1.0450 C.3     1  UNL1        0.4680
@<TRIPOS>BOND
     1     9     7    1
     2     9    11    2
     3    13    11    1
     4    13    14    1
     5     7     6    2
     6    11    10    1
     7    14    12    1
     8     6     5    1
     9     6     8    1
    10    10    12    1
    11    10     8    2
    12     5     1    1
    13     3     2    1
    14     1     2    1
    15     2     4    2
