MODEL 1
REMARK VINA RESULT:      -7.6      0.000      0.000
REMARK SMILES CC(=O)CCc1ccc2c(c1)OCO2
REMARK SMILES IDX 4 1 2 2 1 3 3 4 5 5 6 6 7 7 11 8 8 9 10 10 9 11 12 12 14 13
REMARK SMILES IDX 13 14
REMARK H PARENT
REMARK Flexibility Score: inf
ROOT
ATOM      1  C   UNL     1       5.541   1.890   1.306  1.00  0.00     0.080 C 
ENDROOT
BRANCH   1   2
ATOM      2  C   UNL     1       5.047   0.674   2.009  1.00  0.00     0.130 C 
ATOM      3  C   UNL     1       5.881  -0.552   2.129  1.00  0.00     0.087 C 
ATOM      4  O   UNL     1       3.934   0.649   2.511  1.00  0.00    -0.300 OA
ENDBRANCH   1   2
BRANCH   1   5
ATOM      5  C   UNL     1       5.421   1.744  -0.198  1.00  0.00     0.043 C 
BRANCH   5   6
ATOM      6  C   UNL     1       6.582   1.042  -0.773  1.00  0.00    -0.044 A 
ATOM      7  C   UNL     1       7.892   1.471  -0.531  1.00  0.00     0.008 A 
ATOM      8  C   UNL     1       6.385  -0.066  -1.567  1.00  0.00     0.054 A 
ATOM      9  C   UNL     1       8.943   0.772  -1.097  1.00  0.00     0.051 A 
ATOM     10  C   UNL     1       7.451  -0.769  -2.136  1.00  0.00     0.166 A 
ATOM     11  C   UNL     1       8.740  -0.347  -1.899  1.00  0.00     0.165 A 
ATOM     12  O   UNL     1       7.516  -1.881  -2.948  1.00  0.00    -0.454 OA
ATOM     13  O   UNL     1       9.579  -1.218  -2.577  1.00  0.00    -0.454 OA
ATOM     14  C   UNL     1       8.849  -2.259  -3.181  1.00  0.00     0.468 C 
ENDBRANCH   5   6
ENDBRANCH   1   5
TORSDOF 3
ENDMDL
MODEL 2
REMARK VINA RESULT:      -7.4      1.933      2.382
REMARK SMILES CC(=O)CCc1ccc2c(c1)OCO2
REMARK SMILES IDX 4 1 2 2 1 3 3 4 5 5 6 6 7 7 11 8 8 9 10 10 9 11 12 12 14 13
REMARK SMILES IDX 13 14
REMARK H PARENT
REMARK Flexibility Score: inf
ROOT
ATOM      1  C   UNL     1       5.783   1.409  -0.281  1.00  0.00     0.080 C 
ENDROOT
BRANCH   1   2
ATOM      2  C   UNL     1       5.117   1.290   1.046  1.00  0.00     0.130 C 
ATOM      3  C   UNL     1       5.363   0.128   1.942  1.00  0.00     0.087 C 
ATOM      4  O   UNL     1       4.345   2.150   1.439  1.00  0.00    -0.300 OA
ENDBRANCH   1   2
BRANCH   1   5
ATOM      5  C   UNL     1       7.269   1.131  -0.179  1.00  0.00     0.043 C 
BRANCH   5   6
ATOM      6  C   UNL     1       7.628  -0.155  -0.803  1.00  0.00    -0.044 A 
ATOM      7  C   UNL     1       7.688  -0.304  -2.193  1.00  0.00     0.008 A 
ATOM      8  C   UNL     1       7.916  -1.242  -0.009  1.00  0.00     0.054 A 
ATOM      9  C   UNL     1       8.032  -1.535  -2.722  1.00  0.00     0.051 A 
ATOM     10  C   UNL     1       8.263  -2.484  -0.548  1.00  0.00     0.166 A 
ATOM     11  C   UNL     1       8.321  -2.632  -1.916  1.00  0.00     0.165 A 
ATOM     12  O   UNL     1       8.588  -3.698   0.019  1.00  0.00    -0.454 OA
ATOM     13  O   UNL     1       8.685  -3.946  -2.163  1.00  0.00    -0.454 OA
ATOM     14  C   UNL     1       8.953  -4.633  -0.963  1.00  0.00     0.468 C 
ENDBRANCH   5   6
ENDBRANCH   1   5
TORSDOF 3
ENDMDL
MODEL 3
REMARK VINA RESULT:      -7.2      2.056      2.624
REMARK SMILES CC(=O)CCc1ccc2c(c1)OCO2
REMARK SMILES IDX 4 1 2 2 1 3 3 4 5 5 6 6 7 7 11 8 8 9 10 10 9 11 12 12 14 13
REMARK SMILES IDX 13 14
REMARK H PARENT
REMARK Flexibility Score: inf
ROOT
ATOM      1  C   UNL     1       5.402  -0.076   2.026  1.00  0.00     0.080 C 
ENDROOT
BRANCH   1   2
ATOM      2  C   UNL     1       4.550   1.120   1.775  1.00  0.00     0.130 C 
ATOM      3  C   UNL     1       4.896   2.120   0.729  1.00  0.00     0.087 C 
ATOM      4  O   UNL     1       3.536   1.315   2.425  1.00  0.00    -0.300 OA
ENDBRANCH   1   2
BRANCH   1   5
ATOM      5  C   UNL     1       6.839   0.177   1.616  1.00  0.00     0.043 C 
BRANCH   5   6
ATOM      6  C   UNL     1       7.271  -0.738   0.544  1.00  0.00    -0.044 A 
ATOM      7  C   UNL     1       7.146  -0.395  -0.807  1.00  0.00     0.008 A 
ATOM      8  C   UNL     1       7.812  -1.961   0.868  1.00  0.00     0.054 A 
ATOM      9  C   UNL     1       7.569  -1.294  -1.769  1.00  0.00     0.051 A 
ATOM     10  C   UNL     1       8.239  -2.866  -0.108  1.00  0.00     0.166 A 
ATOM     11  C   UNL     1       8.116  -2.530  -1.438  1.00  0.00     0.165 A 
ATOM     12  O   UNL     1       8.801  -4.124  -0.043  1.00  0.00    -0.454 OA
ATOM     13  O   UNL     1       8.611  -3.598  -2.169  1.00  0.00    -0.454 OA
ATOM     14  C   UNL     1       9.139  -4.592  -1.323  1.00  0.00     0.468 C 
ENDBRANCH   5   6
ENDBRANCH   1   5
TORSDOF 3
ENDMDL
MODEL 4
REMARK VINA RESULT:      -7.1      1.268      1.502
REMARK SMILES CC(=O)CCc1ccc2c(c1)OCO2
REMARK SMILES IDX 4 1 2 2 1 3 3 4 5 5 6 6 7 7 11 8 8 9 10 10 9 11 12 12 14 13
REMARK SMILES IDX 13 14
REMARK H PARENT
REMARK Flexibility Score: inf
ROOT
ATOM      1  C   UNL     1       6.394   1.206   0.876  1.00  0.00     0.080 C 
ENDROOT
BRANCH   1   2
ATOM      2  C   UNL     1       5.693   0.405   1.918  1.00  0.00     0.130 C 
ATOM      3  C   UNL     1       6.300  -0.822   2.500  1.00  0.00     0.087 C 
ATOM      4  O   UNL     1       4.592   0.735   2.327  1.00  0.00    -0.300 OA
ENDBRANCH   1   2
BRANCH   1   5
ATOM      5  C   UNL     1       5.872   0.884  -0.510  1.00  0.00     0.043 C 
BRANCH   5   6
ATOM      6  C   UNL     1       6.826   0.063  -1.276  1.00  0.00    -0.044 A 
ATOM      7  C   UNL     1       7.523   0.581  -2.374  1.00  0.00     0.008 A 
ATOM      8  C   UNL     1       7.047  -1.246  -0.911  1.00  0.00     0.054 A 
ATOM      9  C   UNL     1       8.407  -0.236  -3.055  1.00  0.00     0.051 A 
ATOM     10  C   UNL     1       7.942  -2.068  -1.602  1.00  0.00     0.166 A 
ATOM     11  C   UNL     1       8.627  -1.559  -2.683  1.00  0.00     0.165 A 
ATOM     12  O   UNL     1       8.330  -3.381  -1.439  1.00  0.00    -0.454 OA
ATOM     13  O   UNL     1       9.430  -2.580  -3.166  1.00  0.00    -0.454 OA
ATOM     14  C   UNL     1       9.341  -3.725  -2.352  1.00  0.00     0.468 C 
ENDBRANCH   5   6
ENDBRANCH   1   5
TORSDOF 3
ENDMDL
MODEL 5
REMARK VINA RESULT:      -7.0      2.002      2.550
REMARK SMILES CC(=O)CCc1ccc2c(c1)OCO2
REMARK SMILES IDX 4 1 2 2 1 3 3 4 5 5 6 6 7 7 11 8 8 9 10 10 9 11 12 12 14 13
REMARK SMILES IDX 13 14
REMARK H PARENT
REMARK Flexibility Score: inf
ROOT
ATOM      1  C   UNL     1       6.763   0.712   1.465  1.00  0.00     0.080 C 
ENDROOT
BRANCH   1   2
ATOM      2  C   UNL     1       5.346   1.169   1.494  1.00  0.00     0.130 C 
ATOM      3  C   UNL     1       4.822   2.149   0.506  1.00  0.00     0.087 C 
ATOM      4  O   UNL     1       4.569   0.749   2.336  1.00  0.00    -0.300 OA
ENDBRANCH   1   2
BRANCH   1   5
ATOM      5  C   UNL     1       7.396   0.965   0.111  1.00  0.00     0.043 C 
BRANCH   5   6
ATOM      6  C   UNL     1       7.701  -0.293  -0.593  1.00  0.00    -0.044 A 
ATOM      7  C   UNL     1       7.677  -0.375  -1.990  1.00  0.00     0.008 A 
ATOM      8  C   UNL     1       8.019  -1.420   0.130  1.00  0.00     0.054 A 
ATOM      9  C   UNL     1       7.972  -1.582  -2.597  1.00  0.00     0.051 A 
ATOM     10  C   UNL     1       8.318  -2.638  -0.488  1.00  0.00     0.166 A 
ATOM     11  C   UNL     1       8.293  -2.720  -1.863  1.00  0.00     0.165 A 
ATOM     12  O   UNL     1       8.658  -3.882   0.001  1.00  0.00    -0.454 OA
ATOM     13  O   UNL     1       8.624  -4.025  -2.193  1.00  0.00    -0.454 OA
ATOM     14  C   UNL     1       8.952  -4.772  -1.045  1.00  0.00     0.468 C 
ENDBRANCH   5   6
ENDBRANCH   1   5
TORSDOF 3
ENDMDL
