MODEL 1
REMARK VINA RESULT:      -7.6      0.000      0.000
REMARK SMILES CC(=O)CCc1ccc2c(c1)OCO2
REMARK SMILES IDX 4 1 2 2 1 3 3 4 5 5 6 6 7 7 11 8 8 9 10 10 9 11 12 12 14 13
REMARK SMILES IDX 13 14
REMARK H PARENT
REMARK Flexibility Score: inf
ROOT
ATOM      1  C   UNL     1       5.511   1.937   1.252  1.00  0.00     0.080 C 
ENDROOT
BRANCH   1   2
ATOM      2  C   UNL     1       5.087   0.717   1.996  1.00  0.00     0.130 C 
ATOM      3  C   UNL     1       6.000  -0.443   2.176  1.00  0.00     0.087 C 
ATOM      4  O   UNL     1       3.971   0.636   2.482  1.00  0.00    -0.300 OA
ENDBRANCH   1   2
BRANCH   1   5
ATOM      5  C   UNL     1       5.388   1.738  -0.245  1.00  0.00     0.043 C 
BRANCH   5   6
ATOM      6  C   UNL     1       6.558   1.033  -0.800  1.00  0.00    -0.044 A 
ATOM      7  C   UNL     1       7.864   1.460  -0.536  1.00  0.00     0.008 A 
ATOM      8  C   UNL     1       6.372  -0.074  -1.596  1.00  0.00     0.054 A 
ATOM      9  C   UNL     1       8.923   0.758  -1.084  1.00  0.00     0.051 A 
ATOM     10  C   UNL     1       7.446  -0.781  -2.147  1.00  0.00     0.166 A 
ATOM     11  C   UNL     1       8.732  -0.360  -1.889  1.00  0.00     0.165 A 
ATOM     12  O   UNL     1       7.522  -1.893  -2.958  1.00  0.00    -0.454 OA
ATOM     13  O   UNL     1       9.580  -1.233  -2.552  1.00  0.00    -0.454 OA
ATOM     14  C   UNL     1       8.858  -2.274  -3.168  1.00  0.00     0.468 C 
ENDBRANCH   5   6
ENDBRANCH   1   5
TORSDOF 3
ENDMDL
MODEL 2
REMARK VINA RESULT:      -7.2      2.087      2.631
REMARK SMILES CC(=O)CCc1ccc2c(c1)OCO2
REMARK SMILES IDX 4 1 2 2 1 3 3 4 5 5 6 6 7 7 11 8 8 9 10 10 9 11 12 12 14 13
REMARK SMILES IDX 13 14
REMARK H PARENT
REMARK Flexibility Score: inf
ROOT
ATOM      1  C   UNL     1       5.521  -0.010   1.944  1.00  0.00     0.080 C 
ENDROOT
BRANCH   1   2
ATOM      2  C   UNL     1       4.646   1.160   1.650  1.00  0.00     0.130 C 
ATOM      3  C   UNL     1       4.952   2.106   0.544  1.00  0.00     0.087 C 
ATOM      4  O   UNL     1       3.646   1.377   2.315  1.00  0.00    -0.300 OA
ENDBRANCH   1   2
BRANCH   1   5
ATOM      5  C   UNL     1       6.945   0.240   1.488  1.00  0.00     0.043 C 
BRANCH   5   6
ATOM      6  C   UNL     1       7.360  -0.716   0.446  1.00  0.00    -0.044 A 
ATOM      7  C   UNL     1       7.263  -0.405  -0.915  1.00  0.00     0.008 A 
ATOM      8  C   UNL     1       7.860  -1.946   0.809  1.00  0.00     0.054 A 
ATOM      9  C   UNL     1       7.669  -1.341  -1.849  1.00  0.00     0.051 A 
ATOM     10  C   UNL     1       8.270  -2.889  -0.139  1.00  0.00     0.166 A 
ATOM     11  C   UNL     1       8.173  -2.584  -1.478  1.00  0.00     0.165 A 
ATOM     12  O   UNL     1       8.791  -4.161  -0.034  1.00  0.00    -0.454 OA
ATOM     13  O   UNL     1       8.644  -3.686  -2.175  1.00  0.00    -0.454 OA
ATOM     14  C   UNL     1       9.130  -4.673  -1.297  1.00  0.00     0.468 C 
ENDBRANCH   5   6
ENDBRANCH   1   5
TORSDOF 3
ENDMDL
MODEL 3
REMARK VINA RESULT:      -7.1      1.784      2.252
REMARK SMILES CC(=O)CCc1ccc2c(c1)OCO2
REMARK SMILES IDX 4 1 2 2 1 3 3 4 5 5 6 6 7 7 11 8 8 9 10 10 9 11 12 12 14 13
REMARK SMILES IDX 13 14
REMARK H PARENT
REMARK Flexibility Score: inf
ROOT
ATOM      1  C   UNL     1       5.879   1.713  -0.076  1.00  0.00     0.080 C 
ENDROOT
BRANCH   1   2
ATOM      2  C   UNL     1       5.100   1.355   1.142  1.00  0.00     0.130 C 
ATOM      3  C   UNL     1       5.461   0.183   1.983  1.00  0.00     0.087 C 
ATOM      4  O   UNL     1       4.136   2.019   1.486  1.00  0.00    -0.300 OA
ENDBRANCH   1   2
BRANCH   1   5
ATOM      5  C   UNL     1       7.324   1.269   0.044  1.00  0.00     0.043 C 
BRANCH   5   6
ATOM      6  C   UNL     1       7.569   0.007  -0.677  1.00  0.00    -0.044 A 
ATOM      7  C   UNL     1       7.343  -0.106  -2.054  1.00  0.00     0.008 A 
ATOM      8  C   UNL     1       8.033  -1.092   0.009  1.00  0.00     0.054 A 
ATOM      9  C   UNL     1       7.591  -1.316  -2.677  1.00  0.00     0.051 A 
ATOM     10  C   UNL     1       8.283  -2.312  -0.626  1.00  0.00     0.166 A 
ATOM     11  C   UNL     1       8.060  -2.425  -1.980  1.00  0.00     0.165 A 
ATOM     12  O   UNL     1       8.739  -3.532  -0.172  1.00  0.00    -0.454 OA
ATOM     13  O   UNL     1       8.388  -3.724  -2.334  1.00  0.00    -0.454 OA
ATOM     14  C   UNL     1       8.909  -4.434  -1.235  1.00  0.00     0.468 C 
ENDBRANCH   5   6
ENDBRANCH   1   5
TORSDOF 3
ENDMDL
MODEL 4
REMARK VINA RESULT:      -7.1      1.272      1.491
REMARK SMILES CC(=O)CCc1ccc2c(c1)OCO2
REMARK SMILES IDX 4 1 2 2 1 3 3 4 5 5 6 6 7 7 11 8 8 9 10 10 9 11 12 12 14 13
REMARK SMILES IDX 13 14
REMARK H PARENT
REMARK Flexibility Score: inf
ROOT
ATOM      1  C   UNL     1       6.392   1.169   0.963  1.00  0.00     0.080 C 
ENDROOT
BRANCH   1   2
ATOM      2  C   UNL     1       5.645   0.343   1.952  1.00  0.00     0.130 C 
ATOM      3  C   UNL     1       6.234  -0.886   2.547  1.00  0.00     0.087 C 
ATOM      4  O   UNL     1       4.518   0.654   2.304  1.00  0.00    -0.300 OA
ENDBRANCH   1   2
BRANCH   1   5
ATOM      5  C   UNL     1       5.893   0.926  -0.447  1.00  0.00     0.043 C 
BRANCH   5   6
ATOM      6  C   UNL     1       6.830   0.093  -1.223  1.00  0.00    -0.044 A 
ATOM      7  C   UNL     1       7.494   0.592  -2.349  1.00  0.00     0.008 A 
ATOM      8  C   UNL     1       7.066  -1.207  -0.838  1.00  0.00     0.054 A 
ATOM      9  C   UNL     1       8.363  -0.235  -3.037  1.00  0.00     0.051 A 
ATOM     10  C   UNL     1       7.946  -2.039  -1.536  1.00  0.00     0.166 A 
ATOM     11  C   UNL     1       8.599  -1.549  -2.645  1.00  0.00     0.165 A 
ATOM     12  O   UNL     1       8.344  -3.347  -1.358  1.00  0.00    -0.454 OA
ATOM     13  O   UNL     1       9.394  -2.577  -3.129  1.00  0.00    -0.454 OA
ATOM     14  C   UNL     1       9.331  -3.706  -2.290  1.00  0.00     0.468 C 
ENDBRANCH   5   6
ENDBRANCH   1   5
TORSDOF 3
ENDMDL
MODEL 5
REMARK VINA RESULT:      -6.8      1.265      1.762
REMARK SMILES CC(=O)CCc1ccc2c(c1)OCO2
REMARK SMILES IDX 4 1 2 2 1 3 3 4 5 5 6 6 7 7 11 8 8 9 10 10 9 11 12 12 14 13
REMARK SMILES IDX 13 14
REMARK H PARENT
REMARK Flexibility Score: inf
ROOT
ATOM      1  C   UNL     1       5.301  -0.083   1.945  1.00  0.00     0.080 C 
ENDROOT
BRANCH   1   2
ATOM      2  C   UNL     1       4.434   1.117   1.778  1.00  0.00     0.130 C 
ATOM      3  C   UNL     1       4.720   2.150   0.748  1.00  0.00     0.087 C 
ATOM      4  O   UNL     1       3.456   1.287   2.489  1.00  0.00    -0.300 OA
ENDBRANCH   1   2
BRANCH   1   5
ATOM      5  C   UNL     1       6.770   0.288   1.896  1.00  0.00     0.043 C 
BRANCH   5   6
ATOM      6  C   UNL     1       7.379  -0.064   0.601  1.00  0.00    -0.044 A 
ATOM      7  C   UNL     1       7.874   0.916  -0.267  1.00  0.00     0.008 A 
ATOM      8  C   UNL     1       7.472  -1.385   0.228  1.00  0.00     0.054 A 
ATOM      9  C   UNL     1       8.436   0.526  -1.469  1.00  0.00     0.051 A 
ATOM     10  C   UNL     1       8.042  -1.774  -0.988  1.00  0.00     0.166 A 
ATOM     11  C   UNL     1       8.528  -0.811  -1.843  1.00  0.00     0.165 A 
ATOM     12  O   UNL     1       8.247  -3.003  -1.579  1.00  0.00    -0.454 OA
ATOM     13  O   UNL     1       9.027  -1.474  -2.953  1.00  0.00    -0.454 OA
ATOM     14  C   UNL     1       8.951  -2.870  -2.787  1.00  0.00     0.468 C 
ENDBRANCH   5   6
ENDBRANCH   1   5
TORSDOF 3
ENDMDL
