@<TRIPOS>MOLECULE
/home/cewinharhar/GITHUB/reincatalyze/data/processed/docking_pred/2023-May-31-1438_sub9_nm5_bs15_s42_ex16_mel10_mts1000_k50_ec05_g099_lra9e-4_lrc3e-3/a450f47ca4f24610d4ad642e19216dd37a68a7e2_ligand_9.pdbqt
 14 15 0 0 0
SMALL
GASTEIGER

@<TRIPOS>ATOM
      1  C          5.5110    1.9370    1.2520 C.3     1  UNL1        0.0800
      2  C          5.0870    0.7170    1.9960 C.2     1  UNL1        0.1300
      3  C          6.0000   -0.4430    2.1760 C.3     1  UNL1        0.0870
      4  O          3.9710    0.6360    2.4820 O.2     1  UNL1       -0.3000
      5  C          5.3880    1.7380   -0.2450 C.3     1  UNL1        0.0430
      6  C          6.5580    1.0330   -0.8000 C.2     1  UNL1       -0.0440
      7  C          7.8640    1.4600   -0.5360 C.2     1  UNL1        0.0080
      8  C          6.3720   -0.0740   -1.5960 C.2     1  UNL1        0.0540
      9  C          8.9230    0.7580   -1.0840 C.2     1  UNL1        0.0510
     10  C          7.4460   -0.7810   -2.1470 C.2     1  UNL1        0.1660
     11  C          8.7320   -0.3600   -1.8890 C.2     1  UNL1        0.1650
     12  O          7.5220   -1.8930   -2.9580 O.2     1  UNL1       -0.4540
     13  O          9.5800   -1.2330   -2.5520 O.2     1  UNL1       -0.4540
     14  C          8.8580   -2.2740   -3.1680 C.3     1  UNL1        0.4680
@<TRIPOS>BOND
     1    14    12    1
     2    14    13    1
     3    12    10    1
     4    13    11    1
     5    10    11    2
     6    10     8    1
     7    11     9    1
     8     8     6    2
     9     9     7    2
    10     6     7    1
    11     6     5    1
    12     5     1    1
    13     1     2    1
    14     2     3    1
    15     2     4    2
