@<TRIPOS>MOLECULE
/home/cewinharhar/GITHUB/reincatalyze/data/processed/docking_pred/2023-May-31-1438_sub9_nm5_bs15_s42_ex16_mel10_mts1000_k50_ec05_g099_lra9e-4_lrc3e-3/a450f47ca4f24610d4ad642e19216dd37a68a7e2_ligand_9.pdbqt
 14 15 0 0 0
SMALL
GASTEIGER

@<TRIPOS>ATOM
      1  C          5.8790    1.7130   -0.0760 C.3     1  UNL1        0.0800
      2  C          5.1000    1.3550    1.1420 C.2     1  UNL1        0.1300
      3  C          5.4610    0.1830    1.9830 C.3     1  UNL1        0.0870
      4  O          4.1360    2.0190    1.4860 O.2     1  UNL1       -0.3000
      5  C          7.3240    1.2690    0.0440 C.3     1  UNL1        0.0430
      6  C          7.5690    0.0070   -0.6770 C.2     1  UNL1       -0.0440
      7  C          7.3430   -0.1060   -2.0540 C.2     1  UNL1        0.0080
      8  C          8.0330   -1.0920    0.0090 C.2     1  UNL1        0.0540
      9  C          7.5910   -1.3160   -2.6770 C.2     1  UNL1        0.0510
     10  C          8.2830   -2.3120   -0.6260 C.2     1  UNL1        0.1660
     11  C          8.0600   -2.4250   -1.9800 C.2     1  UNL1        0.1650
     12  O          8.7390   -3.5320   -0.1720 O.2     1  UNL1       -0.4540
     13  O          8.3880   -3.7240   -2.3340 O.2     1  UNL1       -0.4540
     14  C          8.9090   -4.4340   -1.2350 C.3     1  UNL1        0.4680
@<TRIPOS>BOND
     1     9     7    1
     2     9    11    2
     3    13    11    1
     4    13    14    1
     5     7     6    2
     6    11    10    1
     7    14    12    1
     8     6     8    1
     9     6     5    1
    10    10    12    1
    11    10     8    2
    12     1     5    1
    13     1     2    1
    14     2     4    2
    15     2     3    1
