@<TRIPOS>MOLECULE
/home/cewinharhar/GITHUB/reincatalyze/data/processed/docking_pred/2023-May-31-1438_sub9_nm5_bs15_s42_ex16_mel10_mts1000_k50_ec05_g099_lra9e-4_lrc3e-3/a450f47ca4f24610d4ad642e19216dd37a68a7e2_ligand_9.pdbqt
 14 15 0 0 0
SMALL
GASTEIGER

@<TRIPOS>ATOM
      1  C          5.3010   -0.0830    1.9450 C.3     1  UNL1        0.0800
      2  C          4.4340    1.1170    1.7780 C.2     1  UNL1        0.1300
      3  C          4.7200    2.1500    0.7480 C.3     1  UNL1        0.0870
      4  O          3.4560    1.2870    2.4890 O.2     1  UNL1       -0.3000
      5  C          6.7700    0.2880    1.8960 C.3     1  UNL1        0.0430
      6  C          7.3790   -0.0640    0.6010 C.2     1  UNL1       -0.0440
      7  C          7.8740    0.9160   -0.2670 C.2     1  UNL1        0.0080
      8  C          7.4720   -1.3850    0.2280 C.2     1  UNL1        0.0540
      9  C          8.4360    0.5260   -1.4690 C.2     1  UNL1        0.0510
     10  C          8.0420   -1.7740   -0.9880 C.2     1  UNL1        0.1660
     11  C          8.5280   -0.8110   -1.8430 C.2     1  UNL1        0.1650
     12  O          8.2470   -3.0030   -1.5790 O.2     1  UNL1       -0.4540
     13  O          9.0270   -1.4740   -2.9530 O.2     1  UNL1       -0.4540
     14  C          8.9510   -2.8700   -2.7870 C.3     1  UNL1        0.4680
@<TRIPOS>BOND
     1    13    14    1
     2    13    11    1
     3    14    12    1
     4    11     9    2
     5    11    10    1
     6    12    10    1
     7     9     7    1
     8    10     8    2
     9     7     6    2
    10     8     6    1
    11     6     5    1
    12     3     2    1
    13     2     1    1
    14     2     4    2
    15     5     1    1
