@<TRIPOS>MOLECULE
/home/cewinharhar/GITHUB/reincatalyze/data/processed/docking_pred/2023-May-31-1438_sub9_nm5_bs15_s42_ex16_mel10_mts1000_k50_ec05_g099_lra9e-4_lrc3e-3/a450f47ca4f24610d4ad642e19216dd37a68a7e2_ligand_9.pdbqt
 14 15 0 0 0
SMALL
GASTEIGER

@<TRIPOS>ATOM
      1  C          5.5210   -0.0100    1.9440 C.3     1  UNL1        0.0800
      2  C          4.6460    1.1600    1.6500 C.2     1  UNL1        0.1300
      3  C          4.9520    2.1060    0.5440 C.3     1  UNL1        0.0870
      4  O          3.6460    1.3770    2.3150 O.2     1  UNL1       -0.3000
      5  C          6.9450    0.2400    1.4880 C.3     1  UNL1        0.0430
      6  C          7.3600   -0.7160    0.4460 C.2     1  UNL1       -0.0440
      7  C          7.2630   -0.4050   -0.9150 C.2     1  UNL1        0.0080
      8  C          7.8600   -1.9460    0.8090 C.2     1  UNL1        0.0540
      9  C          7.6690   -1.3410   -1.8490 C.2     1  UNL1        0.0510
     10  C          8.2700   -2.8890   -0.1390 C.2     1  UNL1        0.1660
     11  C          8.1730   -2.5840   -1.4780 C.2     1  UNL1        0.1650
     12  O          8.7910   -4.1610   -0.0340 O.2     1  UNL1       -0.4540
     13  O          8.6440   -3.6860   -2.1750 O.2     1  UNL1       -0.4540
     14  C          9.1300   -4.6730   -1.2970 C.3     1  UNL1        0.4680
@<TRIPOS>BOND
     1    13    11    1
     2    13    14    1
     3     9    11    2
     4     9     7    1
     5    11    10    1
     6    14    12    1
     7     7     6    2
     8    10    12    1
     9    10     8    2
    10     6     8    1
    11     6     5    1
    12     3     2    1
    13     5     1    1
    14     2     1    1
    15     2     4    2
