@<TRIPOS>MOLECULE
/home/cewinharhar/GITHUB/reincatalyze/data/processed/docking_pred/2023-May-31-1438_sub9_nm5_bs15_s42_ex16_mel10_mts1000_k50_ec05_g099_lra9e-4_lrc3e-3/a5b16c92fd7591d551db5a31bdb9c28d24e6a5b8_ligand_9.pdbqt
 14 15 0 0 0
SMALL
GASTEIGER

@<TRIPOS>ATOM
      1  C          5.4630   -0.0220    2.0280 C.3     1  UNL1        0.0800
      2  C          4.5780    1.1490    1.7720 C.2     1  UNL1        0.1300
      3  C          4.8840    2.1400    0.7060 C.3     1  UNL1        0.0870
      4  O          3.5700    1.3290    2.4350 O.2     1  UNL1       -0.3000
      5  C          6.8810    0.2480    1.5640 C.3     1  UNL1        0.0430
      6  C          7.2990   -0.6930    0.5100 C.2     1  UNL1       -0.0440
      7  C          7.1730   -0.3760   -0.8470 C.2     1  UNL1        0.0080
      8  C          7.8290   -1.9150    0.8570 C.2     1  UNL1        0.0540
      9  C          7.5840   -1.2980   -1.7930 C.2     1  UNL1        0.0510
     10  C          8.2430   -2.8430   -0.1030 C.2     1  UNL1        0.1660
     11  C          8.1190   -2.5320   -1.4390 C.2     1  UNL1        0.1650
     12  O          8.7930   -4.1050   -0.0140 O.2     1  UNL1       -0.4540
     13  O          8.6010   -3.6200   -2.1500 O.2     1  UNL1       -0.4540
     14  C          9.1210   -4.6020   -1.2860 C.3     1  UNL1        0.4680
@<TRIPOS>BOND
     1    13    11    1
     2    13    14    1
     3     9    11    2
     4     9     7    1
     5    11    10    1
     6    14    12    1
     7     7     6    2
     8    10    12    1
     9    10     8    2
    10     6     8    1
    11     6     5    1
    12     3     2    1
    13     5     1    1
    14     2     1    1
    15     2     4    2
