@<TRIPOS>MOLECULE
/home/cewinharhar/GITHUB/reincatalyze/data/processed/docking_pred/2023-May-31-1438_sub9_nm5_bs15_s42_ex16_mel10_mts1000_k50_ec05_g099_lra9e-4_lrc3e-3/a5b16c92fd7591d551db5a31bdb9c28d24e6a5b8_ligand_9.pdbqt
 14 15 0 0 0
SMALL
GASTEIGER

@<TRIPOS>ATOM
      1  C          5.5480    1.9010    1.2860 C.3     1  UNL1        0.0800
      2  C          5.1030    0.6780    2.0110 C.2     1  UNL1        0.1300
      3  C          5.9960   -0.4990    2.1780 C.3     1  UNL1        0.0870
      4  O          3.9830    0.6070    2.4910 O.2     1  UNL1       -0.3000
      5  C          5.4190    1.7290   -0.2150 C.3     1  UNL1        0.0430
      6  C          6.5810    1.0260   -0.7860 C.2     1  UNL1       -0.0440
      7  C          7.8910    1.4560   -0.5430 C.2     1  UNL1        0.0080
      8  C          6.3860   -0.0830   -1.5780 C.2     1  UNL1        0.0540
      9  C          8.9420    0.7560   -1.1060 C.2     1  UNL1        0.0510
     10  C          7.4530   -0.7880   -2.1430 C.2     1  UNL1        0.1660
     11  C          8.7420   -0.3640   -1.9060 C.2     1  UNL1        0.1650
     12  O          7.5190   -1.9020   -2.9530 O.2     1  UNL1       -0.4540
     13  O          9.5810   -1.2370   -2.5800 O.2     1  UNL1       -0.4540
     14  C          8.8520   -2.2800   -3.1830 C.3     1  UNL1        0.4680
@<TRIPOS>BOND
     1    14    12    1
     2    14    13    1
     3    12    10    1
     4    13    11    1
     5    10    11    2
     6    10     8    1
     7    11     9    1
     8     8     6    2
     9     9     7    2
    10     6     7    1
    11     6     5    1
    12     5     1    1
    13     1     2    1
    14     2     3    1
    15     2     4    2
