@<TRIPOS>MOLECULE
/home/cewinharhar/GITHUB/reincatalyze/data/processed/docking_pred/2023-May-31-1438_sub9_nm5_bs15_s42_ex16_mel10_mts1000_k50_ec05_g099_lra9e-4_lrc3e-3/a614218f6e6a1b7d791f470f20b1a009abdeaae3_ligand_9.pdbqt
 14 15 0 0 0
SMALL
GASTEIGER

@<TRIPOS>ATOM
      1  C          8.1610   -2.2220   -2.6860 C.3     1  UNL1        0.0800
      2  C          9.1140   -3.2800   -3.1220 C.2     1  UNL1        0.1300
      3  C          8.6660   -4.6740   -3.3840 C.3     1  UNL1        0.0870
      4  O         10.2980   -3.0310   -3.2790 O.2     1  UNL1       -0.3000
      5  C          8.0230   -2.1950   -1.1760 C.3     1  UNL1        0.0430
      6  C          7.1840   -1.0700   -0.7240 C.2     1  UNL1       -0.0440
      7  C          6.9010    0.0160   -1.5610 C.2     1  UNL1        0.0080
      8  C          6.6600   -1.0780    0.5480 C.2     1  UNL1        0.0540
      9  C          6.1070    1.0420   -1.0830 C.2     1  UNL1        0.0510
     10  C          5.8570   -0.0380    1.0270 C.2     1  UNL1        0.1660
     11  C          5.5790    1.0310    0.2050 C.2     1  UNL1        0.1650
     12  O          5.2270    0.1840    2.2330 O.2     1  UNL1       -0.4540
     13  O          4.7750    1.8960    0.9300 O.2     1  UNL1       -0.4540
     14  C          4.4530    1.3550    2.1890 C.3     1  UNL1        0.4680
@<TRIPOS>BOND
     1     3     2    1
     2     4     2    2
     3     2     1    1
     4     1     5    1
     5     7     9    1
     6     7     6    2
     7     5     6    1
     8     9    11    2
     9     6     8    1
    10    11    13    1
    11    11    10    1
    12     8    10    2
    13    13    14    1
    14    10    12    1
    15    14    12    1
