@<TRIPOS>MOLECULE
/home/cewinharhar/GITHUB/reincatalyze/data/processed/docking_pred/2023-May-31-1438_sub9_nm5_bs15_s42_ex16_mel10_mts1000_k50_ec05_g099_lra9e-4_lrc3e-3/a614218f6e6a1b7d791f470f20b1a009abdeaae3_ligand_9.pdbqt
 14 15 0 0 0
SMALL
GASTEIGER

@<TRIPOS>ATOM
      1  C          5.9420    1.7160    1.1730 C.3     1  UNL1        0.0800
      2  C          5.4090    0.6250    2.0360 C.2     1  UNL1        0.1300
      3  C          6.2330   -0.5610    2.3930 C.3     1  UNL1        0.0870
      4  O          4.2720    0.6740    2.4770 O.2     1  UNL1       -0.3000
      5  C          5.6740    1.4390   -0.2930 C.3     1  UNL1        0.0430
      6  C          6.7800    0.6930   -0.9190 C.2     1  UNL1       -0.0440
      7  C          8.1150    1.0780   -0.7450 C.2     1  UNL1        0.0080
      8  C          6.5060   -0.4110   -1.6940 C.2     1  UNL1        0.0540
      9  C          9.1110    0.3380   -1.3570 C.2     1  UNL1        0.0510
     10  C          7.5170   -1.1550   -2.3090 C.2     1  UNL1        0.1660
     11  C          8.8300   -0.7770   -2.1400 C.2     1  UNL1        0.1650
     12  O          7.5020   -2.2730   -3.1160 O.2     1  UNL1       -0.4540
     13  O          9.6030   -1.6810   -2.8520 O.2     1  UNL1       -0.4540
     14  C          8.8080   -2.6990   -3.4110 C.3     1  UNL1        0.4680
@<TRIPOS>BOND
     1    14    12    1
     2    14    13    1
     3    12    10    1
     4    13    11    1
     5    10    11    2
     6    10     8    1
     7    11     9    1
     8     8     6    2
     9     9     7    2
    10     6     7    1
    11     6     5    1
    12     5     1    1
    13     1     2    1
    14     2     3    1
    15     2     4    2
