MODEL 1
REMARK VINA RESULT:      -7.9      0.000      0.000
REMARK SMILES CC(=O)CCc1ccc2c(c1)OCO2
REMARK SMILES IDX 4 1 2 2 1 3 3 4 5 5 6 6 7 7 11 8 8 9 10 10 9 11 12 12 14 13
REMARK SMILES IDX 13 14
REMARK H PARENT
REMARK Flexibility Score: inf
ROOT
ATOM      1  C   UNL     1       5.942   1.716   1.173  1.00  0.00     0.080 C 
ENDROOT
BRANCH   1   2
ATOM      2  C   UNL     1       5.409   0.625   2.036  1.00  0.00     0.130 C 
ATOM      3  C   UNL     1       6.233  -0.561   2.393  1.00  0.00     0.087 C 
ATOM      4  O   UNL     1       4.272   0.674   2.477  1.00  0.00    -0.300 OA
ENDBRANCH   1   2
BRANCH   1   5
ATOM      5  C   UNL     1       5.674   1.439  -0.293  1.00  0.00     0.043 C 
BRANCH   5   6
ATOM      6  C   UNL     1       6.780   0.693  -0.919  1.00  0.00    -0.044 A 
ATOM      7  C   UNL     1       8.115   1.078  -0.745  1.00  0.00     0.008 A 
ATOM      8  C   UNL     1       6.506  -0.411  -1.694  1.00  0.00     0.054 A 
ATOM      9  C   UNL     1       9.111   0.338  -1.357  1.00  0.00     0.051 A 
ATOM     10  C   UNL     1       7.517  -1.155  -2.309  1.00  0.00     0.166 A 
ATOM     11  C   UNL     1       8.830  -0.777  -2.140  1.00  0.00     0.165 A 
ATOM     12  O   UNL     1       7.502  -2.273  -3.116  1.00  0.00    -0.454 OA
ATOM     13  O   UNL     1       9.603  -1.681  -2.852  1.00  0.00    -0.454 OA
ATOM     14  C   UNL     1       8.808  -2.699  -3.411  1.00  0.00     0.468 C 
ENDBRANCH   5   6
ENDBRANCH   1   5
TORSDOF 3
ENDMDL
MODEL 2
REMARK VINA RESULT:      -7.4      1.169      1.656
REMARK SMILES CC(=O)CCc1ccc2c(c1)OCO2
REMARK SMILES IDX 4 1 2 2 1 3 3 4 5 5 6 6 7 7 11 8 8 9 10 10 9 11 12 12 14 13
REMARK SMILES IDX 13 14
REMARK H PARENT
REMARK Flexibility Score: inf
ROOT
ATOM      1  C   UNL     1       5.498  -0.114   1.788  1.00  0.00     0.080 C 
ENDROOT
BRANCH   1   2
ATOM      2  C   UNL     1       4.699   1.142   1.733  1.00  0.00     0.130 C 
ATOM      3  C   UNL     1       4.899   2.149   0.657  1.00  0.00     0.087 C 
ATOM      4  O   UNL     1       3.851   1.382   2.577  1.00  0.00    -0.300 OA
ENDBRANCH   1   2
BRANCH   1   5
ATOM      5  C   UNL     1       6.979   0.169   1.633  1.00  0.00     0.043 C 
BRANCH   5   6
ATOM      6  C   UNL     1       7.465  -0.183   0.287  1.00  0.00    -0.044 A 
ATOM      7  C   UNL     1       7.895   0.796  -0.616  1.00  0.00     0.008 A 
ATOM      8  C   UNL     1       7.503  -1.502  -0.101  1.00  0.00     0.054 A 
ATOM      9  C   UNL     1       8.341   0.407  -1.866  1.00  0.00     0.051 A 
ATOM     10  C   UNL     1       7.956  -1.891  -1.366  1.00  0.00     0.166 A 
ATOM     11  C   UNL     1       8.378  -0.929  -2.255  1.00  0.00     0.165 A 
ATOM     12  O   UNL     1       8.088  -3.118  -1.980  1.00  0.00    -0.454 OA
ATOM     13  O   UNL     1       8.766  -1.592  -3.409  1.00  0.00    -0.454 OA
ATOM     14  C   UNL     1       8.684  -2.987  -3.245  1.00  0.00     0.468 C 
ENDBRANCH   5   6
ENDBRANCH   1   5
TORSDOF 3
ENDMDL
MODEL 3
REMARK VINA RESULT:      -7.1      1.515      5.750
REMARK SMILES CC(=O)CCc1ccc2c(c1)OCO2
REMARK SMILES IDX 4 1 2 2 1 3 3 4 5 5 6 6 7 7 11 8 8 9 10 10 9 11 12 12 14 13
REMARK SMILES IDX 13 14
REMARK H PARENT
REMARK Flexibility Score: inf
ROOT
ATOM      1  C   UNL     1       8.161  -2.222  -2.686  1.00  0.00     0.080 C 
ENDROOT
BRANCH   1   2
ATOM      2  C   UNL     1       9.114  -3.280  -3.122  1.00  0.00     0.130 C 
ATOM      3  C   UNL     1       8.666  -4.674  -3.384  1.00  0.00     0.087 C 
ATOM      4  O   UNL     1      10.298  -3.031  -3.279  1.00  0.00    -0.300 OA
ENDBRANCH   1   2
BRANCH   1   5
ATOM      5  C   UNL     1       8.023  -2.195  -1.176  1.00  0.00     0.043 C 
BRANCH   5   6
ATOM      6  C   UNL     1       7.184  -1.070  -0.724  1.00  0.00    -0.044 A 
ATOM      7  C   UNL     1       6.901   0.016  -1.561  1.00  0.00     0.008 A 
ATOM      8  C   UNL     1       6.660  -1.078   0.548  1.00  0.00     0.054 A 
ATOM      9  C   UNL     1       6.107   1.042  -1.083  1.00  0.00     0.051 A 
ATOM     10  C   UNL     1       5.857  -0.038   1.027  1.00  0.00     0.166 A 
ATOM     11  C   UNL     1       5.579   1.031   0.205  1.00  0.00     0.165 A 
ATOM     12  O   UNL     1       5.227   0.184   2.233  1.00  0.00    -0.454 OA
ATOM     13  O   UNL     1       4.775   1.896   0.930  1.00  0.00    -0.454 OA
ATOM     14  C   UNL     1       4.453   1.355   2.189  1.00  0.00     0.468 C 
ENDBRANCH   5   6
ENDBRANCH   1   5
TORSDOF 3
ENDMDL
MODEL 4
REMARK VINA RESULT:      -7.1      1.595      2.150
REMARK SMILES CC(=O)CCc1ccc2c(c1)OCO2
REMARK SMILES IDX 4 1 2 2 1 3 3 4 5 5 6 6 7 7 11 8 8 9 10 10 9 11 12 12 14 13
REMARK SMILES IDX 13 14
REMARK H PARENT
REMARK Flexibility Score: inf
ROOT
ATOM      1  C   UNL     1       5.594  -0.011   2.027  1.00  0.00     0.080 C 
ENDROOT
BRANCH   1   2
ATOM      2  C   UNL     1       4.679   1.152   1.854  1.00  0.00     0.130 C 
ATOM      3  C   UNL     1       4.881   2.150   0.770  1.00  0.00     0.087 C 
ATOM      4  O   UNL     1       3.731   1.320   2.604  1.00  0.00    -0.300 OA
ENDBRANCH   1   2
BRANCH   1   5
ATOM      5  C   UNL     1       6.974   0.288   1.476  1.00  0.00     0.043 C 
BRANCH   5   6
ATOM      6  C   UNL     1       7.259  -0.495   0.261  1.00  0.00    -0.044 A 
ATOM      7  C   UNL     1       6.975   0.004  -1.016  1.00  0.00     0.008 A 
ATOM      8  C   UNL     1       7.820  -1.746   0.371  1.00  0.00     0.054 A 
ATOM      9  C   UNL     1       7.264  -0.775  -2.121  1.00  0.00     0.051 A 
ATOM     10  C   UNL     1       8.112  -2.530  -0.749  1.00  0.00     0.166 A 
ATOM     11  C   UNL     1       7.831  -2.041  -2.006  1.00  0.00     0.165 A 
ATOM     12  O   UNL     1       8.661  -3.786  -0.901  1.00  0.00    -0.454 OA
ATOM     13  O   UNL     1       8.219  -3.015  -2.911  1.00  0.00    -0.454 OA
ATOM     14  C   UNL     1       8.834  -4.101  -2.259  1.00  0.00     0.468 C 
ENDBRANCH   5   6
ENDBRANCH   1   5
TORSDOF 3
ENDMDL
MODEL 5
REMARK VINA RESULT:      -7.1      1.585      5.602
REMARK SMILES CC(=O)CCc1ccc2c(c1)OCO2
REMARK SMILES IDX 4 1 2 2 1 3 3 4 5 5 6 6 7 7 11 8 8 9 10 10 9 11 12 12 14 13
REMARK SMILES IDX 13 14
REMARK H PARENT
REMARK Flexibility Score: inf
ROOT
ATOM      1  C   UNL     1       8.015  -2.494  -3.490  1.00  0.00     0.080 C 
ENDROOT
BRANCH   1   2
ATOM      2  C   UNL     1       9.144  -3.458  -3.380  1.00  0.00     0.130 C 
ATOM      3  C   UNL     1       8.916  -4.927  -3.343  1.00  0.00     0.087 C 
ATOM      4  O   UNL     1      10.299  -3.067  -3.318  1.00  0.00    -0.300 OA
ENDBRANCH   1   2
BRANCH   1   5
ATOM      5  C   UNL     1       8.395  -1.136  -2.933  1.00  0.00     0.043 C 
BRANCH   5   6
ATOM      6  C   UNL     1       7.660  -0.828  -1.693  1.00  0.00    -0.044 A 
ATOM      7  C   UNL     1       7.748  -1.653  -0.566  1.00  0.00     0.008 A 
ATOM      8  C   UNL     1       6.868   0.296  -1.630  1.00  0.00     0.054 A 
ATOM      9  C   UNL     1       7.036  -1.313   0.571  1.00  0.00     0.051 A 
ATOM     10  C   UNL     1       6.151   0.635  -0.479  1.00  0.00     0.166 A 
ATOM     11  C   UNL     1       6.236  -0.176   0.631  1.00  0.00     0.165 A 
ATOM     12  O   UNL     1       5.308   1.681  -0.171  1.00  0.00    -0.454 OA
ATOM     13  O   UNL     1       5.435   0.395   1.607  1.00  0.00    -0.454 OA
ATOM     14  C   UNL     1       4.900   1.622   1.172  1.00  0.00     0.468 C 
ENDBRANCH   5   6
ENDBRANCH   1   5
TORSDOF 3
ENDMDL
