@<TRIPOS>MOLECULE
/home/cewinharhar/GITHUB/reincatalyze/data/processed/docking_pred/2023-May-31-1438_sub9_nm5_bs15_s42_ex16_mel10_mts1000_k50_ec05_g099_lra9e-4_lrc3e-3/a614218f6e6a1b7d791f470f20b1a009abdeaae3_ligand_9.pdbqt
 14 15 0 0 0
SMALL
GASTEIGER

@<TRIPOS>ATOM
      1  C          5.5940   -0.0110    2.0270 C.3     1  UNL1        0.0800
      2  C          4.6790    1.1520    1.8540 C.2     1  UNL1        0.1300
      3  C          4.8810    2.1500    0.7700 C.3     1  UNL1        0.0870
      4  O          3.7310    1.3200    2.6040 O.2     1  UNL1       -0.3000
      5  C          6.9740    0.2880    1.4760 C.3     1  UNL1        0.0430
      6  C          7.2590   -0.4950    0.2610 C.2     1  UNL1       -0.0440
      7  C          6.9750    0.0040   -1.0160 C.2     1  UNL1        0.0080
      8  C          7.8200   -1.7460    0.3710 C.2     1  UNL1        0.0540
      9  C          7.2640   -0.7750   -2.1210 C.2     1  UNL1        0.0510
     10  C          8.1120   -2.5300   -0.7490 C.2     1  UNL1        0.1660
     11  C          7.8310   -2.0410   -2.0060 C.2     1  UNL1        0.1650
     12  O          8.6610   -3.7860   -0.9010 O.2     1  UNL1       -0.4540
     13  O          8.2190   -3.0150   -2.9110 O.2     1  UNL1       -0.4540
     14  C          8.8340   -4.1010   -2.2590 C.3     1  UNL1        0.4680
@<TRIPOS>BOND
     1    13    14    1
     2    13    11    1
     3    14    12    1
     4     9    11    2
     5     9     7    1
     6    11    10    1
     7     7     6    2
     8    12    10    1
     9    10     8    2
    10     6     8    1
    11     6     5    1
    12     3     2    1
    13     5     1    1
    14     2     1    1
    15     2     4    2
