@<TRIPOS>MOLECULE
/home/cewinharhar/GITHUB/reincatalyze/data/processed/docking_pred/2023-May-31-1438_sub9_nm5_bs15_s42_ex16_mel10_mts1000_k50_ec05_g099_lra9e-4_lrc3e-3/a614218f6e6a1b7d791f470f20b1a009abdeaae3_ligand_9.pdbqt
 14 15 0 0 0
SMALL
GASTEIGER

@<TRIPOS>ATOM
      1  C          5.4980   -0.1140    1.7880 C.3     1  UNL1        0.0800
      2  C          4.6990    1.1420    1.7330 C.2     1  UNL1        0.1300
      3  C          4.8990    2.1490    0.6570 C.3     1  UNL1        0.0870
      4  O          3.8510    1.3820    2.5770 O.2     1  UNL1       -0.3000
      5  C          6.9790    0.1690    1.6330 C.3     1  UNL1        0.0430
      6  C          7.4650   -0.1830    0.2870 C.2     1  UNL1       -0.0440
      7  C          7.8950    0.7960   -0.6160 C.2     1  UNL1        0.0080
      8  C          7.5030   -1.5020   -0.1010 C.2     1  UNL1        0.0540
      9  C          8.3410    0.4070   -1.8660 C.2     1  UNL1        0.0510
     10  C          7.9560   -1.8910   -1.3660 C.2     1  UNL1        0.1660
     11  C          8.3780   -0.9290   -2.2550 C.2     1  UNL1        0.1650
     12  O          8.0880   -3.1180   -1.9800 O.2     1  UNL1       -0.4540
     13  O          8.7660   -1.5920   -3.4090 O.2     1  UNL1       -0.4540
     14  C          8.6840   -2.9870   -3.2450 C.3     1  UNL1        0.4680
@<TRIPOS>BOND
     1    13    14    1
     2    13    11    1
     3    14    12    1
     4    11     9    2
     5    11    10    1
     6    12    10    1
     7     9     7    1
     8    10     8    2
     9     7     6    2
    10     8     6    1
    11     6     5    1
    12     3     2    1
    13     5     1    1
    14     2     1    1
    15     2     4    2
