MODEL 1
REMARK VINA RESULT:      -7.7      0.000      0.000
REMARK SMILES CC(=O)CCc1ccc2c(c1)OCO2
REMARK SMILES IDX 4 1 2 2 1 3 3 4 5 5 6 6 7 7 11 8 8 9 10 10 9 11 12 12 14 13
REMARK SMILES IDX 13 14
REMARK H PARENT
REMARK Flexibility Score: inf
ROOT
ATOM      1  C   UNL     1       5.508   1.903   1.272  1.00  0.00     0.080 C 
ENDROOT
BRANCH   1   2
ATOM      2  C   UNL     1       5.064   0.683   2.002  1.00  0.00     0.130 C 
ATOM      3  C   UNL     1       5.948  -0.503   2.153  1.00  0.00     0.087 C 
ATOM      4  O   UNL     1       3.952   0.622   2.501  1.00  0.00    -0.300 OA
ENDBRANCH   1   2
BRANCH   1   5
ATOM      5  C   UNL     1       5.386   1.721  -0.228  1.00  0.00     0.043 C 
BRANCH   5   6
ATOM      6  C   UNL     1       6.556   1.026  -0.792  1.00  0.00    -0.044 A 
ATOM      7  C   UNL     1       7.861   1.471  -0.547  1.00  0.00     0.008 A 
ATOM      8  C   UNL     1       6.375  -0.089  -1.578  1.00  0.00     0.054 A 
ATOM      9  C   UNL     1       8.921   0.778  -1.102  1.00  0.00     0.051 A 
ATOM     10  C   UNL     1       7.450  -0.786  -2.136  1.00  0.00     0.166 A 
ATOM     11  C   UNL     1       8.734  -0.349  -1.896  1.00  0.00     0.165 A 
ATOM     12  O   UNL     1       7.530  -1.904  -2.939  1.00  0.00    -0.454 OA
ATOM     13  O   UNL     1       9.584  -1.217  -2.564  1.00  0.00    -0.454 OA
ATOM     14  C   UNL     1       8.867  -2.270  -3.163  1.00  0.00     0.468 C 
ENDBRANCH   5   6
ENDBRANCH   1   5
TORSDOF 3
ENDMDL
MODEL 2
REMARK VINA RESULT:      -7.5      1.929      2.395
REMARK SMILES CC(=O)CCc1ccc2c(c1)OCO2
REMARK SMILES IDX 4 1 2 2 1 3 3 4 5 5 6 6 7 7 11 8 8 9 10 10 9 11 12 12 14 13
REMARK SMILES IDX 13 14
REMARK H PARENT
REMARK Flexibility Score: inf
ROOT
ATOM      1  C   UNL     1       5.768   1.369  -0.266  1.00  0.00     0.080 C 
ENDROOT
BRANCH   1   2
ATOM      2  C   UNL     1       5.117   1.271   1.070  1.00  0.00     0.130 C 
ATOM      3  C   UNL     1       5.345   0.106   1.966  1.00  0.00     0.087 C 
ATOM      4  O   UNL     1       4.371   2.150   1.469  1.00  0.00    -0.300 OA
ENDBRANCH   1   2
BRANCH   1   5
ATOM      5  C   UNL     1       7.256   1.090  -0.176  1.00  0.00     0.043 C 
BRANCH   5   6
ATOM      6  C   UNL     1       7.610  -0.195  -0.804  1.00  0.00    -0.044 A 
ATOM      7  C   UNL     1       7.626  -0.351  -2.195  1.00  0.00     0.008 A 
ATOM      8  C   UNL     1       7.937  -1.274  -0.014  1.00  0.00     0.054 A 
ATOM      9  C   UNL     1       7.968  -1.580  -2.729  1.00  0.00     0.051 A 
ATOM     10  C   UNL     1       8.282  -2.515  -0.559  1.00  0.00     0.166 A 
ATOM     11  C   UNL     1       8.297  -2.669  -1.927  1.00  0.00     0.165 A 
ATOM     12  O   UNL     1       8.639  -3.721   0.004  1.00  0.00    -0.454 OA
ATOM     13  O   UNL     1       8.668  -3.980  -2.178  1.00  0.00    -0.454 OA
ATOM     14  C   UNL     1       8.983  -4.657  -0.985  1.00  0.00     0.468 C 
ENDBRANCH   5   6
ENDBRANCH   1   5
TORSDOF 3
ENDMDL
MODEL 3
REMARK VINA RESULT:      -7.2      2.065      2.635
REMARK SMILES CC(=O)CCc1ccc2c(c1)OCO2
REMARK SMILES IDX 4 1 2 2 1 3 3 4 5 5 6 6 7 7 11 8 8 9 10 10 9 11 12 12 14 13
REMARK SMILES IDX 13 14
REMARK H PARENT
REMARK Flexibility Score: inf
ROOT
ATOM      1  C   UNL     1       5.450  -0.084   1.934  1.00  0.00     0.080 C 
ENDROOT
BRANCH   1   2
ATOM      2  C   UNL     1       4.624   1.136   1.714  1.00  0.00     0.130 C 
ATOM      3  C   UNL     1       4.936   2.106   0.630  1.00  0.00     0.087 C 
ATOM      4  O   UNL     1       3.660   1.376   2.423  1.00  0.00    -0.300 OA
ENDBRANCH   1   2
BRANCH   1   5
ATOM      5  C   UNL     1       6.893   0.148   1.531  1.00  0.00     0.043 C 
BRANCH   5   6
ATOM      6  C   UNL     1       7.319  -0.779   0.467  1.00  0.00    -0.044 A 
ATOM      7  C   UNL     1       7.184  -0.453  -0.887  1.00  0.00     0.008 A 
ATOM      8  C   UNL     1       7.866  -1.996   0.803  1.00  0.00     0.054 A 
ATOM      9  C   UNL     1       7.603  -1.362  -1.841  1.00  0.00     0.051 A 
ATOM     10  C   UNL     1       8.288  -2.912  -0.165  1.00  0.00     0.166 A 
ATOM     11  C   UNL     1       8.155  -2.593  -1.498  1.00  0.00     0.165 A 
ATOM     12  O   UNL     1       8.854  -4.167  -0.089  1.00  0.00    -0.454 OA
ATOM     13  O   UNL     1       8.648  -3.669  -2.220  1.00  0.00    -0.454 OA
ATOM     14  C   UNL     1       9.184  -4.651  -1.365  1.00  0.00     0.468 C 
ENDBRANCH   5   6
ENDBRANCH   1   5
TORSDOF 3
ENDMDL
MODEL 4
REMARK VINA RESULT:      -7.1      1.244      1.446
REMARK SMILES CC(=O)CCc1ccc2c(c1)OCO2
REMARK SMILES IDX 4 1 2 2 1 3 3 4 5 5 6 6 7 7 11 8 8 9 10 10 9 11 12 12 14 13
REMARK SMILES IDX 13 14
REMARK H PARENT
REMARK Flexibility Score: inf
ROOT
ATOM      1  C   UNL     1       6.341   1.252   0.907  1.00  0.00     0.080 C 
ENDROOT
BRANCH   1   2
ATOM      2  C   UNL     1       5.642   0.420   1.926  1.00  0.00     0.130 C 
ATOM      3  C   UNL     1       6.278  -0.788   2.517  1.00  0.00     0.087 C 
ATOM      4  O   UNL     1       4.520   0.709   2.307  1.00  0.00    -0.300 OA
ENDBRANCH   1   2
BRANCH   1   5
ATOM      5  C   UNL     1       5.838   0.948  -0.491  1.00  0.00     0.043 C 
BRANCH   5   6
ATOM      6  C   UNL     1       6.795   0.123  -1.249  1.00  0.00    -0.044 A 
ATOM      7  C   UNL     1       7.496   0.636  -2.347  1.00  0.00     0.008 A 
ATOM      8  C   UNL     1       7.015  -1.183  -0.876  1.00  0.00     0.054 A 
ATOM      9  C   UNL     1       8.383  -0.185  -3.020  1.00  0.00     0.051 A 
ATOM     10  C   UNL     1       7.913  -2.009  -1.560  1.00  0.00     0.166 A 
ATOM     11  C   UNL     1       8.602  -1.505  -2.641  1.00  0.00     0.165 A 
ATOM     12  O   UNL     1       8.300  -3.321  -1.388  1.00  0.00    -0.454 OA
ATOM     13  O   UNL     1       9.408  -2.529  -3.115  1.00  0.00    -0.454 OA
ATOM     14  C   UNL     1       9.315  -3.670  -2.295  1.00  0.00     0.468 C 
ENDBRANCH   5   6
ENDBRANCH   1   5
TORSDOF 3
ENDMDL
MODEL 5
REMARK VINA RESULT:      -7.1      1.940      2.502
REMARK SMILES CC(=O)CCc1ccc2c(c1)OCO2
REMARK SMILES IDX 4 1 2 2 1 3 3 4 5 5 6 6 7 7 11 8 8 9 10 10 9 11 12 12 14 13
REMARK SMILES IDX 13 14
REMARK H PARENT
REMARK Flexibility Score: inf
ROOT
ATOM      1  C   UNL     1       6.860   1.077   1.323  1.00  0.00     0.080 C 
ENDROOT
BRANCH   1   2
ATOM      2  C   UNL     1       5.387   1.296   1.328  1.00  0.00     0.130 C 
ATOM      3  C   UNL     1       4.721   2.150   0.308  1.00  0.00     0.087 C 
ATOM      4  O   UNL     1       4.679   0.776   2.175  1.00  0.00    -0.300 OA
ENDBRANCH   1   2
BRANCH   1   5
ATOM      5  C   UNL     1       7.436   1.234  -0.070  1.00  0.00     0.043 C 
BRANCH   5   6
ATOM      6  C   UNL     1       7.726  -0.071  -0.691  1.00  0.00    -0.044 A 
ATOM      7  C   UNL     1       7.715  -0.240  -2.081  1.00  0.00     0.008 A 
ATOM      8  C   UNL     1       8.019  -1.155   0.104  1.00  0.00     0.054 A 
ATOM      9  C   UNL     1       7.996  -1.488  -2.607  1.00  0.00     0.051 A 
ATOM     10  C   UNL     1       8.303  -2.414  -0.432  1.00  0.00     0.166 A 
ATOM     11  C   UNL     1       8.291  -2.582  -1.799  1.00  0.00     0.165 A 
ATOM     12  O   UNL     1       8.618  -3.630   0.138  1.00  0.00    -0.454 OA
ATOM     13  O   UNL     1       8.603  -3.911  -2.043  1.00  0.00    -0.454 OA
ATOM     14  C   UNL     1       8.907  -4.589  -0.847  1.00  0.00     0.468 C 
ENDBRANCH   5   6
ENDBRANCH   1   5
TORSDOF 3
ENDMDL
