@<TRIPOS>MOLECULE
/home/cewinharhar/GITHUB/reincatalyze/data/processed/docking_pred/2023-May-31-1438_sub9_nm5_bs15_s42_ex16_mel10_mts1000_k50_ec05_g099_lra9e-4_lrc3e-3/a8cbf1bb962d04eb60783bb2dc55df042853f03a_ligand_9.pdbqt
 14 15 0 0 0
SMALL
GASTEIGER

@<TRIPOS>ATOM
      1  C         11.9190   -1.2920    1.1680 C.3     1  UNL1        0.0800
      2  C         10.7420   -0.6440    0.5250 C.2     1  UNL1        0.1300
      3  C         10.9000    0.3640   -0.5580 C.3     1  UNL1        0.0870
      4  O          9.6060   -0.9250    0.8710 O.2     1  UNL1       -0.3000
      5  C         12.8250   -1.9370    0.1370 C.3     1  UNL1        0.0430
      6  C         12.1380   -3.0160   -0.5950 C.2     1  UNL1       -0.0440
      7  C         12.7590   -3.6990   -1.6460 C.2     1  UNL1        0.0080
      8  C         10.8550   -3.3710   -0.2420 C.2     1  UNL1        0.0540
      9  C         12.0650   -4.7040   -2.2960 C.2     1  UNL1        0.0510
     10  C         10.1590   -4.3880   -0.9010 C.2     1  UNL1        0.1660
     11  C         10.7690   -5.0600   -1.9370 C.2     1  UNL1        0.1650
     12  O          8.8960   -4.9180   -0.7410 O.2     1  UNL1       -0.4540
     13  O          9.8590   -5.9990   -2.3960 O.2     1  UNL1       -0.4540
     14  C          8.6930   -6.0050   -1.6070 C.3     1  UNL1        0.4680
@<TRIPOS>BOND
     1    13    11    1
     2    13    14    1
     3     9    11    2
     4     9     7    1
     5    11    10    1
     6     7     6    2
     7    14    12    1
     8    10    12    1
     9    10     8    2
    10     6     8    1
    11     6     5    1
    12     3     2    1
    13     5     1    1
    14     2     4    2
    15     2     1    1
