MODEL 1
REMARK VINA RESULT:      -3.8      0.000      0.000
REMARK SMILES CC(=O)CCc1ccc2c(c1)OCO2
REMARK SMILES IDX 4 1 2 2 1 3 3 4 5 5 6 6 7 7 11 8 8 9 10 10 9 11 12 12 14 13
REMARK SMILES IDX 13 14
REMARK H PARENT
REMARK Flexibility Score: inf
ROOT
ATOM      1  C   UNL     1      12.288  -3.755  -1.789  1.00  0.00     0.080 C 
ENDROOT
BRANCH   1   2
ATOM      2  C   UNL     1      11.024  -4.066  -2.513  1.00  0.00     0.130 C 
ATOM      3  C   UNL     1      10.364  -5.394  -2.397  1.00  0.00     0.087 C 
ATOM      4  O   UNL     1      10.491  -3.233  -3.229  1.00  0.00    -0.300 OA
ENDBRANCH   1   2
BRANCH   1   5
ATOM      5  C   UNL     1      12.118  -3.916  -0.291  1.00  0.00     0.043 C 
BRANCH   5   6
ATOM      6  C   UNL     1      11.097  -2.998   0.245  1.00  0.00    -0.044 A 
ATOM      7  C   UNL     1      11.347  -1.629   0.393  1.00  0.00     0.008 A 
ATOM      8  C   UNL     1       9.863  -3.488   0.609  1.00  0.00     0.054 A 
ATOM      9  C   UNL     1      10.349  -0.816   0.901  1.00  0.00     0.051 A 
ATOM     10  C   UNL     1       8.858  -2.662   1.121  1.00  0.00     0.166 A 
ATOM     11  C   UNL     1       9.104  -1.315   1.268  1.00  0.00     0.165 A 
ATOM     12  O   UNL     1       7.570  -2.904   1.549  1.00  0.00    -0.454 OA
ATOM     13  O   UNL     1       7.949  -0.752   1.788  1.00  0.00    -0.454 OA
ATOM     14  C   UNL     1       6.921  -1.708   1.897  1.00  0.00     0.468 C 
ENDBRANCH   5   6
ENDBRANCH   1   5
TORSDOF 3
ENDMDL
MODEL 2
REMARK VINA RESULT:      -3.6      1.983      4.408
REMARK SMILES CC(=O)CCc1ccc2c(c1)OCO2
REMARK SMILES IDX 4 1 2 2 1 3 3 4 5 5 6 6 7 7 11 8 8 9 10 10 9 11 12 12 14 13
REMARK SMILES IDX 13 14
REMARK H PARENT
REMARK Flexibility Score: inf
ROOT
ATOM      1  C   UNL     1      11.919  -1.292   1.168  1.00  0.00     0.080 C 
ENDROOT
BRANCH   1   2
ATOM      2  C   UNL     1      10.742  -0.644   0.525  1.00  0.00     0.130 C 
ATOM      3  C   UNL     1      10.900   0.364  -0.558  1.00  0.00     0.087 C 
ATOM      4  O   UNL     1       9.606  -0.925   0.871  1.00  0.00    -0.300 OA
ENDBRANCH   1   2
BRANCH   1   5
ATOM      5  C   UNL     1      12.825  -1.937   0.137  1.00  0.00     0.043 C 
BRANCH   5   6
ATOM      6  C   UNL     1      12.138  -3.016  -0.595  1.00  0.00    -0.044 A 
ATOM      7  C   UNL     1      12.759  -3.699  -1.646  1.00  0.00     0.008 A 
ATOM      8  C   UNL     1      10.855  -3.371  -0.242  1.00  0.00     0.054 A 
ATOM      9  C   UNL     1      12.065  -4.704  -2.296  1.00  0.00     0.051 A 
ATOM     10  C   UNL     1      10.159  -4.388  -0.901  1.00  0.00     0.166 A 
ATOM     11  C   UNL     1      10.769  -5.060  -1.937  1.00  0.00     0.165 A 
ATOM     12  O   UNL     1       8.896  -4.918  -0.741  1.00  0.00    -0.454 OA
ATOM     13  O   UNL     1       9.859  -5.999  -2.396  1.00  0.00    -0.454 OA
ATOM     14  C   UNL     1       8.693  -6.005  -1.607  1.00  0.00     0.468 C 
ENDBRANCH   5   6
ENDBRANCH   1   5
TORSDOF 3
ENDMDL
MODEL 3
REMARK VINA RESULT:      -3.5      2.691      3.358
REMARK SMILES CC(=O)CCc1ccc2c(c1)OCO2
REMARK SMILES IDX 4 1 2 2 1 3 3 4 5 5 6 6 7 7 11 8 8 9 10 10 9 11 12 12 14 13
REMARK SMILES IDX 13 14
REMARK H PARENT
REMARK Flexibility Score: inf
ROOT
ATOM      1  C   UNL     1       9.969  -5.335  -2.523  1.00  0.00     0.080 C 
ENDROOT
BRANCH   1   2
ATOM      2  C   UNL     1       9.100  -5.791  -1.403  1.00  0.00     0.130 C 
ATOM      3  C   UNL     1       8.764  -7.227  -1.211  1.00  0.00     0.087 C 
ATOM      4  O   UNL     1       8.637  -4.993  -0.604  1.00  0.00    -0.300 OA
ENDBRANCH   1   2
BRANCH   1   5
ATOM      5  C   UNL     1      11.407  -5.168  -2.073  1.00  0.00     0.043 C 
BRANCH   5   6
ATOM      6  C   UNL     1      11.614  -3.890  -1.369  1.00  0.00    -0.044 A 
ATOM      7  C   UNL     1      12.548  -3.766  -0.334  1.00  0.00     0.008 A 
ATOM      8  C   UNL     1      10.879  -2.784  -1.731  1.00  0.00     0.054 A 
ATOM      9  C   UNL     1      12.700  -2.542   0.290  1.00  0.00     0.051 A 
ATOM     10  C   UNL     1      11.037  -1.548  -1.098  1.00  0.00     0.166 A 
ATOM     11  C   UNL     1      11.955  -1.426  -0.079  1.00  0.00     0.165 A 
ATOM     12  O   UNL     1      10.436  -0.320  -1.272  1.00  0.00    -0.454 OA
ATOM     13  O   UNL     1      11.898  -0.111   0.356  1.00  0.00    -0.454 OA
ATOM     14  C   UNL     1      11.013   0.648  -0.433  1.00  0.00     0.468 C 
ENDBRANCH   5   6
ENDBRANCH   1   5
TORSDOF 3
ENDMDL
MODEL 4
REMARK VINA RESULT:      -3.5      1.706      5.269
REMARK SMILES CC(=O)CCc1ccc2c(c1)OCO2
REMARK SMILES IDX 4 1 2 2 1 3 3 4 5 5 6 6 7 7 11 8 8 9 10 10 9 11 12 12 14 13
REMARK SMILES IDX 13 14
REMARK H PARENT
REMARK Flexibility Score: inf
ROOT
ATOM      1  C   UNL     1       7.460  -0.929   2.172  1.00  0.00     0.080 C 
ENDROOT
BRANCH   1   2
ATOM      2  C   UNL     1       6.078  -0.626   1.705  1.00  0.00     0.130 C 
ATOM      3  C   UNL     1       5.445   0.698   1.944  1.00  0.00     0.087 C 
ATOM      4  O   UNL     1       5.421  -1.464   1.108  1.00  0.00    -0.300 OA
ENDBRANCH   1   2
BRANCH   1   5
ATOM      5  C   UNL     1       7.908  -2.302   1.712  1.00  0.00     0.043 C 
BRANCH   5   6
ATOM      6  C   UNL     1       9.218  -2.251   1.039  1.00  0.00    -0.044 A 
ATOM      7  C   UNL     1      10.008  -1.096   1.058  1.00  0.00     0.008 A 
ATOM      8  C   UNL     1       9.687  -3.362   0.375  1.00  0.00     0.054 A 
ATOM      9  C   UNL     1      11.230  -1.108   0.409  1.00  0.00     0.051 A 
ATOM     10  C   UNL     1      10.923  -3.369  -0.279  1.00  0.00     0.166 A 
ATOM     11  C   UNL     1      11.700  -2.233  -0.262  1.00  0.00     0.165 A 
ATOM     12  O   UNL     1      11.600  -4.331  -0.998  1.00  0.00    -0.454 OA
ATOM     13  O   UNL     1      12.851  -2.524  -0.978  1.00  0.00    -0.454 OA
ATOM     14  C   UNL     1      12.869  -3.871  -1.385  1.00  0.00     0.468 C 
ENDBRANCH   5   6
ENDBRANCH   1   5
TORSDOF 3
ENDMDL
MODEL 5
REMARK VINA RESULT:      -3.5      2.042      5.699
REMARK SMILES CC(=O)CCc1ccc2c(c1)OCO2
REMARK SMILES IDX 4 1 2 2 1 3 3 4 5 5 6 6 7 7 11 8 8 9 10 10 9 11 12 12 14 13
REMARK SMILES IDX 13 14
REMARK H PARENT
REMARK Flexibility Score: inf
ROOT
ATOM      1  C   UNL     1       6.740  -1.131   1.954  1.00  0.00     0.080 C 
ENDROOT
BRANCH   1   2
ATOM      2  C   UNL     1       5.784   0.010   1.985  1.00  0.00     0.130 C 
ATOM      3  C   UNL     1       6.197   1.386   1.599  1.00  0.00     0.087 C 
ATOM      4  O   UNL     1       4.625  -0.152   2.332  1.00  0.00    -0.300 OA
ENDBRANCH   1   2
BRANCH   1   5
ATOM      5  C   UNL     1       8.176  -0.646   1.945  1.00  0.00     0.043 C 
BRANCH   5   6
ATOM      6  C   UNL     1       9.069  -1.593   1.254  1.00  0.00    -0.044 A 
ATOM      7  C   UNL     1       8.705  -2.929   1.052  1.00  0.00     0.008 A 
ATOM      8  C   UNL     1      10.292  -1.164   0.790  1.00  0.00     0.054 A 
ATOM      9  C   UNL     1       9.583  -3.772   0.396  1.00  0.00     0.051 A 
ATOM     10  C   UNL     1      11.176  -2.020   0.127  1.00  0.00     0.166 A 
ATOM     11  C   UNL     1      10.819  -3.335  -0.071  1.00  0.00     0.165 A 
ATOM     12  O   UNL     1      12.428  -1.837  -0.420  1.00  0.00    -0.454 OA
ATOM     13  O   UNL     1      11.870  -3.939  -0.744  1.00  0.00    -0.454 OA
ATOM     14  C   UNL     1      12.872  -3.004  -1.065  1.00  0.00     0.468 C 
ENDBRANCH   5   6
ENDBRANCH   1   5
TORSDOF 3
ENDMDL
