@<TRIPOS>MOLECULE
/home/cewinharhar/GITHUB/reincatalyze/data/processed/docking_pred/2023-May-31-1438_sub9_nm5_bs15_s42_ex16_mel10_mts1000_k50_ec05_g099_lra9e-4_lrc3e-3/a8cbf1bb962d04eb60783bb2dc55df042853f03a_ligand_9.pdbqt
 14 15 0 0 0
SMALL
GASTEIGER

@<TRIPOS>ATOM
      1  C          9.9690   -5.3350   -2.5230 C.3     1  UNL1        0.0800
      2  C          9.1000   -5.7910   -1.4030 C.2     1  UNL1        0.1300
      3  C          8.7640   -7.2270   -1.2110 C.3     1  UNL1        0.0870
      4  O          8.6370   -4.9930   -0.6040 O.2     1  UNL1       -0.3000
      5  C         11.4070   -5.1680   -2.0730 C.3     1  UNL1        0.0430
      6  C         11.6140   -3.8900   -1.3690 C.2     1  UNL1       -0.0440
      7  C         12.5480   -3.7660   -0.3340 C.2     1  UNL1        0.0080
      8  C         10.8790   -2.7840   -1.7310 C.2     1  UNL1        0.0540
      9  C         12.7000   -2.5420    0.2900 C.2     1  UNL1        0.0510
     10  C         11.0370   -1.5480   -1.0980 C.2     1  UNL1        0.1660
     11  C         11.9550   -1.4260   -0.0790 C.2     1  UNL1        0.1650
     12  O         10.4360   -0.3200   -1.2720 O.2     1  UNL1       -0.4540
     13  O         11.8980   -0.1110    0.3560 O.2     1  UNL1       -0.4540
     14  C         11.0130    0.6480   -0.4330 C.3     1  UNL1        0.4680
@<TRIPOS>BOND
     1     1     5    1
     2     1     2    1
     3     5     6    1
     4     8     6    2
     5     8    10    1
     6     2     3    1
     7     2     4    2
     8     6     7    1
     9    12    10    1
    10    12    14    1
    11    10    11    2
    12    14    13    1
    13     7     9    2
    14    11     9    1
    15    11    13    1
