@<TRIPOS>MOLECULE
/home/cewinharhar/GITHUB/reincatalyze/data/processed/docking_pred/2023-May-31-1438_sub9_nm5_bs15_s42_ex16_mel10_mts1000_k50_ec05_g099_lra9e-4_lrc3e-3/a991e05863b38587be5f018959c733685726fb49_ligand_9.pdbqt
 14 15 0 0 0
SMALL
GASTEIGER

@<TRIPOS>ATOM
      1  C          6.3590    1.2190    0.8870 C.3     1  UNL1        0.0800
      2  C          5.6530    0.4090    1.9190 C.2     1  UNL1        0.1300
      3  C          6.2580   -0.8230    2.4930 C.3     1  UNL1        0.0870
      4  O          4.5490    0.7350    2.3250 O.2     1  UNL1       -0.3000
      5  C          5.8450    0.9060   -0.5040 C.3     1  UNL1        0.0430
      6  C          6.8060    0.0940   -1.2720 C.2     1  UNL1       -0.0440
      7  C          7.5050    0.6210   -2.3630 C.2     1  UNL1        0.0080
      8  C          7.0310   -1.2160   -0.9130 C.2     1  UNL1        0.0540
      9  C          8.3950   -0.1880   -3.0450 C.2     1  UNL1        0.0510
     10  C          7.9320   -2.0300   -1.6050 C.2     1  UNL1        0.1660
     11  C          8.6190   -1.5120   -2.6810 C.2     1  UNL1        0.1650
     12  O          8.3240   -3.3430   -1.4490 O.2     1  UNL1       -0.4540
     13  O          9.4290   -2.5280   -3.1660 O.2     1  UNL1       -0.4540
     14  C          9.3410   -3.6780   -2.3590 C.3     1  UNL1        0.4680
@<TRIPOS>BOND
     1    13    11    1
     2    13    14    1
     3     9    11    2
     4     9     7    1
     5    11    10    1
     6     7     6    2
     7    14    12    1
     8    10    12    1
     9    10     8    2
    10     6     8    1
    11     6     5    1
    12     5     1    1
    13     1     2    1
    14     2     4    2
    15     2     3    1
