MODEL 1
REMARK VINA RESULT:      -7.6      0.000      0.000
REMARK SMILES CC(=O)CCc1ccc2c(c1)OCO2
REMARK SMILES IDX 4 1 2 2 1 3 3 4 5 5 6 6 7 7 11 8 8 9 10 10 9 11 12 12 14 13
REMARK SMILES IDX 13 14
REMARK H PARENT
REMARK Flexibility Score: inf
ROOT
ATOM      1  C   UNL     1       5.562   1.872   1.285  1.00  0.00     0.080 C 
ENDROOT
BRANCH   1   2
ATOM      2  C   UNL     1       5.107   0.655   2.014  1.00  0.00     0.130 C 
ATOM      3  C   UNL     1       5.991  -0.529   2.186  1.00  0.00     0.087 C 
ATOM      4  O   UNL     1       3.987   0.596   2.495  1.00  0.00    -0.300 OA
ENDBRANCH   1   2
BRANCH   1   5
ATOM      5  C   UNL     1       5.424   1.698  -0.215  1.00  0.00     0.043 C 
BRANCH   5   6
ATOM      6  C   UNL     1       6.585   0.999  -0.794  1.00  0.00    -0.044 A 
ATOM      7  C   UNL     1       7.893   1.444  -0.573  1.00  0.00     0.008 A 
ATOM      8  C   UNL     1       6.390  -0.121  -1.570  1.00  0.00     0.054 A 
ATOM      9  C   UNL     1       8.944   0.747  -1.141  1.00  0.00     0.051 A 
ATOM     10  C   UNL     1       7.456  -0.822  -2.142  1.00  0.00     0.166 A 
ATOM     11  C   UNL     1       8.743  -0.384  -1.926  1.00  0.00     0.165 A 
ATOM     12  O   UNL     1       7.522  -1.945  -2.940  1.00  0.00    -0.454 OA
ATOM     13  O   UNL     1       9.582  -1.257  -2.602  1.00  0.00    -0.454 OA
ATOM     14  C   UNL     1       8.855  -2.313  -3.183  1.00  0.00     0.468 C 
ENDBRANCH   5   6
ENDBRANCH   1   5
TORSDOF 3
ENDMDL
MODEL 2
REMARK VINA RESULT:      -7.5      1.909      2.363
REMARK SMILES CC(=O)CCc1ccc2c(c1)OCO2
REMARK SMILES IDX 4 1 2 2 1 3 3 4 5 5 6 6 7 7 11 8 8 9 10 10 9 11 12 12 14 13
REMARK SMILES IDX 13 14
REMARK H PARENT
REMARK Flexibility Score: inf
ROOT
ATOM      1  C   UNL     1       5.704   1.331  -0.307  1.00  0.00     0.080 C 
ENDROOT
BRANCH   1   2
ATOM      2  C   UNL     1       5.101   1.266   1.053  1.00  0.00     0.130 C 
ATOM      3  C   UNL     1       5.374   0.132   1.975  1.00  0.00     0.087 C 
ATOM      4  O   UNL     1       4.359   2.149   1.452  1.00  0.00    -0.300 OA
ENDBRANCH   1   2
BRANCH   1   5
ATOM      5  C   UNL     1       7.203   1.109  -0.256  1.00  0.00     0.043 C 
BRANCH   5   6
ATOM      6  C   UNL     1       7.585  -0.180  -0.861  1.00  0.00    -0.044 A 
ATOM      7  C   UNL     1       7.659  -0.344  -2.249  1.00  0.00     0.008 A 
ATOM      8  C   UNL     1       7.881  -1.253  -0.052  1.00  0.00     0.054 A 
ATOM      9  C   UNL     1       8.024  -1.577  -2.760  1.00  0.00     0.051 A 
ATOM     10  C   UNL     1       8.251  -2.496  -0.573  1.00  0.00     0.166 A 
ATOM     11  C   UNL     1       8.322  -2.659  -1.939  1.00  0.00     0.165 A 
ATOM     12  O   UNL     1       8.587  -3.698   0.012  1.00  0.00    -0.454 OA
ATOM     13  O   UNL     1       8.706  -3.972  -2.166  1.00  0.00    -0.454 OA
ATOM     14  C   UNL     1       8.973  -4.640  -0.956  1.00  0.00     0.468 C 
ENDBRANCH   5   6
ENDBRANCH   1   5
TORSDOF 3
ENDMDL
MODEL 3
REMARK VINA RESULT:      -7.2      2.080      2.606
REMARK SMILES CC(=O)CCc1ccc2c(c1)OCO2
REMARK SMILES IDX 4 1 2 2 1 3 3 4 5 5 6 6 7 7 11 8 8 9 10 10 9 11 12 12 14 13
REMARK SMILES IDX 13 14
REMARK H PARENT
REMARK Flexibility Score: inf
ROOT
ATOM      1  C   UNL     1       5.587   0.034   1.943  1.00  0.00     0.080 C 
ENDROOT
BRANCH   1   2
ATOM      2  C   UNL     1       4.683   1.175   1.628  1.00  0.00     0.130 C 
ATOM      3  C   UNL     1       4.966   2.107   0.504  1.00  0.00     0.087 C 
ATOM      4  O   UNL     1       3.677   1.378   2.288  1.00  0.00    -0.300 OA
ENDBRANCH   1   2
BRANCH   1   5
ATOM      5  C   UNL     1       6.995   0.292   1.443  1.00  0.00     0.043 C 
BRANCH   5   6
ATOM      6  C   UNL     1       7.397  -0.682   0.414  1.00  0.00    -0.044 A 
ATOM      7  C   UNL     1       7.299  -0.389  -0.951  1.00  0.00     0.008 A 
ATOM      8  C   UNL     1       7.885  -1.912   0.792  1.00  0.00     0.054 A 
ATOM      9  C   UNL     1       7.692  -1.343  -1.873  1.00  0.00     0.051 A 
ATOM     10  C   UNL     1       8.282  -2.873  -0.143  1.00  0.00     0.166 A 
ATOM     11  C   UNL     1       8.184  -2.586  -1.487  1.00  0.00     0.165 A 
ATOM     12  O   UNL     1       8.790  -4.149  -0.022  1.00  0.00    -0.454 OA
ATOM     13  O   UNL     1       8.640  -3.702  -2.169  1.00  0.00    -0.454 OA
ATOM     14  C   UNL     1       9.119  -4.682  -1.279  1.00  0.00     0.468 C 
ENDBRANCH   5   6
ENDBRANCH   1   5
TORSDOF 3
ENDMDL
MODEL 4
REMARK VINA RESULT:      -7.1      1.234      1.426
REMARK SMILES CC(=O)CCc1ccc2c(c1)OCO2
REMARK SMILES IDX 4 1 2 2 1 3 3 4 5 5 6 6 7 7 11 8 8 9 10 10 9 11 12 12 14 13
REMARK SMILES IDX 13 14
REMARK H PARENT
REMARK Flexibility Score: inf
ROOT
ATOM      1  C   UNL     1       6.359   1.219   0.887  1.00  0.00     0.080 C 
ENDROOT
BRANCH   1   2
ATOM      2  C   UNL     1       5.653   0.409   1.919  1.00  0.00     0.130 C 
ATOM      3  C   UNL     1       6.258  -0.823   2.493  1.00  0.00     0.087 C 
ATOM      4  O   UNL     1       4.549   0.735   2.325  1.00  0.00    -0.300 OA
ENDBRANCH   1   2
BRANCH   1   5
ATOM      5  C   UNL     1       5.845   0.906  -0.504  1.00  0.00     0.043 C 
BRANCH   5   6
ATOM      6  C   UNL     1       6.806   0.094  -1.272  1.00  0.00    -0.044 A 
ATOM      7  C   UNL     1       7.505   0.621  -2.363  1.00  0.00     0.008 A 
ATOM      8  C   UNL     1       7.031  -1.216  -0.913  1.00  0.00     0.054 A 
ATOM      9  C   UNL     1       8.395  -0.188  -3.045  1.00  0.00     0.051 A 
ATOM     10  C   UNL     1       7.932  -2.030  -1.605  1.00  0.00     0.166 A 
ATOM     11  C   UNL     1       8.619  -1.512  -2.681  1.00  0.00     0.165 A 
ATOM     12  O   UNL     1       8.324  -3.343  -1.449  1.00  0.00    -0.454 OA
ATOM     13  O   UNL     1       9.429  -2.528  -3.166  1.00  0.00    -0.454 OA
ATOM     14  C   UNL     1       9.341  -3.678  -2.359  1.00  0.00     0.468 C 
ENDBRANCH   5   6
ENDBRANCH   1   5
TORSDOF 3
ENDMDL
MODEL 5
REMARK VINA RESULT:      -7.0      1.955      2.533
REMARK SMILES CC(=O)CCc1ccc2c(c1)OCO2
REMARK SMILES IDX 4 1 2 2 1 3 3 4 5 5 6 6 7 7 11 8 8 9 10 10 9 11 12 12 14 13
REMARK SMILES IDX 13 14
REMARK H PARENT
REMARK Flexibility Score: inf
ROOT
ATOM      1  C   UNL     1       6.901   0.850   1.265  1.00  0.00     0.080 C 
ENDROOT
BRANCH   1   2
ATOM      2  C   UNL     1       5.462   1.193   1.446  1.00  0.00     0.130 C 
ATOM      3  C   UNL     1       4.768   2.150   0.543  1.00  0.00     0.087 C 
ATOM      4  O   UNL     1       4.808   0.693   2.347  1.00  0.00    -0.300 OA
ENDBRANCH   1   2
BRANCH   1   5
ATOM      5  C   UNL     1       7.330   1.020  -0.179  1.00  0.00     0.043 C 
BRANCH   5   6
ATOM      6  C   UNL     1       7.655  -0.272  -0.808  1.00  0.00    -0.044 A 
ATOM      7  C   UNL     1       7.655  -0.431  -2.199  1.00  0.00     0.008 A 
ATOM      8  C   UNL     1       7.970  -1.355  -0.019  1.00  0.00     0.054 A 
ATOM      9  C   UNL     1       7.969  -1.667  -2.733  1.00  0.00     0.051 A 
ATOM     10  C   UNL     1       8.287  -2.603  -0.564  1.00  0.00     0.166 A 
ATOM     11  C   UNL     1       8.286  -2.760  -1.932  1.00  0.00     0.165 A 
ATOM     12  O   UNL     1       8.629  -3.814  -0.002  1.00  0.00    -0.454 OA
ATOM     13  O   UNL     1       8.632  -4.079  -2.184  1.00  0.00    -0.454 OA
ATOM     14  C   UNL     1       8.946  -4.758  -0.992  1.00  0.00     0.468 C 
ENDBRANCH   5   6
ENDBRANCH   1   5
TORSDOF 3
ENDMDL
