@<TRIPOS>MOLECULE
/home/cewinharhar/GITHUB/reincatalyze/data/processed/docking_pred/2023-May-31-1438_sub9_nm5_bs15_s42_ex16_mel10_mts1000_k50_ec05_g099_lra9e-4_lrc3e-3/a991e05863b38587be5f018959c733685726fb49_ligand_9.pdbqt
 14 15 0 0 0
SMALL
GASTEIGER

@<TRIPOS>ATOM
      1  C          5.7040    1.3310   -0.3070 C.3     1  UNL1        0.0800
      2  C          5.1010    1.2660    1.0530 C.2     1  UNL1        0.1300
      3  C          5.3740    0.1320    1.9750 C.3     1  UNL1        0.0870
      4  O          4.3590    2.1490    1.4520 O.2     1  UNL1       -0.3000
      5  C          7.2030    1.1090   -0.2560 C.3     1  UNL1        0.0430
      6  C          7.5850   -0.1800   -0.8610 C.2     1  UNL1       -0.0440
      7  C          7.6590   -0.3440   -2.2490 C.2     1  UNL1        0.0080
      8  C          7.8810   -1.2530   -0.0520 C.2     1  UNL1        0.0540
      9  C          8.0240   -1.5770   -2.7600 C.2     1  UNL1        0.0510
     10  C          8.2510   -2.4960   -0.5730 C.2     1  UNL1        0.1660
     11  C          8.3220   -2.6590   -1.9390 C.2     1  UNL1        0.1650
     12  O          8.5870   -3.6980    0.0120 O.2     1  UNL1       -0.4540
     13  O          8.7060   -3.9720   -2.1660 O.2     1  UNL1       -0.4540
     14  C          8.9730   -4.6400   -0.9560 C.3     1  UNL1        0.4680
@<TRIPOS>BOND
     1     9     7    1
     2     9    11    2
     3     7     6    2
     4    13    11    1
     5    13    14    1
     6    11    10    1
     7    14    12    1
     8     6     5    1
     9     6     8    1
    10    10     8    2
    11    10    12    1
    12     1     5    1
    13     1     2    1
    14     2     4    2
    15     2     3    1
