MODEL 1
REMARK VINA RESULT:      -7.6      0.000      0.000
REMARK SMILES CC(=O)CCc1ccc2c(c1)OCO2
REMARK SMILES IDX 4 1 2 2 1 3 3 4 5 5 6 6 7 7 11 8 8 9 10 10 9 11 12 12 14 13
REMARK SMILES IDX 13 14
REMARK H PARENT
REMARK Flexibility Score: inf
ROOT
ATOM      1  C   UNL     1       5.581   1.868   1.307  1.00  0.00     0.080 C 
ENDROOT
BRANCH   1   2
ATOM      2  C   UNL     1       5.131   0.647   2.032  1.00  0.00     0.130 C 
ATOM      3  C   UNL     1       6.018  -0.535   2.196  1.00  0.00     0.087 C 
ATOM      4  O   UNL     1       4.011   0.581   2.514  1.00  0.00    -0.300 OA
ENDBRANCH   1   2
BRANCH   1   5
ATOM      5  C   UNL     1       5.436   1.703  -0.193  1.00  0.00     0.043 C 
BRANCH   5   6
ATOM      6  C   UNL     1       6.594   1.006  -0.780  1.00  0.00    -0.044 A 
ATOM      7  C   UNL     1       7.903   1.453  -0.567  1.00  0.00     0.008 A 
ATOM      8  C   UNL     1       6.395  -0.113  -1.556  1.00  0.00     0.054 A 
ATOM      9  C   UNL     1       8.951   0.758  -1.143  1.00  0.00     0.051 A 
ATOM     10  C   UNL     1       7.458  -0.813  -2.135  1.00  0.00     0.166 A 
ATOM     11  C   UNL     1       8.747  -0.373  -1.928  1.00  0.00     0.165 A 
ATOM     12  O   UNL     1       7.520  -1.934  -2.934  1.00  0.00    -0.454 OA
ATOM     13  O   UNL     1       9.582  -1.244  -2.610  1.00  0.00    -0.454 OA
ATOM     14  C   UNL     1       8.853  -2.300  -3.187  1.00  0.00     0.468 C 
ENDBRANCH   5   6
ENDBRANCH   1   5
TORSDOF 3
ENDMDL
MODEL 2
REMARK VINA RESULT:      -7.4      1.897      2.340
REMARK SMILES CC(=O)CCc1ccc2c(c1)OCO2
REMARK SMILES IDX 4 1 2 2 1 3 3 4 5 5 6 6 7 7 11 8 8 9 10 10 9 11 12 12 14 13
REMARK SMILES IDX 13 14
REMARK H PARENT
REMARK Flexibility Score: inf
ROOT
ATOM      1  C   UNL     1       5.719   1.405  -0.266  1.00  0.00     0.080 C 
ENDROOT
BRANCH   1   2
ATOM      2  C   UNL     1       5.088   1.283   1.078  1.00  0.00     0.130 C 
ATOM      3  C   UNL     1       5.425   0.165   2.000  1.00  0.00     0.087 C 
ATOM      4  O   UNL     1       4.271   2.103   1.463  1.00  0.00    -0.300 OA
ENDBRANCH   1   2
BRANCH   1   5
ATOM      5  C   UNL     1       7.213   1.156  -0.198  1.00  0.00     0.043 C 
BRANCH   5   6
ATOM      6  C   UNL     1       7.582  -0.130  -0.815  1.00  0.00    -0.044 A 
ATOM      7  C   UNL     1       7.633  -0.288  -2.204  1.00  0.00     0.008 A 
ATOM      8  C   UNL     1       7.887  -1.208  -0.015  1.00  0.00     0.054 A 
ATOM      9  C   UNL     1       7.987  -1.519  -2.727  1.00  0.00     0.051 A 
ATOM     10  C   UNL     1       8.245  -2.450  -0.548  1.00  0.00     0.166 A 
ATOM     11  C   UNL     1       8.294  -2.607  -1.915  1.00  0.00     0.165 A 
ATOM     12  O   UNL     1       8.586  -3.656   0.026  1.00  0.00    -0.454 OA
ATOM     13  O   UNL     1       8.671  -3.919  -2.155  1.00  0.00    -0.454 OA
ATOM     14  C   UNL     1       8.954  -4.594  -0.952  1.00  0.00     0.468 C 
ENDBRANCH   5   6
ENDBRANCH   1   5
TORSDOF 3
ENDMDL
MODEL 3
REMARK VINA RESULT:      -7.2      2.030      2.601
REMARK SMILES CC(=O)CCc1ccc2c(c1)OCO2
REMARK SMILES IDX 4 1 2 2 1 3 3 4 5 5 6 6 7 7 11 8 8 9 10 10 9 11 12 12 14 13
REMARK SMILES IDX 13 14
REMARK H PARENT
REMARK Flexibility Score: inf
ROOT
ATOM      1  C   UNL     1       5.421  -0.031   2.082  1.00  0.00     0.080 C 
ENDROOT
BRANCH   1   2
ATOM      2  C   UNL     1       4.543   1.137   1.790  1.00  0.00     0.130 C 
ATOM      3  C   UNL     1       4.878   2.117   0.723  1.00  0.00     0.087 C 
ATOM      4  O   UNL     1       3.517   1.324   2.424  1.00  0.00    -0.300 OA
ENDBRANCH   1   2
BRANCH   1   5
ATOM      5  C   UNL     1       6.848   0.230   1.645  1.00  0.00     0.043 C 
BRANCH   5   6
ATOM      6  C   UNL     1       7.269  -0.691   0.575  1.00  0.00    -0.044 A 
ATOM      7  C   UNL     1       7.138  -0.353  -0.777  1.00  0.00     0.008 A 
ATOM      8  C   UNL     1       7.808  -1.915   0.901  1.00  0.00     0.054 A 
ATOM      9  C   UNL     1       7.551  -1.258  -1.738  1.00  0.00     0.051 A 
ATOM     10  C   UNL     1       8.224  -2.826  -0.075  1.00  0.00     0.166 A 
ATOM     11  C   UNL     1       8.095  -2.495  -1.405  1.00  0.00     0.165 A 
ATOM     12  O   UNL     1       8.781  -4.086  -0.008  1.00  0.00    -0.454 OA
ATOM     13  O   UNL     1       8.580  -3.568  -2.135  1.00  0.00    -0.454 OA
ATOM     14  C   UNL     1       9.109  -4.561  -1.288  1.00  0.00     0.468 C 
ENDBRANCH   5   6
ENDBRANCH   1   5
TORSDOF 3
ENDMDL
MODEL 4
REMARK VINA RESULT:      -7.1      1.977      2.545
REMARK SMILES CC(=O)CCc1ccc2c(c1)OCO2
REMARK SMILES IDX 4 1 2 2 1 3 3 4 5 5 6 6 7 7 11 8 8 9 10 10 9 11 12 12 14 13
REMARK SMILES IDX 13 14
REMARK H PARENT
REMARK Flexibility Score: inf
ROOT
ATOM      1  C   UNL     1       6.807   0.726   1.384  1.00  0.00     0.080 C 
ENDROOT
BRANCH   1   2
ATOM      2  C   UNL     1       5.382   1.156   1.450  1.00  0.00     0.130 C 
ATOM      3  C   UNL     1       4.821   2.149   0.496  1.00  0.00     0.087 C 
ATOM      4  O   UNL     1       4.629   0.701   2.296  1.00  0.00    -0.300 OA
ENDBRANCH   1   2
BRANCH   1   5
ATOM      5  C   UNL     1       7.387   0.956   0.002  1.00  0.00     0.043 C 
BRANCH   5   6
ATOM      6  C   UNL     1       7.696  -0.314  -0.679  1.00  0.00    -0.044 A 
ATOM      7  C   UNL     1       7.687  -0.418  -2.075  1.00  0.00     0.008 A 
ATOM      8  C   UNL     1       8.003  -1.430   0.065  1.00  0.00     0.054 A 
ATOM      9  C   UNL     1       7.985  -1.635  -2.659  1.00  0.00     0.051 A 
ATOM     10  C   UNL     1       8.305  -2.659  -0.531  1.00  0.00     0.166 A 
ATOM     11  C   UNL     1       8.295  -2.762  -1.904  1.00  0.00     0.165 A 
ATOM     12  O   UNL     1       8.637  -3.895  -0.018  1.00  0.00    -0.454 OA
ATOM     13  O   UNL     1       8.626  -4.073  -2.209  1.00  0.00    -0.454 OA
ATOM     14  C   UNL     1       8.939  -4.802  -1.047  1.00  0.00     0.468 C 
ENDBRANCH   5   6
ENDBRANCH   1   5
TORSDOF 3
ENDMDL
MODEL 5
REMARK VINA RESULT:      -7.1      1.245      1.455
REMARK SMILES CC(=O)CCc1ccc2c(c1)OCO2
REMARK SMILES IDX 4 1 2 2 1 3 3 4 5 5 6 6 7 7 11 8 8 9 10 10 9 11 12 12 14 13
REMARK SMILES IDX 13 14
REMARK H PARENT
REMARK Flexibility Score: inf
ROOT
ATOM      1  C   UNL     1       6.379   1.171   0.898  1.00  0.00     0.080 C 
ENDROOT
BRANCH   1   2
ATOM      2  C   UNL     1       5.673   0.362   1.929  1.00  0.00     0.130 C 
ATOM      3  C   UNL     1       6.278  -0.868   2.506  1.00  0.00     0.087 C 
ATOM      4  O   UNL     1       4.569   0.688   2.334  1.00  0.00    -0.300 OA
ENDBRANCH   1   2
BRANCH   1   5
ATOM      5  C   UNL     1       5.865   0.860  -0.494  1.00  0.00     0.043 C 
BRANCH   5   6
ATOM      6  C   UNL     1       6.827   0.051  -1.264  1.00  0.00    -0.044 A 
ATOM      7  C   UNL     1       7.524   0.583  -2.355  1.00  0.00     0.008 A 
ATOM      8  C   UNL     1       7.055  -1.259  -0.909  1.00  0.00     0.054 A 
ATOM      9  C   UNL     1       8.415  -0.223  -3.039  1.00  0.00     0.051 A 
ATOM     10  C   UNL     1       7.958  -2.070  -1.604  1.00  0.00     0.166 A 
ATOM     11  C   UNL     1       8.643  -1.547  -2.678  1.00  0.00     0.165 A 
ATOM     12  O   UNL     1       8.353  -3.381  -1.450  1.00  0.00    -0.454 OA
ATOM     13  O   UNL     1       9.454  -2.559  -3.166  1.00  0.00    -0.454 OA
ATOM     14  C   UNL     1       9.370  -3.712  -2.362  1.00  0.00     0.468 C 
ENDBRANCH   5   6
ENDBRANCH   1   5
TORSDOF 3
ENDMDL
