MODEL 1
REMARK VINA RESULT:      -7.6      0.000      0.000
REMARK SMILES CC(=O)CCc1ccc2c(c1)OCO2
REMARK SMILES IDX 4 1 2 2 1 3 3 4 5 5 6 6 7 7 11 8 8 9 10 10 9 11 12 12 14 13
REMARK SMILES IDX 13 14
REMARK H PARENT
REMARK Flexibility Score: inf
ROOT
ATOM      1  C   UNL     1       5.530   1.940   1.257  1.00  0.00     0.080 C 
ENDROOT
BRANCH   1   2
ATOM      2  C   UNL     1       5.113   0.720   2.002  1.00  0.00     0.130 C 
ATOM      3  C   UNL     1       6.032  -0.435   2.189  1.00  0.00     0.087 C 
ATOM      4  O   UNL     1       3.995   0.632   2.485  1.00  0.00    -0.300 OA
ENDBRANCH   1   2
BRANCH   1   5
ATOM      5  C   UNL     1       5.403   1.740  -0.240  1.00  0.00     0.043 C 
BRANCH   5   6
ATOM      6  C   UNL     1       6.569   1.032  -0.798  1.00  0.00    -0.044 A 
ATOM      7  C   UNL     1       7.878   1.454  -0.537  1.00  0.00     0.008 A 
ATOM      8  C   UNL     1       6.378  -0.075  -1.594  1.00  0.00     0.054 A 
ATOM      9  C   UNL     1       8.933   0.749  -1.087  1.00  0.00     0.051 A 
ATOM     10  C   UNL     1       7.448  -0.785  -2.147  1.00  0.00     0.166 A 
ATOM     11  C   UNL     1       8.736  -0.369  -1.892  1.00  0.00     0.165 A 
ATOM     12  O   UNL     1       7.519  -1.898  -2.958  1.00  0.00    -0.454 OA
ATOM     13  O   UNL     1       9.580  -1.245  -2.557  1.00  0.00    -0.454 OA
ATOM     14  C   UNL     1       8.853  -2.282  -3.171  1.00  0.00     0.468 C 
ENDBRANCH   5   6
ENDBRANCH   1   5
TORSDOF 3
ENDMDL
MODEL 2
REMARK VINA RESULT:      -7.5      1.949      2.404
REMARK SMILES CC(=O)CCc1ccc2c(c1)OCO2
REMARK SMILES IDX 4 1 2 2 1 3 3 4 5 5 6 6 7 7 11 8 8 9 10 10 9 11 12 12 14 13
REMARK SMILES IDX 13 14
REMARK H PARENT
REMARK Flexibility Score: inf
ROOT
ATOM      1  C   UNL     1       5.739   1.325  -0.299  1.00  0.00     0.080 C 
ENDROOT
BRANCH   1   2
ATOM      2  C   UNL     1       5.144   1.245   1.064  1.00  0.00     0.130 C 
ATOM      3  C   UNL     1       5.369   0.070   1.947  1.00  0.00     0.087 C 
ATOM      4  O   UNL     1       4.449   2.150   1.498  1.00  0.00    -0.300 OA
ENDBRANCH   1   2
BRANCH   1   5
ATOM      5  C   UNL     1       7.238   1.098  -0.259  1.00  0.00     0.043 C 
BRANCH   5   6
ATOM      6  C   UNL     1       7.610  -0.198  -0.853  1.00  0.00    -0.044 A 
ATOM      7  C   UNL     1       7.677  -0.377  -2.240  1.00  0.00     0.008 A 
ATOM      8  C   UNL     1       7.905  -1.264  -0.034  1.00  0.00     0.054 A 
ATOM      9  C   UNL     1       8.034  -1.616  -2.740  1.00  0.00     0.051 A 
ATOM     10  C   UNL     1       8.265  -2.515  -0.544  1.00  0.00     0.166 A 
ATOM     11  C   UNL     1       8.330  -2.692  -1.909  1.00  0.00     0.165 A 
ATOM     12  O   UNL     1       8.599  -3.712   0.052  1.00  0.00    -0.454 OA
ATOM     13  O   UNL     1       8.706  -4.009  -2.124  1.00  0.00    -0.454 OA
ATOM     14  C   UNL     1       8.975  -4.666  -0.909  1.00  0.00     0.468 C 
ENDBRANCH   5   6
ENDBRANCH   1   5
TORSDOF 3
ENDMDL
MODEL 3
REMARK VINA RESULT:      -7.2      2.093      2.627
REMARK SMILES CC(=O)CCc1ccc2c(c1)OCO2
REMARK SMILES IDX 4 1 2 2 1 3 3 4 5 5 6 6 7 7 11 8 8 9 10 10 9 11 12 12 14 13
REMARK SMILES IDX 13 14
REMARK H PARENT
REMARK Flexibility Score: inf
ROOT
ATOM      1  C   UNL     1       5.620   0.003   1.970  1.00  0.00     0.080 C 
ENDROOT
BRANCH   1   2
ATOM      2  C   UNL     1       4.695   1.126   1.652  1.00  0.00     0.130 C 
ATOM      3  C   UNL     1       4.950   2.050   0.515  1.00  0.00     0.087 C 
ATOM      4  O   UNL     1       3.693   1.322   2.322  1.00  0.00    -0.300 OA
ENDBRANCH   1   2
BRANCH   1   5
ATOM      5  C   UNL     1       7.016   0.275   1.447  1.00  0.00     0.043 C 
BRANCH   5   6
ATOM      6  C   UNL     1       7.411  -0.698   0.413  1.00  0.00    -0.044 A 
ATOM      7  C   UNL     1       7.294  -0.406  -0.951  1.00  0.00     0.008 A 
ATOM      8  C   UNL     1       7.912  -1.925   0.786  1.00  0.00     0.054 A 
ATOM      9  C   UNL     1       7.681  -1.358  -1.877  1.00  0.00     0.051 A 
ATOM     10  C   UNL     1       8.303  -2.883  -0.154  1.00  0.00     0.166 A 
ATOM     11  C   UNL     1       8.186  -2.598  -1.496  1.00  0.00     0.165 A 
ATOM     12  O   UNL     1       8.821  -4.156  -0.039  1.00  0.00    -0.454 OA
ATOM     13  O   UNL     1       8.641  -3.712  -2.184  1.00  0.00    -0.454 OA
ATOM     14  C   UNL     1       9.137  -4.688  -1.299  1.00  0.00     0.468 C 
ENDBRANCH   5   6
ENDBRANCH   1   5
TORSDOF 3
ENDMDL
MODEL 4
REMARK VINA RESULT:      -7.1      1.244      1.446
REMARK SMILES CC(=O)CCc1ccc2c(c1)OCO2
REMARK SMILES IDX 4 1 2 2 1 3 3 4 5 5 6 6 7 7 11 8 8 9 10 10 9 11 12 12 14 13
REMARK SMILES IDX 13 14
REMARK H PARENT
REMARK Flexibility Score: inf
ROOT
ATOM      1  C   UNL     1       6.357   1.242   0.900  1.00  0.00     0.080 C 
ENDROOT
BRANCH   1   2
ATOM      2  C   UNL     1       5.665   0.411   1.925  1.00  0.00     0.130 C 
ATOM      3  C   UNL     1       6.300  -0.803   2.504  1.00  0.00     0.087 C 
ATOM      4  O   UNL     1       4.549   0.706   2.321  1.00  0.00    -0.300 OA
ENDBRANCH   1   2
BRANCH   1   5
ATOM      5  C   UNL     1       5.844   0.937  -0.493  1.00  0.00     0.043 C 
BRANCH   5   6
ATOM      6  C   UNL     1       6.800   0.120  -1.262  1.00  0.00    -0.044 A 
ATOM      7  C   UNL     1       7.495   0.643  -2.358  1.00  0.00     0.008 A 
ATOM      8  C   UNL     1       7.024  -1.188  -0.900  1.00  0.00     0.054 A 
ATOM      9  C   UNL     1       8.380  -0.171  -3.041  1.00  0.00     0.051 A 
ATOM     10  C   UNL     1       7.920  -2.007  -1.593  1.00  0.00     0.166 A 
ATOM     11  C   UNL     1       8.604  -1.494  -2.673  1.00  0.00     0.165 A 
ATOM     12  O   UNL     1       8.311  -3.319  -1.433  1.00  0.00    -0.454 OA
ATOM     13  O   UNL     1       9.409  -2.512  -3.158  1.00  0.00    -0.454 OA
ATOM     14  C   UNL     1       9.323  -3.659  -2.346  1.00  0.00     0.468 C 
ENDBRANCH   5   6
ENDBRANCH   1   5
TORSDOF 3
ENDMDL
MODEL 5
REMARK VINA RESULT:      -6.8      1.264      1.758
REMARK SMILES CC(=O)CCc1ccc2c(c1)OCO2
REMARK SMILES IDX 4 1 2 2 1 3 3 4 5 5 6 6 7 7 11 8 8 9 10 10 9 11 12 12 14 13
REMARK SMILES IDX 13 14
REMARK H PARENT
REMARK Flexibility Score: inf
ROOT
ATOM      1  C   UNL     1       5.341  -0.065   1.980  1.00  0.00     0.080 C 
ENDROOT
BRANCH   1   2
ATOM      2  C   UNL     1       4.447   1.111   1.785  1.00  0.00     0.130 C 
ATOM      3  C   UNL     1       4.728   2.142   0.751  1.00  0.00     0.087 C 
ATOM      4  O   UNL     1       3.452   1.262   2.475  1.00  0.00    -0.300 OA
ENDBRANCH   1   2
BRANCH   1   5
ATOM      5  C   UNL     1       6.801   0.335   1.906  1.00  0.00     0.043 C 
BRANCH   5   6
ATOM      6  C   UNL     1       7.402  -0.027   0.610  1.00  0.00    -0.044 A 
ATOM      7  C   UNL     1       7.890   0.946  -0.270  1.00  0.00     0.008 A 
ATOM      8  C   UNL     1       7.493  -1.351   0.246  1.00  0.00     0.054 A 
ATOM      9  C   UNL     1       8.444   0.547  -1.473  1.00  0.00     0.051 A 
ATOM     10  C   UNL     1       8.054  -1.750  -0.970  1.00  0.00     0.166 A 
ATOM     11  C   UNL     1       8.533  -0.793  -1.837  1.00  0.00     0.165 A 
ATOM     12  O   UNL     1       8.255  -2.983  -1.553  1.00  0.00    -0.454 OA
ATOM     13  O   UNL     1       9.025  -1.466  -2.945  1.00  0.00    -0.454 OA
ATOM     14  C   UNL     1       8.951  -2.860  -2.767  1.00  0.00     0.468 C 
ENDBRANCH   5   6
ENDBRANCH   1   5
TORSDOF 3
ENDMDL
