@<TRIPOS>MOLECULE
/home/cewinharhar/GITHUB/reincatalyze/data/processed/docking_pred/2023-May-31-1438_sub9_nm5_bs15_s42_ex16_mel10_mts1000_k50_ec05_g099_lra9e-4_lrc3e-3/ab317eb7565d030be4138c7249420e244018cf00_ligand_9.pdbqt
 14 15 0 0 0
SMALL
GASTEIGER

@<TRIPOS>ATOM
      1  C          5.3410   -0.0650    1.9800 C.3     1  UNL1        0.0800
      2  C          4.4470    1.1110    1.7850 C.2     1  UNL1        0.1300
      3  C          4.7280    2.1420    0.7510 C.3     1  UNL1        0.0870
      4  O          3.4520    1.2620    2.4750 O.2     1  UNL1       -0.3000
      5  C          6.8010    0.3350    1.9060 C.3     1  UNL1        0.0430
      6  C          7.4020   -0.0270    0.6100 C.2     1  UNL1       -0.0440
      7  C          7.8900    0.9460   -0.2700 C.2     1  UNL1        0.0080
      8  C          7.4930   -1.3510    0.2460 C.2     1  UNL1        0.0540
      9  C          8.4440    0.5470   -1.4730 C.2     1  UNL1        0.0510
     10  C          8.0540   -1.7500   -0.9700 C.2     1  UNL1        0.1660
     11  C          8.5330   -0.7930   -1.8370 C.2     1  UNL1        0.1650
     12  O          8.2550   -2.9830   -1.5530 O.2     1  UNL1       -0.4540
     13  O          9.0250   -1.4660   -2.9450 O.2     1  UNL1       -0.4540
     14  C          8.9510   -2.8600   -2.7670 C.3     1  UNL1        0.4680
@<TRIPOS>BOND
     1    13    14    1
     2    13    11    1
     3    14    12    1
     4    11     9    2
     5    11    10    1
     6    12    10    1
     7     9     7    1
     8    10     8    2
     9     7     6    2
    10     8     6    1
    11     6     5    1
    12     3     2    1
    13     2     1    1
    14     2     4    2
    15     5     1    1
