@<TRIPOS>MOLECULE
/home/cewinharhar/GITHUB/reincatalyze/data/processed/docking_pred/2023-May-31-1438_sub9_nm5_bs15_s42_ex16_mel10_mts1000_k50_ec05_g099_lra9e-4_lrc3e-3/ab317eb7565d030be4138c7249420e244018cf00_ligand_9.pdbqt
 14 15 0 0 0
SMALL
GASTEIGER

@<TRIPOS>ATOM
      1  C          5.7390    1.3250   -0.2990 C.3     1  UNL1        0.0800
      2  C          5.1440    1.2450    1.0640 C.2     1  UNL1        0.1300
      3  C          5.3690    0.0700    1.9470 C.3     1  UNL1        0.0870
      4  O          4.4490    2.1500    1.4980 O.2     1  UNL1       -0.3000
      5  C          7.2380    1.0980   -0.2590 C.3     1  UNL1        0.0430
      6  C          7.6100   -0.1980   -0.8530 C.2     1  UNL1       -0.0440
      7  C          7.6770   -0.3770   -2.2400 C.2     1  UNL1        0.0080
      8  C          7.9050   -1.2640   -0.0340 C.2     1  UNL1        0.0540
      9  C          8.0340   -1.6160   -2.7400 C.2     1  UNL1        0.0510
     10  C          8.2650   -2.5150   -0.5440 C.2     1  UNL1        0.1660
     11  C          8.3300   -2.6920   -1.9090 C.2     1  UNL1        0.1650
     12  O          8.5990   -3.7120    0.0520 O.2     1  UNL1       -0.4540
     13  O          8.7060   -4.0090   -2.1240 O.2     1  UNL1       -0.4540
     14  C          8.9750   -4.6660   -0.9090 C.3     1  UNL1        0.4680
@<TRIPOS>BOND
     1     9     7    1
     2     9    11    2
     3     7     6    2
     4    13    11    1
     5    13    14    1
     6    11    10    1
     7    14    12    1
     8     6     5    1
     9     6     8    1
    10    10     8    2
    11    10    12    1
    12     1     5    1
    13     1     2    1
    14     2     4    2
    15     2     3    1
