@<TRIPOS>MOLECULE
/home/cewinharhar/GITHUB/reincatalyze/data/processed/docking_pred/2023-May-31-1438_sub9_nm5_bs15_s42_ex16_mel10_mts1000_k50_ec05_g099_lra9e-4_lrc3e-3/ab317eb7565d030be4138c7249420e244018cf00_ligand_9.pdbqt
 14 15 0 0 0
SMALL
GASTEIGER

@<TRIPOS>ATOM
      1  C          6.3570    1.2420    0.9000 C.3     1  UNL1        0.0800
      2  C          5.6650    0.4110    1.9250 C.2     1  UNL1        0.1300
      3  C          6.3000   -0.8030    2.5040 C.3     1  UNL1        0.0870
      4  O          4.5490    0.7060    2.3210 O.2     1  UNL1       -0.3000
      5  C          5.8440    0.9370   -0.4930 C.3     1  UNL1        0.0430
      6  C          6.8000    0.1200   -1.2620 C.2     1  UNL1       -0.0440
      7  C          7.4950    0.6430   -2.3580 C.2     1  UNL1        0.0080
      8  C          7.0240   -1.1880   -0.9000 C.2     1  UNL1        0.0540
      9  C          8.3800   -0.1710   -3.0410 C.2     1  UNL1        0.0510
     10  C          7.9200   -2.0070   -1.5930 C.2     1  UNL1        0.1660
     11  C          8.6040   -1.4940   -2.6730 C.2     1  UNL1        0.1650
     12  O          8.3110   -3.3190   -1.4330 O.2     1  UNL1       -0.4540
     13  O          9.4090   -2.5120   -3.1580 O.2     1  UNL1       -0.4540
     14  C          9.3230   -3.6590   -2.3460 C.3     1  UNL1        0.4680
@<TRIPOS>BOND
     1    13    11    1
     2    13    14    1
     3     9    11    2
     4     9     7    1
     5    11    10    1
     6     7     6    2
     7    14    12    1
     8    10    12    1
     9    10     8    2
    10     6     8    1
    11     6     5    1
    12     5     1    1
    13     1     2    1
    14     2     4    2
    15     2     3    1
