@<TRIPOS>MOLECULE
/home/cewinharhar/GITHUB/reincatalyze/data/processed/docking_pred/2023-May-31-1438_sub9_nm5_bs15_s42_ex16_mel10_mts1000_k50_ec05_g099_lra9e-4_lrc3e-3/ab5903e155d5198269deee73f32ad6fb308dffee_ligand_9.pdbqt
 14 15 0 0 0
SMALL
GASTEIGER

@<TRIPOS>ATOM
      1  C          6.8410    0.3600    1.0240 C.3     1  UNL1        0.0800
      2  C          5.5160    0.9780    1.3110 C.2     1  UNL1        0.1300
      3  C          4.9610    2.0640    0.4590 C.3     1  UNL1        0.0870
      4  O          4.8440    0.6090    2.2600 O.2     1  UNL1       -0.3000
      5  C          7.4710    0.9590   -0.2180 C.3     1  UNL1        0.0430
      6  C          8.1170   -0.0690   -1.0530 C.2     1  UNL1       -0.0440
      7  C          7.6960   -0.3200   -2.3640 C.2     1  UNL1        0.0080
      8  C          9.1630   -0.8050   -0.5430 C.2     1  UNL1        0.0540
      9  C          8.3410   -1.2960   -3.1010 C.2     1  UNL1        0.0510
     10  C          9.8120   -1.7900   -1.2920 C.2     1  UNL1        0.1660
     11  C          9.3970   -2.0380   -2.5820 C.2     1  UNL1        0.1650
     12  O         10.8580   -2.6440   -1.0150 O.2     1  UNL1       -0.4540
     13  O         10.2070   -3.0490   -3.0760 O.2     1  UNL1       -0.4540
     14  C         11.2050   -3.4000   -2.1470 C.3     1  UNL1        0.4680
@<TRIPOS>BOND
     1     9    11    2
     2     9     7    1
     3    13    11    1
     4    13    14    1
     5    11    10    1
     6     7     6    2
     7    14    12    1
     8    10    12    1
     9    10     8    2
    10     6     8    1
    11     6     5    1
    12     5     1    1
    13     3     2    1
    14     1     2    1
    15     2     4    2
