@<TRIPOS>MOLECULE
/home/cewinharhar/GITHUB/reincatalyze/data/processed/docking_pred/2023-May-31-1438_sub9_nm5_bs15_s42_ex16_mel10_mts1000_k50_ec05_g099_lra9e-4_lrc3e-3/ab5903e155d5198269deee73f32ad6fb308dffee_ligand_9.pdbqt
 14 15 0 0 0
SMALL
GASTEIGER

@<TRIPOS>ATOM
      1  C          6.1410   -0.1130    1.8670 C.3     1  UNL1        0.0800
      2  C          5.0530    0.8900    1.7030 C.2     1  UNL1        0.1300
      3  C          5.0910    1.9140    0.6250 C.3     1  UNL1        0.0870
      4  O          4.0910    0.9010    2.4540 O.2     1  UNL1       -0.3000
      5  C          6.4250   -0.8360    0.5650 C.3     1  UNL1        0.0430
      6  C          7.8450   -0.7340    0.1820 C.2     1  UNL1       -0.0440
      7  C          8.3220    0.3340   -0.5860 C.2     1  UNL1        0.0080
      8  C          8.7310   -1.7060    0.5860 C.2     1  UNL1        0.0540
      9  C          9.6650    0.3770   -0.9150 C.2     1  UNL1        0.0510
     10  C         10.0880   -1.6580    0.2520 C.2     1  UNL1        0.1660
     11  C         10.5590   -0.6080   -0.5050 C.2     1  UNL1        0.1650
     12  O         11.1540   -2.4880    0.5280 O.2     1  UNL1       -0.4540
     13  O         11.9180   -0.8170   -0.6790 O.2     1  UNL1       -0.4540
     14  C         12.3540   -1.9490    0.0350 C.3     1  UNL1        0.4680
@<TRIPOS>BOND
     1     9     7    1
     2     9    11    2
     3    13    11    1
     4    13    14    1
     5     7     6    2
     6    11    10    1
     7    14    12    1
     8     6     5    1
     9     6     8    1
    10    10    12    1
    11    10     8    2
    12     5     1    1
    13     3     2    1
    14     2     1    1
    15     2     4    2
