@<TRIPOS>MOLECULE
/home/cewinharhar/GITHUB/reincatalyze/data/processed/docking_pred/2023-May-31-1438_sub9_nm5_bs15_s42_ex16_mel10_mts1000_k50_ec05_g099_lra9e-4_lrc3e-3/ae2b7ca0e57384ee3cd7889808440c06f68d274f_ligand_9.pdbqt
 14 15 0 0 0
SMALL
GASTEIGER

@<TRIPOS>ATOM
      1  C          6.6000    1.1330    1.1540 C.3     1  UNL1        0.0800
      2  C          5.2750    1.6920    0.7670 C.2     1  UNL1        0.1300
      3  C          4.9950    2.1470   -0.6220 C.3     1  UNL1        0.0870
      4  O          4.3740    1.7930    1.5840 O.2     1  UNL1       -0.3000
      5  C          7.6020    1.2580    0.0240 C.3     1  UNL1        0.0430
      6  C          7.8410   -0.0360   -0.6400 C.2     1  UNL1       -0.0440
      7  C          7.8260   -0.1580   -2.0340 C.2     1  UNL1        0.0080
      8  C          8.0890   -1.1570    0.1190 C.2     1  UNL1        0.0540
      9  C          8.0580   -1.3980   -2.6010 C.2     1  UNL1        0.0510
     10  C          8.3230   -2.4080   -0.4590 C.2     1  UNL1        0.1660
     11  C          8.3070   -2.5290   -1.8310 C.2     1  UNL1        0.1650
     12  O          8.5880   -3.6530    0.0700 O.2     1  UNL1       -0.4540
     13  O          8.5660   -3.8600   -2.1180 O.2     1  UNL1       -0.4540
     14  C          8.8400   -4.5900   -0.9460 C.3     1  UNL1        0.4680
@<TRIPOS>BOND
     1     9     7    1
     2     9    11    2
     3    13    11    1
     4    13    14    1
     5     7     6    2
     6    11    10    1
     7    14    12    1
     8     6     5    1
     9     6     8    1
    10     3     2    1
    11    10    12    1
    12    10     8    2
    13     5     1    1
    14     2     1    1
    15     2     4    2
