@<TRIPOS>MOLECULE
/home/cewinharhar/GITHUB/reincatalyze/data/processed/docking_pred/2023-May-31-1438_sub9_nm5_bs15_s42_ex16_mel10_mts1000_k50_ec05_g099_lra9e-4_lrc3e-3/ae2b7ca0e57384ee3cd7889808440c06f68d274f_ligand_9.pdbqt
 14 15 0 0 0
SMALL
GASTEIGER

@<TRIPOS>ATOM
      1  C          6.3830    1.1760    0.9570 C.3     1  UNL1        0.0800
      2  C          5.6440    0.3620    1.9620 C.2     1  UNL1        0.1300
      3  C          6.2320   -0.8680    2.5560 C.3     1  UNL1        0.0870
      4  O          4.5250    0.6850    2.3290 O.2     1  UNL1       -0.3000
      5  C          5.8710    0.9150   -0.4460 C.3     1  UNL1        0.0430
      6  C          6.8120    0.0910   -1.2260 C.2     1  UNL1       -0.0440
      7  C          7.4770    0.6010   -2.3480 C.2     1  UNL1        0.0080
      8  C          7.0520   -1.2110   -0.8510 C.2     1  UNL1        0.0540
      9  C          8.3490   -0.2190   -3.0400 C.2     1  UNL1        0.0510
     10  C          7.9350   -2.0360   -1.5540 C.2     1  UNL1        0.1660
     11  C          8.5890   -1.5350   -2.6580 C.2     1  UNL1        0.1650
     12  O          8.3370   -3.3440   -1.3850 O.2     1  UNL1       -0.4540
     13  O          9.3870   -2.5570   -3.1480 O.2     1  UNL1       -0.4540
     14  C          9.3270   -3.6920   -2.3180 C.3     1  UNL1        0.4680
@<TRIPOS>BOND
     1    13    11    1
     2    13    14    1
     3     9    11    2
     4     9     7    1
     5    11    10    1
     6     7     6    2
     7    14    12    1
     8    10    12    1
     9    10     8    2
    10     6     8    1
    11     6     5    1
    12     5     1    1
    13     1     2    1
    14     2     4    2
    15     2     3    1
