@<TRIPOS>MOLECULE
/home/cewinharhar/GITHUB/reincatalyze/data/processed/docking_pred/2023-May-31-1438_sub9_nm5_bs15_s42_ex16_mel10_mts1000_k50_ec05_g099_lra9e-4_lrc3e-3/af0dd28332db5651a88784e76b435690c0a42449_ligand_9.pdbqt
 14 15 0 0 0
SMALL
GASTEIGER

@<TRIPOS>ATOM
      1  C          5.5500    1.8790    1.2990 C.3     1  UNL1        0.0800
      2  C          5.1030    0.6560    2.0230 C.2     1  UNL1        0.1300
      3  C          5.9900   -0.5280    2.1770 C.3     1  UNL1        0.0870
      4  O          3.9880    0.5910    2.5130 O.2     1  UNL1       -0.3000
      5  C          5.4140    1.7110   -0.2020 C.3     1  UNL1        0.0430
      6  C          6.5790    1.0180   -0.7820 C.2     1  UNL1       -0.0440
      7  C          7.8860    1.4630   -0.5520 C.2     1  UNL1        0.0080
      8  C          6.3880   -0.0950   -1.5680 C.2     1  UNL1        0.0540
      9  C          8.9390    0.7720   -1.1220 C.2     1  UNL1        0.0510
     10  C          7.4570   -0.7910   -2.1410 C.2     1  UNL1        0.1660
     11  C          8.7430   -0.3530   -1.9160 C.2     1  UNL1        0.1650
     12  O          7.5270   -1.9070   -2.9480 O.2     1  UNL1       -0.4540
     13  O          9.5850   -1.2190   -2.5960 O.2     1  UNL1       -0.4540
     14  C          8.8620   -2.2710   -3.1890 C.3     1  UNL1        0.4680
@<TRIPOS>BOND
     1    14    12    1
     2    14    13    1
     3    12    10    1
     4    13    11    1
     5    10    11    2
     6    10     8    1
     7    11     9    1
     8     8     6    2
     9     9     7    2
    10     6     7    1
    11     6     5    1
    12     5     1    1
    13     1     2    1
    14     2     3    1
    15     2     4    2
