@<TRIPOS>MOLECULE
/home/cewinharhar/GITHUB/reincatalyze/data/processed/docking_pred/2023-May-31-1438_sub9_nm5_bs15_s42_ex16_mel10_mts1000_k50_ec05_g099_lra9e-4_lrc3e-3/af0dd28332db5651a88784e76b435690c0a42449_ligand_9.pdbqt
 14 15 0 0 0
SMALL
GASTEIGER

@<TRIPOS>ATOM
      1  C          6.7410    0.9160    1.4660 C.3     1  UNL1        0.0800
      2  C          5.2790    1.1980    1.5170 C.2     1  UNL1        0.1300
      3  C          4.6340    2.1500    0.5740 C.3     1  UNL1        0.0870
      4  O          4.5630    0.6510    2.3410 O.2     1  UNL1       -0.3000
      5  C          7.3030    1.1730    0.0830 C.3     1  UNL1        0.0430
      6  C          7.6170   -0.0820   -0.6220 C.2     1  UNL1       -0.0440
      7  C          7.5830   -0.1670   -2.0190 C.2     1  UNL1        0.0080
      8  C          7.9560   -1.2040    0.1000 C.2     1  UNL1        0.0540
      9  C          7.8880   -1.3720   -2.6250 C.2     1  UNL1        0.0510
     10  C          8.2640   -2.4190   -0.5180 C.2     1  UNL1        0.1660
     11  C          8.2290   -2.5040   -1.8920 C.2     1  UNL1        0.1650
     12  O          8.6240   -3.6570   -0.0290 O.2     1  UNL1       -0.4540
     13  O          8.5730   -3.8060   -2.2220 O.2     1  UNL1       -0.4540
     14  C          8.9200   -4.5460   -1.0760 C.3     1  UNL1        0.4680
@<TRIPOS>BOND
     1     9     7    1
     2     9    11    2
     3    13    11    1
     4    13    14    1
     5     7     6    2
     6    11    10    1
     7    14    12    1
     8     6     5    1
     9     6     8    1
    10    10    12    1
    11    10     8    2
    12     5     1    1
    13     3     2    1
    14     1     2    1
    15     2     4    2
