@<TRIPOS>MOLECULE
/home/cewinharhar/GITHUB/reincatalyze/data/processed/docking_pred/2023-May-31-1438_sub9_nm5_bs15_s42_ex16_mel10_mts1000_k50_ec05_g099_lra9e-4_lrc3e-3/af895cae38f50b8ad608cacdd29f7ae1ddca485c_ligand_9.pdbqt
 14 15 0 0 0
SMALL
GASTEIGER

@<TRIPOS>ATOM
      1  C          5.5350    1.8920    1.2900 C.3     1  UNL1        0.0800
      2  C          5.0930    0.6680    2.0160 C.2     1  UNL1        0.1300
      3  C          5.9850   -0.5120    2.1720 C.3     1  UNL1        0.0870
      4  O          3.9780    0.5990    2.5070 O.2     1  UNL1       -0.3000
      5  C          5.4050    1.7180   -0.2100 C.3     1  UNL1        0.0430
      6  C          6.5690    1.0180   -0.7820 C.2     1  UNL1       -0.0440
      7  C          7.8770    1.4540   -0.5420 C.2     1  UNL1        0.0080
      8  C          6.3770   -0.0940   -1.5710 C.2     1  UNL1        0.0540
      9  C          8.9310    0.7570   -1.1050 C.2     1  UNL1        0.0510
     10  C          7.4460   -0.7950   -2.1360 C.2     1  UNL1        0.1660
     11  C          8.7330   -0.3660   -1.9020 C.2     1  UNL1        0.1650
     12  O          7.5150   -1.9110   -2.9440 O.2     1  UNL1       -0.4540
     13  O          9.5750   -1.2370   -2.5760 O.2     1  UNL1       -0.4540
     14  C          8.8490   -2.2840   -3.1750 C.3     1  UNL1        0.4680
@<TRIPOS>BOND
     1    14    12    1
     2    14    13    1
     3    12    10    1
     4    13    11    1
     5    10    11    2
     6    10     8    1
     7    11     9    1
     8     8     6    2
     9     9     7    2
    10     6     7    1
    11     6     5    1
    12     5     1    1
    13     1     2    1
    14     2     3    1
    15     2     4    2
