MODEL 1
REMARK VINA RESULT:      -7.6      0.000      0.000
REMARK SMILES CC(=O)CCc1ccc2c(c1)OCO2
REMARK SMILES IDX 4 1 2 2 1 3 3 4 5 5 6 6 7 7 11 8 8 9 10 10 9 11 12 12 14 13
REMARK SMILES IDX 13 14
REMARK H PARENT
REMARK Flexibility Score: inf
ROOT
ATOM      1  C   UNL     1       5.525   1.927   1.252  1.00  0.00     0.080 C 
ENDROOT
BRANCH   1   2
ATOM      2  C   UNL     1       5.092   0.714   2.000  1.00  0.00     0.130 C 
ATOM      3  C   UNL     1       5.995  -0.454   2.184  1.00  0.00     0.087 C 
ATOM      4  O   UNL     1       3.975   0.643   2.487  1.00  0.00    -0.300 OA
ENDBRANCH   1   2
BRANCH   1   5
ATOM      5  C   UNL     1       5.398   1.725  -0.245  1.00  0.00     0.043 C 
BRANCH   5   6
ATOM      6  C   UNL     1       6.566   1.020  -0.803  1.00  0.00    -0.044 A 
ATOM      7  C   UNL     1       7.873   1.453  -0.549  1.00  0.00     0.008 A 
ATOM      8  C   UNL     1       6.379  -0.092  -1.591  1.00  0.00     0.054 A 
ATOM      9  C   UNL     1       8.930   0.751  -1.099  1.00  0.00     0.051 A 
ATOM     10  C   UNL     1       7.452  -0.799  -2.144  1.00  0.00     0.166 A 
ATOM     11  C   UNL     1       8.738  -0.373  -1.896  1.00  0.00     0.165 A 
ATOM     12  O   UNL     1       7.527  -1.916  -2.948  1.00  0.00    -0.454 OA
ATOM     13  O   UNL     1       9.585  -1.248  -2.559  1.00  0.00    -0.454 OA
ATOM     14  C   UNL     1       8.862  -2.294  -3.164  1.00  0.00     0.468 C 
ENDBRANCH   5   6
ENDBRANCH   1   5
TORSDOF 3
ENDMDL
MODEL 2
REMARK VINA RESULT:      -7.4      1.878      2.316
REMARK SMILES CC(=O)CCc1ccc2c(c1)OCO2
REMARK SMILES IDX 4 1 2 2 1 3 3 4 5 5 6 6 7 7 11 8 8 9 10 10 9 11 12 12 14 13
REMARK SMILES IDX 13 14
REMARK H PARENT
REMARK Flexibility Score: inf
ROOT
ATOM      1  C   UNL     1       5.546   1.314  -0.191  1.00  0.00     0.080 C 
ENDROOT
BRANCH   1   2
ATOM      2  C   UNL     1       5.026   1.221   1.202  1.00  0.00     0.130 C 
ATOM      3  C   UNL     1       5.456   0.137   2.125  1.00  0.00     0.087 C 
ATOM      4  O   UNL     1       4.226   2.037   1.628  1.00  0.00    -0.300 OA
ENDBRANCH   1   2
BRANCH   1   5
ATOM      5  C   UNL     1       7.053   1.155  -0.228  1.00  0.00     0.043 C 
BRANCH   5   6
ATOM      6  C   UNL     1       7.452  -0.130  -0.830  1.00  0.00    -0.044 A 
ATOM      7  C   UNL     1       7.453  -0.320  -2.217  1.00  0.00     0.008 A 
ATOM      8  C   UNL     1       7.837  -1.173  -0.019  1.00  0.00     0.054 A 
ATOM      9  C   UNL     1       7.839  -1.547  -2.725  1.00  0.00     0.051 A 
ATOM     10  C   UNL     1       8.226  -2.412  -0.538  1.00  0.00     0.166 A 
ATOM     11  C   UNL     1       8.227  -2.600  -1.902  1.00  0.00     0.165 A 
ATOM     12  O   UNL     1       8.644  -3.587   0.049  1.00  0.00    -0.454 OA
ATOM     13  O   UNL     1       8.650  -3.901  -2.127  1.00  0.00    -0.454 OA
ATOM     14  C   UNL     1       9.012  -4.533  -0.922  1.00  0.00     0.468 C 
ENDBRANCH   5   6
ENDBRANCH   1   5
TORSDOF 3
ENDMDL
MODEL 3
REMARK VINA RESULT:      -7.2      2.091      2.619
REMARK SMILES CC(=O)CCc1ccc2c(c1)OCO2
REMARK SMILES IDX 4 1 2 2 1 3 3 4 5 5 6 6 7 7 11 8 8 9 10 10 9 11 12 12 14 13
REMARK SMILES IDX 13 14
REMARK H PARENT
REMARK Flexibility Score: inf
ROOT
ATOM      1  C   UNL     1       5.566   0.001   1.915  1.00  0.00     0.080 C 
ENDROOT
BRANCH   1   2
ATOM      2  C   UNL     1       4.677   1.162   1.631  1.00  0.00     0.130 C 
ATOM      3  C   UNL     1       4.956   2.104   0.514  1.00  0.00     0.087 C 
ATOM      4  O   UNL     1       3.688   1.376   2.313  1.00  0.00    -0.300 OA
ENDBRANCH   1   2
BRANCH   1   5
ATOM      5  C   UNL     1       6.981   0.261   1.438  1.00  0.00     0.043 C 
BRANCH   5   6
ATOM      6  C   UNL     1       7.396  -0.706   0.407  1.00  0.00    -0.044 A 
ATOM      7  C   UNL     1       7.318  -0.403  -0.957  1.00  0.00     0.008 A 
ATOM      8  C   UNL     1       7.877  -1.940   0.783  1.00  0.00     0.054 A 
ATOM      9  C   UNL     1       7.723  -1.350  -1.880  1.00  0.00     0.051 A 
ATOM     10  C   UNL     1       8.285  -2.894  -0.154  1.00  0.00     0.166 A 
ATOM     11  C   UNL     1       8.208  -2.597  -1.496  1.00  0.00     0.165 A 
ATOM     12  O   UNL     1       8.790  -4.172  -0.035  1.00  0.00    -0.454 OA
ATOM     13  O   UNL     1       8.672  -3.709  -2.181  1.00  0.00    -0.454 OA
ATOM     14  C   UNL     1       9.136  -4.696  -1.292  1.00  0.00     0.468 C 
ENDBRANCH   5   6
ENDBRANCH   1   5
TORSDOF 3
ENDMDL
MODEL 4
REMARK VINA RESULT:      -7.1      1.260      1.473
REMARK SMILES CC(=O)CCc1ccc2c(c1)OCO2
REMARK SMILES IDX 4 1 2 2 1 3 3 4 5 5 6 6 7 7 11 8 8 9 10 10 9 11 12 12 14 13
REMARK SMILES IDX 13 14
REMARK H PARENT
REMARK Flexibility Score: inf
ROOT
ATOM      1  C   UNL     1       6.405   1.197   0.933  1.00  0.00     0.080 C 
ENDROOT
BRANCH   1   2
ATOM      2  C   UNL     1       5.667   0.376   1.934  1.00  0.00     0.130 C 
ATOM      3  C   UNL     1       6.261  -0.852   2.526  1.00  0.00     0.087 C 
ATOM      4  O   UNL     1       4.546   0.692   2.299  1.00  0.00    -0.300 OA
ENDBRANCH   1   2
BRANCH   1   5
ATOM      5  C   UNL     1       5.903   0.931  -0.473  1.00  0.00     0.043 C 
BRANCH   5   6
ATOM      6  C   UNL     1       6.844   0.096  -1.240  1.00  0.00    -0.044 A 
ATOM      7  C   UNL     1       7.533   0.597  -2.350  1.00  0.00     0.008 A 
ATOM      8  C   UNL     1       7.060  -1.210  -0.863  1.00  0.00     0.054 A 
ATOM      9  C   UNL     1       8.404  -0.233  -3.031  1.00  0.00     0.051 A 
ATOM     10  C   UNL     1       7.942  -2.046  -1.554  1.00  0.00     0.166 A 
ATOM     11  C   UNL     1       8.619  -1.554  -2.648  1.00  0.00     0.165 A 
ATOM     12  O   UNL     1       8.322  -3.360  -1.381  1.00  0.00    -0.454 OA
ATOM     13  O   UNL     1       9.411  -2.586  -3.127  1.00  0.00    -0.454 OA
ATOM     14  C   UNL     1       9.322  -3.721  -2.300  1.00  0.00     0.468 C 
ENDBRANCH   5   6
ENDBRANCH   1   5
TORSDOF 3
ENDMDL
MODEL 5
REMARK VINA RESULT:      -6.8      1.260      1.753
REMARK SMILES CC(=O)CCc1ccc2c(c1)OCO2
REMARK SMILES IDX 4 1 2 2 1 3 3 4 5 5 6 6 7 7 11 8 8 9 10 10 9 11 12 12 14 13
REMARK SMILES IDX 13 14
REMARK H PARENT
REMARK Flexibility Score: inf
ROOT
ATOM      1  C   UNL     1       5.320  -0.067   1.974  1.00  0.00     0.080 C 
ENDROOT
BRANCH   1   2
ATOM      2  C   UNL     1       4.439   1.119   1.786  1.00  0.00     0.130 C 
ATOM      3  C   UNL     1       4.727   2.150   0.753  1.00  0.00     0.087 C 
ATOM      4  O   UNL     1       3.448   1.280   2.479  1.00  0.00    -0.300 OA
ENDBRANCH   1   2
BRANCH   1   5
ATOM      5  C   UNL     1       6.784   0.320   1.909  1.00  0.00     0.043 C 
BRANCH   5   6
ATOM      6  C   UNL     1       7.387  -0.038   0.612  1.00  0.00    -0.044 A 
ATOM      7  C   UNL     1       7.875   0.939  -0.263  1.00  0.00     0.008 A 
ATOM      8  C   UNL     1       7.479  -1.361   0.244  1.00  0.00     0.054 A 
ATOM      9  C   UNL     1       8.431   0.544  -1.467  1.00  0.00     0.051 A 
ATOM     10  C   UNL     1       8.042  -1.755  -0.973  1.00  0.00     0.166 A 
ATOM     11  C   UNL     1       8.522  -0.795  -1.836  1.00  0.00     0.165 A 
ATOM     12  O   UNL     1       8.245  -2.986  -1.560  1.00  0.00    -0.454 OA
ATOM     13  O   UNL     1       9.015  -1.463  -2.945  1.00  0.00    -0.454 OA
ATOM     14  C   UNL     1       8.942  -2.858  -2.772  1.00  0.00     0.468 C 
ENDBRANCH   5   6
ENDBRANCH   1   5
TORSDOF 3
ENDMDL
