@<TRIPOS>MOLECULE
/home/cewinharhar/GITHUB/reincatalyze/data/processed/docking_pred/2023-May-31-1438_sub9_nm5_bs15_s42_ex16_mel10_mts1000_k50_ec05_g099_lra9e-4_lrc3e-3/b0dbf451e4e891e0fb60bf6ca530f921e690d9da_ligand_9.pdbqt
 14 15 0 0 0
SMALL
GASTEIGER

@<TRIPOS>ATOM
      1  C          7.0400    1.0300    1.1200 C.3     1  UNL1        0.0800
      2  C          5.5740    1.1680    1.3490 C.2     1  UNL1        0.1300
      3  C          4.7550    2.1490    0.5890 C.3     1  UNL1        0.0870
      4  O          5.0010    0.4750    2.1740 O.2     1  UNL1       -0.3000
      5  C          7.3780    1.1300   -0.3550 C.3     1  UNL1        0.0430
      6  C          7.7270   -0.1820   -0.9260 C.2     1  UNL1       -0.0440
      7  C          7.8420   -0.3730   -2.3080 C.2     1  UNL1        0.0080
      8  C          7.9510   -1.2530   -0.0900 C.2     1  UNL1        0.0540
      9  C          8.1730   -1.6280   -2.7870 C.2     1  UNL1        0.0510
     10  C          8.2870   -2.5190   -0.5790 C.2     1  UNL1        0.1660
     11  C          8.3980   -2.7080   -1.9390 C.2     1  UNL1        0.1650
     12  O          8.5530   -3.7230    0.0360 O.2     1  UNL1       -0.4540
     13  O          8.7360   -4.0380   -2.1320 O.2     1  UNL1       -0.4540
     14  C          8.9330   -4.6960   -0.9030 C.3     1  UNL1        0.4680
@<TRIPOS>BOND
     1     9     7    1
     2     9    11    2
     3     7     6    2
     4    13    11    1
     5    13    14    1
     6    11    10    1
     7     6     5    1
     8     6     8    1
     9    14    12    1
    10    10     8    2
    11    10    12    1
    12     5     1    1
    13     3     2    1
    14     1     2    1
    15     2     4    2
