MODEL 1
REMARK VINA RESULT:      -7.6      0.000      0.000
REMARK SMILES CC(=O)CCc1ccc2c(c1)OCO2
REMARK SMILES IDX 4 1 2 2 1 3 3 4 5 5 6 6 7 7 11 8 8 9 10 10 9 11 12 12 14 13
REMARK SMILES IDX 13 14
REMARK H PARENT
REMARK Flexibility Score: inf
ROOT
ATOM      1  C   UNL     1       5.540   1.935   1.267  1.00  0.00     0.080 C 
ENDROOT
BRANCH   1   2
ATOM      2  C   UNL     1       5.128   0.714   2.015  1.00  0.00     0.130 C 
ATOM      3  C   UNL     1       6.049  -0.440   2.192  1.00  0.00     0.087 C 
ATOM      4  O   UNL     1       4.014   0.626   2.505  1.00  0.00    -0.300 OA
ENDBRANCH   1   2
BRANCH   1   5
ATOM      5  C   UNL     1       5.408   1.735  -0.229  1.00  0.00     0.043 C 
BRANCH   5   6
ATOM      6  C   UNL     1       6.575   1.032  -0.791  1.00  0.00    -0.044 A 
ATOM      7  C   UNL     1       7.883   1.456  -0.530  1.00  0.00     0.008 A 
ATOM      8  C   UNL     1       6.385  -0.072  -1.592  1.00  0.00     0.054 A 
ATOM      9  C   UNL     1       8.939   0.755  -1.084  1.00  0.00     0.051 A 
ATOM     10  C   UNL     1       7.456  -0.777  -2.149  1.00  0.00     0.166 A 
ATOM     11  C   UNL     1       8.744  -0.360  -1.894  1.00  0.00     0.165 A 
ATOM     12  O   UNL     1       7.528  -1.886  -2.965  1.00  0.00    -0.454 OA
ATOM     13  O   UNL     1       9.588  -1.231  -2.564  1.00  0.00    -0.454 OA
ATOM     14  C   UNL     1       8.863  -2.267  -3.181  1.00  0.00     0.468 C 
ENDBRANCH   5   6
ENDBRANCH   1   5
TORSDOF 3
ENDMDL
MODEL 2
REMARK VINA RESULT:      -7.4      1.958      2.437
REMARK SMILES CC(=O)CCc1ccc2c(c1)OCO2
REMARK SMILES IDX 4 1 2 2 1 3 3 4 5 5 6 6 7 7 11 8 8 9 10 10 9 11 12 12 14 13
REMARK SMILES IDX 13 14
REMARK H PARENT
REMARK Flexibility Score: inf
ROOT
ATOM      1  C   UNL     1       5.736   1.279  -0.319  1.00  0.00     0.080 C 
ENDROOT
BRANCH   1   2
ATOM      2  C   UNL     1       5.130   1.235   1.041  1.00  0.00     0.130 C 
ATOM      3  C   UNL     1       5.349   0.084   1.956  1.00  0.00     0.087 C 
ATOM      4  O   UNL     1       4.430   2.150   1.445  1.00  0.00    -0.300 OA
ENDBRANCH   1   2
BRANCH   1   5
ATOM      5  C   UNL     1       7.232   1.042  -0.263  1.00  0.00     0.043 C 
BRANCH   5   6
ATOM      6  C   UNL     1       7.603  -0.250  -0.867  1.00  0.00    -0.044 A 
ATOM      7  C   UNL     1       7.642  -0.427  -2.254  1.00  0.00     0.008 A 
ATOM      8  C   UNL     1       7.923  -1.315  -0.055  1.00  0.00     0.054 A 
ATOM      9  C   UNL     1       7.999  -1.663  -2.764  1.00  0.00     0.051 A 
ATOM     10  C   UNL     1       8.284  -2.562  -0.575  1.00  0.00     0.166 A 
ATOM     11  C   UNL     1       8.321  -2.737  -1.940  1.00  0.00     0.165 A 
ATOM     12  O   UNL     1       8.639  -3.758   0.012  1.00  0.00    -0.454 OA
ATOM     13  O   UNL     1       8.704  -4.050  -2.166  1.00  0.00    -0.454 OA
ATOM     14  C   UNL     1       9.004  -4.707  -0.957  1.00  0.00     0.468 C 
ENDBRANCH   5   6
ENDBRANCH   1   5
TORSDOF 3
ENDMDL
MODEL 3
REMARK VINA RESULT:      -7.1      2.078      2.624
REMARK SMILES CC(=O)CCc1ccc2c(c1)OCO2
REMARK SMILES IDX 4 1 2 2 1 3 3 4 5 5 6 6 7 7 11 8 8 9 10 10 9 11 12 12 14 13
REMARK SMILES IDX 13 14
REMARK H PARENT
REMARK Flexibility Score: inf
ROOT
ATOM      1  C   UNL     1       5.549   0.023   1.991  1.00  0.00     0.080 C 
ENDROOT
BRANCH   1   2
ATOM      2  C   UNL     1       4.654   1.165   1.656  1.00  0.00     0.130 C 
ATOM      3  C   UNL     1       4.964   2.098   0.539  1.00  0.00     0.087 C 
ATOM      4  O   UNL     1       3.634   1.370   2.293  1.00  0.00    -0.300 OA
ENDBRANCH   1   2
BRANCH   1   5
ATOM      5  C   UNL     1       6.965   0.273   1.512  1.00  0.00     0.043 C 
BRANCH   5   6
ATOM      6  C   UNL     1       7.366  -0.684   0.466  1.00  0.00    -0.044 A 
ATOM      7  C   UNL     1       7.245  -0.377  -0.895  1.00  0.00     0.008 A 
ATOM      8  C   UNL     1       7.874  -1.912   0.823  1.00  0.00     0.054 A 
ATOM      9  C   UNL     1       7.638  -1.315  -1.832  1.00  0.00     0.051 A 
ATOM     10  C   UNL     1       8.270  -2.857  -0.129  1.00  0.00     0.166 A 
ATOM     11  C   UNL     1       8.150  -2.556  -1.467  1.00  0.00     0.165 A 
ATOM     12  O   UNL     1       8.796  -4.128  -0.029  1.00  0.00    -0.454 OA
ATOM     13  O   UNL     1       8.611  -3.658  -2.169  1.00  0.00    -0.454 OA
ATOM     14  C   UNL     1       9.114  -4.642  -1.297  1.00  0.00     0.468 C 
ENDBRANCH   5   6
ENDBRANCH   1   5
TORSDOF 3
ENDMDL
MODEL 4
REMARK VINA RESULT:      -7.0      1.263      1.489
REMARK SMILES CC(=O)CCc1ccc2c(c1)OCO2
REMARK SMILES IDX 4 1 2 2 1 3 3 4 5 5 6 6 7 7 11 8 8 9 10 10 9 11 12 12 14 13
REMARK SMILES IDX 13 14
REMARK H PARENT
REMARK Flexibility Score: inf
ROOT
ATOM      1  C   UNL     1       6.384   1.171   0.925  1.00  0.00     0.080 C 
ENDROOT
BRANCH   1   2
ATOM      2  C   UNL     1       5.670   0.342   1.936  1.00  0.00     0.130 C 
ATOM      3  C   UNL     1       6.269  -0.901   2.491  1.00  0.00     0.087 C 
ATOM      4  O   UNL     1       4.564   0.663   2.340  1.00  0.00    -0.300 OA
ENDBRANCH   1   2
BRANCH   1   5
ATOM      5  C   UNL     1       5.874   0.891  -0.475  1.00  0.00     0.043 C 
BRANCH   5   6
ATOM      6  C   UNL     1       6.823   0.071  -1.249  1.00  0.00    -0.044 A 
ATOM      7  C   UNL     1       7.506   0.588  -2.356  1.00  0.00     0.008 A 
ATOM      8  C   UNL     1       7.053  -1.235  -0.881  1.00  0.00     0.054 A 
ATOM      9  C   UNL     1       8.385  -0.229  -3.043  1.00  0.00     0.051 A 
ATOM     10  C   UNL     1       7.944  -2.057  -1.579  1.00  0.00     0.166 A 
ATOM     11  C   UNL     1       8.615  -1.550  -2.669  1.00  0.00     0.165 A 
ATOM     12  O   UNL     1       8.338  -3.368  -1.415  1.00  0.00    -0.454 OA
ATOM     13  O   UNL     1       9.417  -2.570  -3.156  1.00  0.00    -0.454 OA
ATOM     14  C   UNL     1       9.341  -3.712  -2.336  1.00  0.00     0.468 C 
ENDBRANCH   5   6
ENDBRANCH   1   5
TORSDOF 3
ENDMDL
MODEL 5
REMARK VINA RESULT:      -6.9      1.959      2.535
REMARK SMILES CC(=O)CCc1ccc2c(c1)OCO2
REMARK SMILES IDX 4 1 2 2 1 3 3 4 5 5 6 6 7 7 11 8 8 9 10 10 9 11 12 12 14 13
REMARK SMILES IDX 13 14
REMARK H PARENT
REMARK Flexibility Score: inf
ROOT
ATOM      1  C   UNL     1       7.040   1.030   1.120  1.00  0.00     0.080 C 
ENDROOT
BRANCH   1   2
ATOM      2  C   UNL     1       5.574   1.168   1.349  1.00  0.00     0.130 C 
ATOM      3  C   UNL     1       4.755   2.149   0.589  1.00  0.00     0.087 C 
ATOM      4  O   UNL     1       5.001   0.475   2.174  1.00  0.00    -0.300 OA
ENDBRANCH   1   2
BRANCH   1   5
ATOM      5  C   UNL     1       7.378   1.130  -0.355  1.00  0.00     0.043 C 
BRANCH   5   6
ATOM      6  C   UNL     1       7.727  -0.182  -0.926  1.00  0.00    -0.044 A 
ATOM      7  C   UNL     1       7.842  -0.373  -2.308  1.00  0.00     0.008 A 
ATOM      8  C   UNL     1       7.951  -1.253  -0.090  1.00  0.00     0.054 A 
ATOM      9  C   UNL     1       8.173  -1.628  -2.787  1.00  0.00     0.051 A 
ATOM     10  C   UNL     1       8.287  -2.519  -0.579  1.00  0.00     0.166 A 
ATOM     11  C   UNL     1       8.398  -2.708  -1.939  1.00  0.00     0.165 A 
ATOM     12  O   UNL     1       8.553  -3.723   0.036  1.00  0.00    -0.454 OA
ATOM     13  O   UNL     1       8.736  -4.038  -2.132  1.00  0.00    -0.454 OA
ATOM     14  C   UNL     1       8.933  -4.696  -0.903  1.00  0.00     0.468 C 
ENDBRANCH   5   6
ENDBRANCH   1   5
TORSDOF 3
ENDMDL
