@<TRIPOS>MOLECULE
/home/cewinharhar/GITHUB/reincatalyze/data/processed/docking_pred/2023-May-31-1438_sub9_nm5_bs15_s42_ex16_mel10_mts1000_k50_ec05_g099_lra9e-4_lrc3e-3/b3ccd1df948aefc26948fdc9bbc960af2f6fd47d_ligand_9.pdbqt
 14 15 0 0 0
SMALL
GASTEIGER

@<TRIPOS>ATOM
      1  C          5.5320   -0.0220    1.9450 C.3     1  UNL1        0.0800
      2  C          4.6550    1.1440    1.6480 C.2     1  UNL1        0.1300
      3  C          4.9510    2.0800    0.5310 C.3     1  UNL1        0.0870
      4  O          3.6600    1.3670    2.3190 O.2     1  UNL1       -0.3000
      5  C          6.9530    0.2240    1.4770 C.3     1  UNL1        0.0430
      6  C          7.3590   -0.7350    0.4340 C.2     1  UNL1       -0.0440
      7  C          7.2350   -0.4350   -0.9270 C.2     1  UNL1        0.0080
      8  C          7.8760   -1.9580    0.7970 C.2     1  UNL1        0.0540
      9  C          7.6330   -1.3740   -1.8600 C.2     1  UNL1        0.0510
     10  C          8.2770   -2.9040   -0.1510 C.2     1  UNL1        0.1660
     11  C          8.1550   -2.6100   -1.4900 C.2     1  UNL1        0.1650
     12  O          8.8120   -4.1710   -0.0460 O.2     1  UNL1       -0.4540
     13  O          8.6230   -3.7130   -2.1870 O.2     1  UNL1       -0.4540
     14  C          9.1330   -4.6890   -1.3110 C.3     1  UNL1        0.4680
@<TRIPOS>BOND
     1    13    11    1
     2    13    14    1
     3     9    11    2
     4     9     7    1
     5    11    10    1
     6    14    12    1
     7     7     6    2
     8    10    12    1
     9    10     8    2
    10     6     8    1
    11     6     5    1
    12     3     2    1
    13     5     1    1
    14     2     1    1
    15     2     4    2
