@<TRIPOS>MOLECULE
/home/cewinharhar/GITHUB/reincatalyze/data/processed/docking_pred/2023-May-31-1438_sub9_nm5_bs15_s42_ex16_mel10_mts1000_k50_ec05_g099_lra9e-4_lrc3e-3/b3efa5aa79561967f2a1346927635c3d7bfec8a2_ligand_9.pdbqt
 14 15 0 0 0
SMALL
GASTEIGER

@<TRIPOS>ATOM
      1  C          5.8670    1.7020    2.1850 C.3     1  UNL1        0.0800
      2  C          4.8820    1.9560    1.0980 C.2     1  UNL1        0.1300
      3  C          5.3100    2.1480   -0.3140 C.3     1  UNL1        0.0870
      4  O          3.6870    2.0160    1.3360 O.2     1  UNL1       -0.3000
      5  C          5.8110    0.2610    2.6530 C.3     1  UNL1        0.0430
      6  C          6.9550   -0.5210    2.1500 C.2     1  UNL1       -0.0440
      7  C          8.2400    0.0270    2.0710 C.2     1  UNL1        0.0080
      8  C          6.7660   -1.8240    1.7480 C.2     1  UNL1        0.0540
      9  C          9.2750   -0.7550    1.5910 C.2     1  UNL1        0.0510
     10  C          7.8160   -2.6110    1.2640 C.2     1  UNL1        0.1660
     11  C          9.0800   -2.0720    1.1850 C.2     1  UNL1        0.1650
     12  O          7.8830   -3.9110    0.8090 O.2     1  UNL1       -0.4540
     13  O          9.9070   -3.0620    0.6790 O.2     1  UNL1       -0.4540
     14  C          9.2070   -4.2720    0.5120 C.3     1  UNL1        0.4680
@<TRIPOS>BOND
     1     3     2    1
     2    14    13    1
     3    14    12    1
     4    13    11    1
     5    12    10    1
     6     2     4    2
     7     2     1    1
     8    11    10    2
     9    11     9    1
    10    10     8    1
    11     9     7    2
    12     8     6    2
    13     7     6    1
    14     6     5    1
    15     1     5    1
