MODEL 1
REMARK VINA RESULT:      -0.3      0.000      0.000
REMARK SMILES CC(=O)CCc1ccc2c(c1)OCO2
REMARK SMILES IDX 4 1 2 2 1 3 3 4 5 5 6 6 7 7 11 8 8 9 10 10 9 11 12 12 14 13
REMARK SMILES IDX 13 14
REMARK H PARENT
REMARK Flexibility Score: inf
ROOT
ATOM      1  C   UNL     1       1.974  -0.027   3.106  1.00  0.00     0.080 C 
ENDROOT
BRANCH   1   2
ATOM      2  C   UNL     1       0.498   0.174   3.131  1.00  0.00     0.130 C 
ATOM      3  C   UNL     1      -0.153   1.278   2.377  1.00  0.00     0.087 C 
ATOM      4  O   UNL     1      -0.224  -0.568   3.778  1.00  0.00    -0.300 OA
ENDBRANCH   1   2
BRANCH   1   5
ATOM      5  C   UNL     1       2.674   1.122   2.408  1.00  0.00     0.043 C 
BRANCH   5   6
ATOM      6  C   UNL     1       4.118   0.871   2.255  1.00  0.00    -0.044 A 
ATOM      7  C   UNL     1       5.051   1.914   2.282  1.00  0.00     0.008 A 
ATOM      8  C   UNL     1       4.572  -0.417   2.085  1.00  0.00     0.054 A 
ATOM      9  C   UNL     1       6.393   1.618   2.134  1.00  0.00     0.051 A 
ATOM     10  C   UNL     1       5.931  -0.712   1.937  1.00  0.00     0.166 A 
ATOM     11  C   UNL     1       6.849   0.314   1.962  1.00  0.00     0.165 A 
ATOM     12  O   UNL     1       6.623  -1.891   1.757  1.00  0.00    -0.454 OA
ATOM     13  O   UNL     1       8.099  -0.262   1.795  1.00  0.00    -0.454 OA
ATOM     14  C   UNL     1       8.009  -1.666   1.752  1.00  0.00     0.468 C 
ENDBRANCH   5   6
ENDBRANCH   1   5
TORSDOF 3
ENDMDL
MODEL 2
REMARK VINA RESULT:       0.1      2.517      6.331
REMARK SMILES CC(=O)CCc1ccc2c(c1)OCO2
REMARK SMILES IDX 4 1 2 2 1 3 3 4 5 5 6 6 7 7 11 8 8 9 10 10 9 11 12 12 14 13
REMARK SMILES IDX 13 14
REMARK H PARENT
REMARK Flexibility Score: inf
ROOT
ATOM      1  C   UNL     1       9.024  -2.666   1.133  1.00  0.00     0.080 C 
ENDROOT
BRANCH   1   2
ATOM      2  C   UNL     1       9.526  -4.000   0.701  1.00  0.00     0.130 C 
ATOM      3  C   UNL     1       8.998  -4.677  -0.514  1.00  0.00     0.087 C 
ATOM      4  O   UNL     1      10.391  -4.580   1.336  1.00  0.00    -0.300 OA
ENDBRANCH   1   2
BRANCH   1   5
ATOM      5  C   UNL     1       7.609  -2.758   1.669  1.00  0.00     0.043 C 
BRANCH   5   6
ATOM      6  C   UNL     1       7.007  -1.425   1.855  1.00  0.00    -0.044 A 
ATOM      7  C   UNL     1       7.797  -0.278   1.997  1.00  0.00     0.008 A 
ATOM      8  C   UNL     1       5.638  -1.294   1.888  1.00  0.00     0.054 A 
ATOM      9  C   UNL     1       7.176   0.946   2.168  1.00  0.00     0.051 A 
ATOM     10  C   UNL     1       5.016  -0.054   2.060  1.00  0.00     0.166 A 
ATOM     11  C   UNL     1       5.791   1.075   2.202  1.00  0.00     0.165 A 
ATOM     12  O   UNL     1       3.694   0.333   2.128  1.00  0.00    -0.454 OA
ATOM     13  O   UNL     1       4.921   2.143   2.354  1.00  0.00    -0.454 OA
ATOM     14  C   UNL     1       3.582   1.730   2.222  1.00  0.00     0.468 C 
ENDBRANCH   5   6
ENDBRANCH   1   5
TORSDOF 3
ENDMDL
MODEL 3
REMARK VINA RESULT:       0.4      3.130      4.107
REMARK SMILES CC(=O)CCc1ccc2c(c1)OCO2
REMARK SMILES IDX 4 1 2 2 1 3 3 4 5 5 6 6 7 7 11 8 8 9 10 10 9 11 12 12 14 13
REMARK SMILES IDX 13 14
REMARK H PARENT
REMARK Flexibility Score: inf
ROOT
ATOM      1  C   UNL     1       6.499   2.149   2.139  1.00  0.00     0.080 C 
ENDROOT
BRANCH   1   2
ATOM      2  C   UNL     1       5.257   1.913   1.352  1.00  0.00     0.130 C 
ATOM      3  C   UNL     1       5.291   1.726  -0.123  1.00  0.00     0.087 C 
ATOM      4  O   UNL     1       4.167   1.867   1.899  1.00  0.00    -0.300 OA
ENDBRANCH   1   2
BRANCH   1   5
ATOM      5  C   UNL     1       6.728   1.044   3.151  1.00  0.00     0.043 C 
BRANCH   5   6
ATOM      6  C   UNL     1       6.972  -0.254   2.496  1.00  0.00    -0.044 A 
ATOM      7  C   UNL     1       5.925  -1.132   2.196  1.00  0.00     0.008 A 
ATOM      8  C   UNL     1       8.257  -0.620   2.166  1.00  0.00     0.054 A 
ATOM      9  C   UNL     1       6.214  -2.336   1.580  1.00  0.00     0.051 A 
ATOM     10  C   UNL     1       8.545  -1.838   1.543  1.00  0.00     0.166 A 
ATOM     11  C   UNL     1       7.515  -2.704   1.248  1.00  0.00     0.165 A 
ATOM     12  O   UNL     1       9.719  -2.423   1.121  1.00  0.00    -0.454 OA
ATOM     13  O   UNL     1       8.084  -3.813   0.644  1.00  0.00    -0.454 OA
ATOM     14  C   UNL     1       9.469  -3.638   0.461  1.00  0.00     0.468 C 
ENDBRANCH   5   6
ENDBRANCH   1   5
TORSDOF 3
ENDMDL
MODEL 4
REMARK VINA RESULT:       1.2      3.074      7.189
REMARK SMILES CC(=O)CCc1ccc2c(c1)OCO2
REMARK SMILES IDX 4 1 2 2 1 3 3 4 5 5 6 6 7 7 11 8 8 9 10 10 9 11 12 12 14 13
REMARK SMILES IDX 13 14
REMARK H PARENT
REMARK Flexibility Score: inf
ROOT
ATOM      1  C   UNL     1       8.756  -4.748  -0.419  1.00  0.00     0.080 C 
ENDROOT
BRANCH   1   2
ATOM      2  C   UNL     1       9.528  -4.662  -1.690  1.00  0.00     0.130 C 
ATOM      3  C   UNL     1      10.377  -5.786  -2.166  1.00  0.00     0.087 C 
ATOM      4  O   UNL     1       9.484  -3.658  -2.383  1.00  0.00    -0.300 OA
ENDBRANCH   1   2
BRANCH   1   5
ATOM      5  C   UNL     1       9.497  -4.077   0.721  1.00  0.00     0.043 C 
BRANCH   5   6
ATOM      6  C   UNL     1       8.866  -2.802   1.107  1.00  0.00    -0.044 A 
ATOM      7  C   UNL     1       9.608  -1.621   1.220  1.00  0.00     0.008 A 
ATOM      8  C   UNL     1       7.514  -2.760   1.364  1.00  0.00     0.054 A 
ATOM      9  C   UNL     1       8.962  -0.454   1.585  1.00  0.00     0.051 A 
ATOM     10  C   UNL     1       6.865  -1.578   1.732  1.00  0.00     0.166 A 
ATOM     11  C   UNL     1       7.595  -0.416   1.844  1.00  0.00     0.165 A 
ATOM     12  O   UNL     1       5.554  -1.281   2.036  1.00  0.00    -0.454 OA
ATOM     13  O   UNL     1       6.707   0.581   2.217  1.00  0.00    -0.454 OA
ATOM     14  C   UNL     1       5.387   0.095   2.262  1.00  0.00     0.468 C 
ENDBRANCH   5   6
ENDBRANCH   1   5
TORSDOF 3
ENDMDL
MODEL 5
REMARK VINA RESULT:       1.9      3.078      3.914
REMARK SMILES CC(=O)CCc1ccc2c(c1)OCO2
REMARK SMILES IDX 4 1 2 2 1 3 3 4 5 5 6 6 7 7 11 8 8 9 10 10 9 11 12 12 14 13
REMARK SMILES IDX 13 14
REMARK H PARENT
REMARK Flexibility Score: inf
ROOT
ATOM      1  C   UNL     1       5.867   1.702   2.185  1.00  0.00     0.080 C 
ENDROOT
BRANCH   1   2
ATOM      2  C   UNL     1       4.882   1.956   1.098  1.00  0.00     0.130 C 
ATOM      3  C   UNL     1       5.310   2.148  -0.314  1.00  0.00     0.087 C 
ATOM      4  O   UNL     1       3.687   2.016   1.336  1.00  0.00    -0.300 OA
ENDBRANCH   1   2
BRANCH   1   5
ATOM      5  C   UNL     1       5.811   0.261   2.653  1.00  0.00     0.043 C 
BRANCH   5   6
ATOM      6  C   UNL     1       6.955  -0.521   2.150  1.00  0.00    -0.044 A 
ATOM      7  C   UNL     1       8.240   0.027   2.071  1.00  0.00     0.008 A 
ATOM      8  C   UNL     1       6.766  -1.824   1.748  1.00  0.00     0.054 A 
ATOM      9  C   UNL     1       9.275  -0.755   1.591  1.00  0.00     0.051 A 
ATOM     10  C   UNL     1       7.816  -2.611   1.264  1.00  0.00     0.166 A 
ATOM     11  C   UNL     1       9.080  -2.072   1.185  1.00  0.00     0.165 A 
ATOM     12  O   UNL     1       7.883  -3.911   0.809  1.00  0.00    -0.454 OA
ATOM     13  O   UNL     1       9.907  -3.062   0.679  1.00  0.00    -0.454 OA
ATOM     14  C   UNL     1       9.207  -4.272   0.512  1.00  0.00     0.468 C 
ENDBRANCH   5   6
ENDBRANCH   1   5
TORSDOF 3
ENDMDL
