@<TRIPOS>MOLECULE
/home/cewinharhar/GITHUB/reincatalyze/data/processed/docking_pred/2023-May-31-1438_sub9_nm5_bs15_s42_ex16_mel10_mts1000_k50_ec05_g099_lra9e-4_lrc3e-3/b58c38953477011b0b30fd8623da0ee842eab33b_ligand_9.pdbqt
 14 15 0 0 0
SMALL
GASTEIGER

@<TRIPOS>ATOM
      1  C          6.6420    0.6630    1.2910 C.3     1  UNL1        0.0800
      2  C          5.2590    1.2180    1.2960 C.2     1  UNL1        0.1300
      3  C          4.7870    2.1480    0.2360 C.3     1  UNL1        0.0870
      4  O          4.4690    0.9220    2.1780 O.2     1  UNL1       -0.3000
      5  C          7.3370    0.9300   -0.0290 C.3     1  UNL1        0.0430
      6  C          7.7150   -0.3210   -0.7100 C.2     1  UNL1       -0.0440
      7  C          7.8280   -0.3920   -2.1030 C.2     1  UNL1        0.0080
      8  C          7.9680   -1.4520    0.0330 C.2     1  UNL1        0.0540
      9  C          8.1880   -1.5940   -2.6870 C.2     1  UNL1        0.0510
     10  C          8.3310   -2.6640   -0.5620 C.2     1  UNL1        0.1660
     11  C          8.4420   -2.7360   -1.9330 C.2     1  UNL1        0.1650
     12  O          8.6290   -3.9100   -0.0510 O.2     1  UNL1       -0.4540
     13  O          8.8100   -4.0360   -2.2390 O.2     1  UNL1       -0.4540
     14  C          9.0280   -4.7910   -1.0700 C.3     1  UNL1        0.4680
@<TRIPOS>BOND
     1     9     7    1
     2     9    11    2
     3    13    11    1
     4    13    14    1
     5     7     6    2
     6    11    10    1
     7    14    12    1
     8     6     5    1
     9     6     8    1
    10    10    12    1
    11    10     8    2
    12     5     1    1
    13     3     2    1
    14     1     2    1
    15     2     4    2
