@<TRIPOS>MOLECULE
/home/cewinharhar/GITHUB/reincatalyze/data/processed/docking_pred/2023-May-31-1438_sub9_nm5_bs15_s42_ex16_mel10_mts1000_k50_ec05_g099_lra9e-4_lrc3e-3/b58c38953477011b0b30fd8623da0ee842eab33b_ligand_9.pdbqt
 14 15 0 0 0
SMALL
GASTEIGER

@<TRIPOS>ATOM
      1  C          5.6770    1.2110   -0.3370 C.3     1  UNL1        0.0800
      2  C          5.1410    1.2370    1.0530 C.2     1  UNL1        0.1300
      3  C          5.4590    0.1640    2.0330 C.3     1  UNL1        0.0870
      4  O          4.4200    2.1470    1.4290 O.2     1  UNL1       -0.3000
      5  C          7.1850    1.0630   -0.3420 C.3     1  UNL1        0.0430
      6  C          7.6070   -0.2140   -0.9460 C.2     1  UNL1       -0.0440
      7  C          7.7950   -0.3440   -2.3270 C.2     1  UNL1        0.0080
      8  C          7.8270   -1.3090   -0.1430 C.2     1  UNL1        0.0540
      9  C          8.1930   -1.5670   -2.8370 C.2     1  UNL1        0.0510
     10  C          8.2290   -2.5430   -0.6630 C.2     1  UNL1        0.1660
     11  C          8.4130   -2.6730   -2.0220 C.2     1  UNL1        0.1650
     12  O          8.5060   -3.7620   -0.0830 O.2     1  UNL1       -0.4540
     13  O          8.8050   -3.9820   -2.2500 O.2     1  UNL1       -0.4540
     14  C          8.9650   -4.6830   -1.0390 C.3     1  UNL1        0.4680
@<TRIPOS>BOND
     1     9     7    1
     2     9    11    2
     3     7     6    2
     4    13    11    1
     5    13    14    1
     6    11    10    1
     7    14    12    1
     8     6     5    1
     9     6     8    1
    10    10     8    2
    11    10    12    1
    12     5     1    1
    13     1     2    1
    14     2     4    2
    15     2     3    1
