@<TRIPOS>MOLECULE
/home/cewinharhar/GITHUB/reincatalyze/data/processed/docking_pred/2023-May-31-1438_sub9_nm5_bs15_s42_ex16_mel10_mts1000_k50_ec05_g099_lra9e-4_lrc3e-3/b590df4aad401e291154b1741be08749940afe84_ligand_9.pdbqt
 14 15 0 0 0
SMALL
GASTEIGER

@<TRIPOS>ATOM
      1  C          5.4400   -0.0350    2.0000 C.3     1  UNL1        0.0800
      2  C          4.5770    1.1520    1.7470 C.2     1  UNL1        0.1300
      3  C          4.8900    2.1300    0.6710 C.3     1  UNL1        0.0870
      4  O          3.5800    1.3570    2.4210 O.2     1  UNL1       -0.3000
      5  C          6.8690    0.2210    1.5630 C.3     1  UNL1        0.0430
      6  C          7.2900   -0.7110    0.5010 C.2     1  UNL1       -0.0440
      7  C          7.1590   -0.3870   -0.8540 C.2     1  UNL1        0.0080
      8  C          7.8300   -1.9310    0.8400 C.2     1  UNL1        0.0540
      9  C          7.5720   -1.3010   -1.8060 C.2     1  UNL1        0.0510
     10  C          8.2470   -2.8510   -0.1270 C.2     1  UNL1        0.1660
     11  C          8.1170   -2.5340   -1.4600 C.2     1  UNL1        0.1650
     12  O          8.8050   -4.1100   -0.0470 O.2     1  UNL1       -0.4540
     13  O          8.6040   -3.6140   -2.1790 O.2     1  UNL1       -0.4540
     14  C          9.1330   -4.5980   -1.3230 C.3     1  UNL1        0.4680
@<TRIPOS>BOND
     1    13    11    1
     2    13    14    1
     3     9    11    2
     4     9     7    1
     5    11    10    1
     6    14    12    1
     7     7     6    2
     8    10    12    1
     9    10     8    2
    10     6     8    1
    11     6     5    1
    12     3     2    1
    13     5     1    1
    14     2     1    1
    15     2     4    2
