@<TRIPOS>MOLECULE
/home/cewinharhar/GITHUB/reincatalyze/data/processed/docking_pred/2023-May-31-1438_sub9_nm5_bs15_s42_ex16_mel10_mts1000_k50_ec05_g099_lra9e-4_lrc3e-3/b5f7d4a2d914252a6bbd971338c7ac1ea6a3e46f_ligand_9.pdbqt
 14 15 0 0 0
SMALL
GASTEIGER

@<TRIPOS>ATOM
      1  C          5.5070    1.9190    1.2580 C.3     1  UNL1        0.0800
      2  C          5.0650    0.7030    1.9970 C.2     1  UNL1        0.1300
      3  C          5.9530   -0.4790    2.1560 C.3     1  UNL1        0.0870
      4  O          3.9530    0.6430    2.4960 O.2     1  UNL1       -0.3000
      5  C          5.3860    1.7260   -0.2410 C.3     1  UNL1        0.0430
      6  C          6.5560    1.0240   -0.7970 C.2     1  UNL1       -0.0440
      7  C          7.8620    1.4540   -0.5360 C.2     1  UNL1        0.0080
      8  C          6.3720   -0.0850   -1.5920 C.2     1  UNL1        0.0540
      9  C          8.9210    0.7550   -1.0850 C.2     1  UNL1        0.0510
     10  C          7.4460   -0.7890   -2.1440 C.2     1  UNL1        0.1660
     11  C          8.7310   -0.3650   -1.8890 C.2     1  UNL1        0.1650
     12  O          7.5230   -1.9020   -2.9530 O.2     1  UNL1       -0.4540
     13  O          9.5800   -1.2370   -2.5530 O.2     1  UNL1       -0.4540
     14  C          8.8590   -2.2800   -3.1660 C.3     1  UNL1        0.4680
@<TRIPOS>BOND
     1    14    12    1
     2    14    13    1
     3    12    10    1
     4    13    11    1
     5    10    11    2
     6    10     8    1
     7    11     9    1
     8     8     6    2
     9     9     7    2
    10     6     7    1
    11     6     5    1
    12     5     1    1
    13     1     2    1
    14     2     3    1
    15     2     4    2
