@<TRIPOS>MOLECULE
/home/cewinharhar/GITHUB/reincatalyze/data/processed/docking_pred/2023-May-31-1438_sub9_nm5_bs15_s42_ex16_mel10_mts1000_k50_ec05_g099_lra9e-4_lrc3e-3/b8d8050f43b71ccf975db7ed0a80e234855f027b_ligand_9.pdbqt
 14 15 0 0 0
SMALL
GASTEIGER

@<TRIPOS>ATOM
      1  C          6.5150    2.1480    1.4720 C.3     1  UNL1        0.0800
      2  C          5.1860    2.0330    0.8080 C.2     1  UNL1        0.1300
      3  C          3.9440    1.7840    1.5870 C.3     1  UNL1        0.0870
      4  O          5.0800    2.1400   -0.4030 O.2     1  UNL1       -0.3000
      5  C          6.6410    1.1710    2.6240 C.3     1  UNL1        0.0430
      6  C          6.9650   -0.1880    2.1540 C.2     1  UNL1       -0.0440
      7  C          5.9690   -1.1520    1.9560 C.2     1  UNL1        0.0080
      8  C          8.2740   -0.5280    1.8980 C.2     1  UNL1        0.0540
      9  C          6.3320   -2.4110    1.5130 C.2     1  UNL1        0.0510
     10  C          8.6350   -1.8020    1.4490 C.2     1  UNL1        0.1660
     11  C          7.6560   -2.7510    1.2550 C.2     1  UNL1        0.1650
     12  O          9.8470   -2.3770    1.1290 O.2     1  UNL1       -0.4540
     13  O          8.2940   -3.9000    0.8150 O.2     1  UNL1       -0.4540
     14  C          9.6720   -3.6790    0.6350 C.3     1  UNL1        0.4680
@<TRIPOS>BOND
     1     4     2    2
     2    14    13    1
     3    14    12    1
     4     2     1    1
     5     2     3    1
     6    13    11    1
     7    12    10    1
     8    11    10    2
     9    11     9    1
    10    10     8    1
    11     1     5    1
    12     9     7    2
    13     8     6    2
    14     7     6    1
    15     6     5    1
