@<TRIPOS>MOLECULE
/home/cewinharhar/GITHUB/reincatalyze/data/processed/docking_pred/2023-May-31-1438_sub9_nm5_bs15_s42_ex16_mel10_mts1000_k50_ec05_g099_lra9e-4_lrc3e-3/b8d8050f43b71ccf975db7ed0a80e234855f027b_ligand_9.pdbqt
 14 15 0 0 0
SMALL
GASTEIGER

@<TRIPOS>ATOM
      1  C          9.1050   -2.5920    0.8540 C.3     1  UNL1        0.0800
      2  C          9.5260   -3.9950    0.5840 C.2     1  UNL1        0.1300
      3  C          9.0970   -4.7160   -0.6440 C.3     1  UNL1        0.0870
      4  O         10.2410   -4.5970    1.3690 O.2     1  UNL1       -0.3000
      5  C          8.0150   -2.5370    1.9060 C.3     1  UNL1        0.0430
      6  C          7.2890   -1.2550    1.8750 C.2     1  UNL1       -0.0440
      7  C          7.9430   -0.0490    1.6030 C.2     1  UNL1        0.0080
      8  C          5.9340   -1.2330    2.1150 C.2     1  UNL1        0.0540
      9  C          7.2090    1.1240    1.5860 C.2     1  UNL1        0.0510
     10  C          5.1960   -0.0460    2.0960 C.2     1  UNL1        0.1660
     11  C          5.8400    1.1430    1.8300 C.2     1  UNL1        0.1650
     12  O          3.8620    0.2350    2.3010 O.2     1  UNL1       -0.4540
     13  O          4.8770    2.1390    1.8760 O.2     1  UNL1       -0.4540
     14  C          3.5940    1.5970    2.0810 C.3     1  UNL1        0.4680
@<TRIPOS>BOND
     1     3     2    1
     2     2     1    1
     3     2     4    2
     4     1     5    1
     5     9     7    1
     6     9    11    2
     7     7     6    2
     8    11    13    1
     9    11    10    1
    10     6     5    1
    11     6     8    1
    12    13    14    1
    13    14    12    1
    14    10     8    2
    15    10    12    1
