MODEL 1
REMARK VINA RESULT:      -7.6      0.000      0.000
REMARK SMILES CC(=O)CCc1ccc2c(c1)OCO2
REMARK SMILES IDX 4 1 2 2 1 3 3 4 5 5 6 6 7 7 11 8 8 9 10 10 9 11 12 12 14 13
REMARK SMILES IDX 13 14
REMARK H PARENT
REMARK Flexibility Score: inf
ROOT
ATOM      1  C   UNL     1       5.542   1.920   1.276  1.00  0.00     0.080 C 
ENDROOT
BRANCH   1   2
ATOM      2  C   UNL     1       5.093   0.704   2.011  1.00  0.00     0.130 C 
ATOM      3  C   UNL     1       5.982  -0.476   2.185  1.00  0.00     0.087 C 
ATOM      4  O   UNL     1       3.975   0.642   2.495  1.00  0.00    -0.300 OA
ENDBRANCH   1   2
BRANCH   1   5
ATOM      5  C   UNL     1       5.411   1.736  -0.223  1.00  0.00     0.043 C 
BRANCH   5   6
ATOM      6  C   UNL     1       6.575   1.033  -0.791  1.00  0.00    -0.044 A 
ATOM      7  C   UNL     1       7.883   1.469  -0.550  1.00  0.00     0.008 A 
ATOM      8  C   UNL     1       6.384  -0.080  -1.576  1.00  0.00     0.054 A 
ATOM      9  C   UNL     1       8.937   0.770  -1.109  1.00  0.00     0.051 A 
ATOM     10  C   UNL     1       7.453  -0.785  -2.139  1.00  0.00     0.166 A 
ATOM     11  C   UNL     1       8.740  -0.356  -1.904  1.00  0.00     0.165 A 
ATOM     12  O   UNL     1       7.522  -1.903  -2.943  1.00  0.00    -0.454 OA
ATOM     13  O   UNL     1       9.582  -1.229  -2.574  1.00  0.00    -0.454 OA
ATOM     14  C   UNL     1       8.857  -2.277  -3.171  1.00  0.00     0.468 C 
ENDBRANCH   5   6
ENDBRANCH   1   5
TORSDOF 3
ENDMDL
MODEL 2
REMARK VINA RESULT:      -7.5      1.899      2.365
REMARK SMILES CC(=O)CCc1ccc2c(c1)OCO2
REMARK SMILES IDX 4 1 2 2 1 3 3 4 5 5 6 6 7 7 11 8 8 9 10 10 9 11 12 12 14 13
REMARK SMILES IDX 13 14
REMARK H PARENT
REMARK Flexibility Score: inf
ROOT
ATOM      1  C   UNL     1       5.641   1.272  -0.318  1.00  0.00     0.080 C 
ENDROOT
BRANCH   1   2
ATOM      2  C   UNL     1       5.088   1.239   1.064  1.00  0.00     0.130 C 
ATOM      3  C   UNL     1       5.360   0.105   1.988  1.00  0.00     0.087 C 
ATOM      4  O   UNL     1       4.389   2.148   1.481  1.00  0.00    -0.300 OA
ENDBRANCH   1   2
BRANCH   1   5
ATOM      5  C   UNL     1       7.147   1.099  -0.312  1.00  0.00     0.043 C 
BRANCH   5   6
ATOM      6  C   UNL     1       7.552  -0.185  -0.911  1.00  0.00    -0.044 A 
ATOM      7  C   UNL     1       7.670  -0.343  -2.297  1.00  0.00     0.008 A 
ATOM      8  C   UNL     1       7.825  -1.262  -0.098  1.00  0.00     0.054 A 
ATOM      9  C   UNL     1       8.055  -1.572  -2.802  1.00  0.00     0.051 A 
ATOM     10  C   UNL     1       8.214  -2.502  -0.614  1.00  0.00     0.166 A 
ATOM     11  C   UNL     1       8.329  -2.658  -1.977  1.00  0.00     0.165 A 
ATOM     12  O   UNL     1       8.534  -3.706  -0.024  1.00  0.00    -0.454 OA
ATOM     13  O   UNL     1       8.724  -3.968  -2.198  1.00  0.00    -0.454 OA
ATOM     14  C   UNL     1       8.953  -4.642  -0.984  1.00  0.00     0.468 C 
ENDBRANCH   5   6
ENDBRANCH   1   5
TORSDOF 3
ENDMDL
MODEL 3
REMARK VINA RESULT:      -7.2      2.073      2.615
REMARK SMILES CC(=O)CCc1ccc2c(c1)OCO2
REMARK SMILES IDX 4 1 2 2 1 3 3 4 5 5 6 6 7 7 11 8 8 9 10 10 9 11 12 12 14 13
REMARK SMILES IDX 13 14
REMARK H PARENT
REMARK Flexibility Score: inf
ROOT
ATOM      1  C   UNL     1       5.533   0.010   1.961  1.00  0.00     0.080 C 
ENDROOT
BRANCH   1   2
ATOM      2  C   UNL     1       4.649   1.167   1.648  1.00  0.00     0.130 C 
ATOM      3  C   UNL     1       4.974   2.125   0.557  1.00  0.00     0.087 C 
ATOM      4  O   UNL     1       3.626   1.365   2.283  1.00  0.00    -0.300 OA
ENDBRANCH   1   2
BRANCH   1   5
ATOM      5  C   UNL     1       6.953   0.260   1.495  1.00  0.00     0.043 C 
BRANCH   5   6
ATOM      6  C   UNL     1       7.361  -0.695   0.449  1.00  0.00    -0.044 A 
ATOM      7  C   UNL     1       7.249  -0.384  -0.911  1.00  0.00     0.008 A 
ATOM      8  C   UNL     1       7.869  -1.923   0.806  1.00  0.00     0.054 A 
ATOM      9  C   UNL     1       7.648  -1.319  -1.849  1.00  0.00     0.051 A 
ATOM     10  C   UNL     1       8.272  -2.865  -0.146  1.00  0.00     0.166 A 
ATOM     11  C   UNL     1       8.160  -2.560  -1.484  1.00  0.00     0.165 A 
ATOM     12  O   UNL     1       8.799  -4.135  -0.046  1.00  0.00    -0.454 OA
ATOM     13  O   UNL     1       8.627  -3.661  -2.186  1.00  0.00    -0.454 OA
ATOM     14  C   UNL     1       9.126  -4.646  -1.313  1.00  0.00     0.468 C 
ENDBRANCH   5   6
ENDBRANCH   1   5
TORSDOF 3
ENDMDL
MODEL 4
REMARK VINA RESULT:      -7.1      1.256      1.478
REMARK SMILES CC(=O)CCc1ccc2c(c1)OCO2
REMARK SMILES IDX 4 1 2 2 1 3 3 4 5 5 6 6 7 7 11 8 8 9 10 10 9 11 12 12 14 13
REMARK SMILES IDX 13 14
REMARK H PARENT
REMARK Flexibility Score: inf
ROOT
ATOM      1  C   UNL     1       6.375   1.175   0.913  1.00  0.00     0.080 C 
ENDROOT
BRANCH   1   2
ATOM      2  C   UNL     1       5.652   0.368   1.935  1.00  0.00     0.130 C 
ATOM      3  C   UNL     1       6.242  -0.869   2.514  1.00  0.00     0.087 C 
ATOM      4  O   UNL     1       4.547   0.701   2.329  1.00  0.00    -0.300 OA
ENDBRANCH   1   2
BRANCH   1   5
ATOM      5  C   UNL     1       5.864   0.879  -0.483  1.00  0.00     0.043 C 
BRANCH   5   6
ATOM      6  C   UNL     1       6.821   0.065  -1.254  1.00  0.00    -0.044 A 
ATOM      7  C   UNL     1       7.511   0.588  -2.353  1.00  0.00     0.008 A 
ATOM      8  C   UNL     1       7.049  -1.243  -0.892  1.00  0.00     0.054 A 
ATOM      9  C   UNL     1       8.397  -0.224  -3.038  1.00  0.00     0.051 A 
ATOM     10  C   UNL     1       7.946  -2.060  -1.587  1.00  0.00     0.166 A 
ATOM     11  C   UNL     1       8.625  -1.546  -2.669  1.00  0.00     0.165 A 
ATOM     12  O   UNL     1       8.341  -3.371  -1.428  1.00  0.00    -0.454 OA
ATOM     13  O   UNL     1       9.432  -2.562  -3.156  1.00  0.00    -0.454 OA
ATOM     14  C   UNL     1       9.351  -3.709  -2.344  1.00  0.00     0.468 C 
ENDBRANCH   5   6
ENDBRANCH   1   5
TORSDOF 3
ENDMDL
MODEL 5
REMARK VINA RESULT:      -6.9      1.951      2.486
REMARK SMILES CC(=O)CCc1ccc2c(c1)OCO2
REMARK SMILES IDX 4 1 2 2 1 3 3 4 5 5 6 6 7 7 11 8 8 9 10 10 9 11 12 12 14 13
REMARK SMILES IDX 13 14
REMARK H PARENT
REMARK Flexibility Score: inf
ROOT
ATOM      1  C   UNL     1       6.933   0.943   1.404  1.00  0.00     0.080 C 
ENDROOT
BRANCH   1   2
ATOM      2  C   UNL     1       5.460   1.065   1.594  1.00  0.00     0.130 C 
ATOM      3  C   UNL     1       4.645   2.015   0.790  1.00  0.00     0.087 C 
ATOM      4  O   UNL     1       4.877   0.384   2.422  1.00  0.00    -0.300 OA
ENDBRANCH   1   2
BRANCH   1   5
ATOM      5  C   UNL     1       7.316   1.123  -0.052  1.00  0.00     0.043 C 
BRANCH   5   6
ATOM      6  C   UNL     1       7.620  -0.166  -0.700  1.00  0.00    -0.044 A 
ATOM      7  C   UNL     1       7.549  -0.323  -2.089  1.00  0.00     0.008 A 
ATOM      8  C   UNL     1       7.984  -1.247   0.070  1.00  0.00     0.054 A 
ATOM      9  C   UNL     1       7.846  -1.556  -2.641  1.00  0.00     0.051 A 
ATOM     10  C   UNL     1       8.284  -2.491  -0.493  1.00  0.00     0.166 A 
ATOM     11  C   UNL     1       8.213  -2.647  -1.860  1.00  0.00     0.165 A 
ATOM     12  O   UNL     1       8.664  -3.701   0.048  1.00  0.00    -0.454 OA
ATOM     13  O   UNL     1       8.557  -3.962  -2.132  1.00  0.00    -0.454 OA
ATOM     14  C   UNL     1       8.938  -4.641  -0.959  1.00  0.00     0.468 C 
ENDBRANCH   5   6
ENDBRANCH   1   5
TORSDOF 3
ENDMDL
