@<TRIPOS>MOLECULE
/home/cewinharhar/GITHUB/reincatalyze/data/processed/docking_pred/2023-May-31-1438_sub9_nm5_bs15_s42_ex16_mel10_mts1000_k50_ec05_g099_lra9e-4_lrc3e-3/b99eeed02ad73e34178363463c07c25b6fbf2bee_ligand_9.pdbqt
 14 15 0 0 0
SMALL
GASTEIGER

@<TRIPOS>ATOM
      1  C          5.6410    1.2720   -0.3180 C.3     1  UNL1        0.0800
      2  C          5.0880    1.2390    1.0640 C.2     1  UNL1        0.1300
      3  C          5.3600    0.1050    1.9880 C.3     1  UNL1        0.0870
      4  O          4.3890    2.1480    1.4810 O.2     1  UNL1       -0.3000
      5  C          7.1470    1.0990   -0.3120 C.3     1  UNL1        0.0430
      6  C          7.5520   -0.1850   -0.9110 C.2     1  UNL1       -0.0440
      7  C          7.6700   -0.3430   -2.2970 C.2     1  UNL1        0.0080
      8  C          7.8250   -1.2620   -0.0980 C.2     1  UNL1        0.0540
      9  C          8.0550   -1.5720   -2.8020 C.2     1  UNL1        0.0510
     10  C          8.2140   -2.5020   -0.6140 C.2     1  UNL1        0.1660
     11  C          8.3290   -2.6580   -1.9770 C.2     1  UNL1        0.1650
     12  O          8.5340   -3.7060   -0.0240 O.2     1  UNL1       -0.4540
     13  O          8.7240   -3.9680   -2.1980 O.2     1  UNL1       -0.4540
     14  C          8.9530   -4.6420   -0.9840 C.3     1  UNL1        0.4680
@<TRIPOS>BOND
     1     9     7    1
     2     9    11    2
     3     7     6    2
     4    13    11    1
     5    13    14    1
     6    11    10    1
     7    14    12    1
     8     6     5    1
     9     6     8    1
    10    10     8    2
    11    10    12    1
    12     1     5    1
    13     1     2    1
    14     2     4    2
    15     2     3    1
