@<TRIPOS>MOLECULE
/home/cewinharhar/GITHUB/reincatalyze/data/processed/docking_pred/2023-May-31-1438_sub9_nm5_bs15_s42_ex16_mel10_mts1000_k50_ec05_g099_lra9e-4_lrc3e-3/b99eeed02ad73e34178363463c07c25b6fbf2bee_ligand_9.pdbqt
 14 15 0 0 0
SMALL
GASTEIGER

@<TRIPOS>ATOM
      1  C          5.5420    1.9200    1.2760 C.3     1  UNL1        0.0800
      2  C          5.0930    0.7040    2.0110 C.2     1  UNL1        0.1300
      3  C          5.9820   -0.4760    2.1850 C.3     1  UNL1        0.0870
      4  O          3.9750    0.6420    2.4950 O.2     1  UNL1       -0.3000
      5  C          5.4110    1.7360   -0.2230 C.3     1  UNL1        0.0430
      6  C          6.5750    1.0330   -0.7910 C.2     1  UNL1       -0.0440
      7  C          7.8830    1.4690   -0.5500 C.2     1  UNL1        0.0080
      8  C          6.3840   -0.0800   -1.5760 C.2     1  UNL1        0.0540
      9  C          8.9370    0.7700   -1.1090 C.2     1  UNL1        0.0510
     10  C          7.4530   -0.7850   -2.1390 C.2     1  UNL1        0.1660
     11  C          8.7400   -0.3560   -1.9040 C.2     1  UNL1        0.1650
     12  O          7.5220   -1.9030   -2.9430 O.2     1  UNL1       -0.4540
     13  O          9.5820   -1.2290   -2.5740 O.2     1  UNL1       -0.4540
     14  C          8.8570   -2.2770   -3.1710 C.3     1  UNL1        0.4680
@<TRIPOS>BOND
     1    14    12    1
     2    14    13    1
     3    12    10    1
     4    13    11    1
     5    10    11    2
     6    10     8    1
     7    11     9    1
     8     8     6    2
     9     9     7    2
    10     6     7    1
    11     6     5    1
    12     5     1    1
    13     1     2    1
    14     2     3    1
    15     2     4    2
