@<TRIPOS>MOLECULE
/home/cewinharhar/GITHUB/reincatalyze/data/processed/docking_pred/2023-May-31-1438_sub9_nm5_bs15_s42_ex16_mel10_mts1000_k50_ec05_g099_lra9e-4_lrc3e-3/b99eeed02ad73e34178363463c07c25b6fbf2bee_ligand_9.pdbqt
 14 15 0 0 0
SMALL
GASTEIGER

@<TRIPOS>ATOM
      1  C          6.9330    0.9430    1.4040 C.3     1  UNL1        0.0800
      2  C          5.4600    1.0650    1.5940 C.2     1  UNL1        0.1300
      3  C          4.6450    2.0150    0.7900 C.3     1  UNL1        0.0870
      4  O          4.8770    0.3840    2.4220 O.2     1  UNL1       -0.3000
      5  C          7.3160    1.1230   -0.0520 C.3     1  UNL1        0.0430
      6  C          7.6200   -0.1660   -0.7000 C.2     1  UNL1       -0.0440
      7  C          7.5490   -0.3230   -2.0890 C.2     1  UNL1        0.0080
      8  C          7.9840   -1.2470    0.0700 C.2     1  UNL1        0.0540
      9  C          7.8460   -1.5560   -2.6410 C.2     1  UNL1        0.0510
     10  C          8.2840   -2.4910   -0.4930 C.2     1  UNL1        0.1660
     11  C          8.2130   -2.6470   -1.8600 C.2     1  UNL1        0.1650
     12  O          8.6640   -3.7010    0.0480 O.2     1  UNL1       -0.4540
     13  O          8.5570   -3.9620   -2.1320 O.2     1  UNL1       -0.4540
     14  C          8.9380   -4.6410   -0.9590 C.3     1  UNL1        0.4680
@<TRIPOS>BOND
     1     9     7    1
     2     9    11    2
     3    13    11    1
     4    13    14    1
     5     7     6    2
     6    11    10    1
     7    14    12    1
     8     6     5    1
     9     6     8    1
    10    10    12    1
    11    10     8    2
    12     5     1    1
    13     3     2    1
    14     1     2    1
    15     2     4    2
