@<TRIPOS>MOLECULE
/home/cewinharhar/GITHUB/reincatalyze/data/processed/docking_pred/2023-May-31-1438_sub9_nm5_bs15_s42_ex16_mel10_mts1000_k50_ec05_g099_lra9e-4_lrc3e-3/b99eeed02ad73e34178363463c07c25b6fbf2bee_ligand_9.pdbqt
 14 15 0 0 0
SMALL
GASTEIGER

@<TRIPOS>ATOM
      1  C          6.3750    1.1750    0.9130 C.3     1  UNL1        0.0800
      2  C          5.6520    0.3680    1.9350 C.2     1  UNL1        0.1300
      3  C          6.2420   -0.8690    2.5140 C.3     1  UNL1        0.0870
      4  O          4.5470    0.7010    2.3290 O.2     1  UNL1       -0.3000
      5  C          5.8640    0.8790   -0.4830 C.3     1  UNL1        0.0430
      6  C          6.8210    0.0650   -1.2540 C.2     1  UNL1       -0.0440
      7  C          7.5110    0.5880   -2.3530 C.2     1  UNL1        0.0080
      8  C          7.0490   -1.2430   -0.8920 C.2     1  UNL1        0.0540
      9  C          8.3970   -0.2240   -3.0380 C.2     1  UNL1        0.0510
     10  C          7.9460   -2.0600   -1.5870 C.2     1  UNL1        0.1660
     11  C          8.6250   -1.5460   -2.6690 C.2     1  UNL1        0.1650
     12  O          8.3410   -3.3710   -1.4280 O.2     1  UNL1       -0.4540
     13  O          9.4320   -2.5620   -3.1560 O.2     1  UNL1       -0.4540
     14  C          9.3510   -3.7090   -2.3440 C.3     1  UNL1        0.4680
@<TRIPOS>BOND
     1    13    11    1
     2    13    14    1
     3     9    11    2
     4     9     7    1
     5    11    10    1
     6     7     6    2
     7    14    12    1
     8    10    12    1
     9    10     8    2
    10     6     8    1
    11     6     5    1
    12     5     1    1
    13     1     2    1
    14     2     4    2
    15     2     3    1
