@<TRIPOS>MOLECULE
/home/cewinharhar/GITHUB/reincatalyze/data/processed/docking_pred/2023-May-31-1438_sub9_nm5_bs15_s42_ex16_mel10_mts1000_k50_ec05_g099_lra9e-4_lrc3e-3/b9a0748b4c4cb53be71f33acfe76cbadf25e0c0f_ligand_9.pdbqt
 14 15 0 0 0
SMALL
GASTEIGER

@<TRIPOS>ATOM
      1  C          5.8130    1.1810   -0.4400 C.3     1  UNL1        0.0800
      2  C          5.2220    1.2560    0.9250 C.2     1  UNL1        0.1300
      3  C          5.5500    0.2530    1.9740 C.3     1  UNL1        0.0870
      4  O          4.4460    2.1490    1.2240 O.2     1  UNL1       -0.3000
      5  C          7.3230    1.0550   -0.3810 C.3     1  UNL1        0.0430
      6  C          7.7890   -0.2140   -0.9660 C.2     1  UNL1       -0.0440
      7  C          8.0860   -0.3280   -2.3290 C.2     1  UNL1        0.0080
      8  C          7.9420   -1.3210   -0.1610 C.2     1  UNL1        0.0540
      9  C          8.5210   -1.5450   -2.8220 C.2     1  UNL1        0.0510
     10  C          8.3820   -2.5490   -0.6640 C.2     1  UNL1        0.1660
     11  C          8.6730   -2.6620   -2.0060 C.2     1  UNL1        0.1650
     12  O          8.6100   -3.7760   -0.0800 O.2     1  UNL1       -0.4540
     13  O          9.0800   -3.9690   -2.2190 O.2     1  UNL1       -0.4540
     14  C          9.1420   -4.6860   -1.0080 C.3     1  UNL1        0.4680
@<TRIPOS>BOND
     1     9     7    1
     2     9    11    2
     3     7     6    2
     4    13    11    1
     5    13    14    1
     6    11    10    1
     7    14    12    1
     8     6     5    1
     9     6     8    1
    10    10     8    2
    11    10    12    1
    12     1     5    1
    13     1     2    1
    14     2     4    2
    15     2     3    1
