@<TRIPOS>MOLECULE
/home/cewinharhar/GITHUB/reincatalyze/data/processed/docking_pred/2023-May-31-1438_sub9_nm5_bs15_s42_ex16_mel10_mts1000_k50_ec05_g099_lra9e-4_lrc3e-3/ba254a63d1f23417312e0ffefa4719b754a9a4bf_ligand_9.pdbqt
 14 15 0 0 0
SMALL
GASTEIGER

@<TRIPOS>ATOM
      1  C          6.3510    1.2260    0.8820 C.3     1  UNL1        0.0800
      2  C          5.6550    0.4150    1.9190 C.2     1  UNL1        0.1300
      3  C          6.2620   -0.8210    2.4820 C.3     1  UNL1        0.0870
      4  O          4.5570    0.7430    2.3400 O.2     1  UNL1       -0.3000
      5  C          5.8390    0.9010   -0.5070 C.3     1  UNL1        0.0430
      6  C          6.8050    0.0900   -1.2700 C.2     1  UNL1       -0.0440
      7  C          7.5170    0.6240   -2.3500 C.2     1  UNL1        0.0080
      8  C          7.0210   -1.2230   -0.9190 C.2     1  UNL1        0.0540
      9  C          8.4120   -0.1840   -3.0280 C.2     1  UNL1        0.0510
     10  C          7.9260   -2.0350   -1.6080 C.2     1  UNL1        0.1660
     11  C          8.6270   -1.5120   -2.6710 C.2     1  UNL1        0.1650
     12  O          8.3120   -3.3500   -1.4570 O.2     1  UNL1       -0.4540
     13  O          9.4380   -2.5260   -3.1560 O.2     1  UNL1       -0.4540
     14  C          9.3370   -3.6820   -2.3590 C.3     1  UNL1        0.4680
@<TRIPOS>BOND
     1    13    11    1
     2    13    14    1
     3     9    11    2
     4     9     7    1
     5    11    10    1
     6    14    12    1
     7     7     6    2
     8    10    12    1
     9    10     8    2
    10     6     8    1
    11     6     5    1
    12     5     1    1
    13     1     2    1
    14     2     4    2
    15     2     3    1
