@<TRIPOS>MOLECULE
/home/cewinharhar/GITHUB/reincatalyze/data/processed/docking_pred/2023-May-31-1438_sub9_nm5_bs15_s42_ex16_mel10_mts1000_k50_ec05_g099_lra9e-4_lrc3e-3/ba254a63d1f23417312e0ffefa4719b754a9a4bf_ligand_9.pdbqt
 14 15 0 0 0
SMALL
GASTEIGER

@<TRIPOS>ATOM
      1  C          7.0390    1.0920    1.1320 C.3     1  UNL1        0.0800
      2  C          5.5830    1.2310    1.4120 C.2     1  UNL1        0.1300
      3  C          4.7200    2.1500    0.6210 C.3     1  UNL1        0.0870
      4  O          5.0520    0.5900    2.3040 O.2     1  UNL1       -0.3000
      5  C          7.3270    1.1910   -0.3530 C.3     1  UNL1        0.0430
      6  C          7.6800   -0.1180   -0.9290 C.2     1  UNL1       -0.0440
      7  C          7.7910   -0.3040   -2.3120 C.2     1  UNL1        0.0080
      8  C          7.9120   -1.1900   -0.0980 C.2     1  UNL1        0.0540
      9  C          8.1270   -1.5550   -2.7960 C.2     1  UNL1        0.0510
     10  C          8.2520   -2.4530   -0.5920 C.2     1  UNL1        0.1660
     11  C          8.3600   -2.6370   -1.9520 C.2     1  UNL1        0.1650
     12  O          8.5260   -3.6580    0.0190 O.2     1  UNL1       -0.4540
     13  O          8.7030   -3.9650   -2.1510 O.2     1  UNL1       -0.4540
     14  C          8.9070   -4.6260   -0.9250 C.3     1  UNL1        0.4680
@<TRIPOS>BOND
     1     9     7    1
     2     9    11    2
     3     7     6    2
     4    13    11    1
     5    13    14    1
     6    11    10    1
     7     6     5    1
     8     6     8    1
     9    14    12    1
    10    10     8    2
    11    10    12    1
    12     5     1    1
    13     3     2    1
    14     1     2    1
    15     2     4    2
