@<TRIPOS>MOLECULE
/home/cewinharhar/GITHUB/reincatalyze/data/processed/docking_pred/2023-May-31-1438_sub9_nm5_bs15_s42_ex16_mel10_mts1000_k50_ec05_g099_lra9e-4_lrc3e-3/ba254a63d1f23417312e0ffefa4719b754a9a4bf_ligand_9.pdbqt
 14 15 0 0 0
SMALL
GASTEIGER

@<TRIPOS>ATOM
      1  C          5.7430    1.2450   -0.3250 C.3     1  UNL1        0.0800
      2  C          5.1800    1.2130    1.0540 C.2     1  UNL1        0.1300
      3  C          5.5800    0.1710    2.0370 C.3     1  UNL1        0.0870
      4  O          4.3680    2.0480    1.4180 O.2     1  UNL1       -0.3000
      5  C          7.2490    1.0720   -0.3090 C.3     1  UNL1        0.0430
      6  C          7.6590   -0.2090   -0.9120 C.2     1  UNL1       -0.0440
      7  C          7.8290   -0.3480   -2.2940 C.2     1  UNL1        0.0080
      8  C          7.8840   -1.3010   -0.1050 C.2     1  UNL1        0.0540
      9  C          8.2150   -1.5740   -2.8030 C.2     1  UNL1        0.0510
     10  C          8.2760   -2.5390   -0.6250 C.2     1  UNL1        0.1660
     11  C          8.4420   -2.6770   -1.9850 C.2     1  UNL1        0.1650
     12  O          8.5560   -3.7570   -0.0420 O.2     1  UNL1       -0.4540
     13  O          8.8260   -3.9890   -2.2110 O.2     1  UNL1       -0.4540
     14  C          8.9990   -4.6840   -0.9990 C.3     1  UNL1        0.4680
@<TRIPOS>BOND
     1     9     7    1
     2     9    11    2
     3     7     6    2
     4    13    11    1
     5    13    14    1
     6    11    10    1
     7    14    12    1
     8     6     5    1
     9     6     8    1
    10    10     8    2
    11    10    12    1
    12     1     5    1
    13     1     2    1
    14     2     4    2
    15     2     3    1
