MODEL 1
REMARK VINA RESULT:      -7.6      0.000      0.000
REMARK SMILES CC(=O)CCc1ccc2c(c1)OCO2
REMARK SMILES IDX 4 1 2 2 1 3 3 4 5 5 6 6 7 7 11 8 8 9 10 10 9 11 12 12 14 13
REMARK SMILES IDX 13 14
REMARK H PARENT
REMARK Flexibility Score: inf
ROOT
ATOM      1  C   UNL     1       5.543   1.925   1.272  1.00  0.00     0.080 C 
ENDROOT
BRANCH   1   2
ATOM      2  C   UNL     1       5.123   0.704   2.015  1.00  0.00     0.130 C 
ATOM      3  C   UNL     1       6.038  -0.455   2.191  1.00  0.00     0.087 C 
ATOM      4  O   UNL     1       4.008   0.621   2.503  1.00  0.00    -0.300 OA
ENDBRANCH   1   2
BRANCH   1   5
ATOM      5  C   UNL     1       5.411   1.730  -0.226  1.00  0.00     0.043 C 
BRANCH   5   6
ATOM      6  C   UNL     1       6.577   1.026  -0.790  1.00  0.00    -0.044 A 
ATOM      7  C   UNL     1       7.885   1.451  -0.533  1.00  0.00     0.008 A 
ATOM      8  C   UNL     1       6.386  -0.078  -1.589  1.00  0.00     0.054 A 
ATOM      9  C   UNL     1       8.940   0.751  -1.089  1.00  0.00     0.051 A 
ATOM     10  C   UNL     1       7.455  -0.784  -2.148  1.00  0.00     0.166 A 
ATOM     11  C   UNL     1       8.743  -0.365  -1.896  1.00  0.00     0.165 A 
ATOM     12  O   UNL     1       7.526  -1.894  -2.963  1.00  0.00    -0.454 OA
ATOM     13  O   UNL     1       9.586  -1.237  -2.567  1.00  0.00    -0.454 OA
ATOM     14  C   UNL     1       8.860  -2.275  -3.182  1.00  0.00     0.468 C 
ENDBRANCH   5   6
ENDBRANCH   1   5
TORSDOF 3
ENDMDL
MODEL 2
REMARK VINA RESULT:      -7.4      1.919      2.381
REMARK SMILES CC(=O)CCc1ccc2c(c1)OCO2
REMARK SMILES IDX 4 1 2 2 1 3 3 4 5 5 6 6 7 7 11 8 8 9 10 10 9 11 12 12 14 13
REMARK SMILES IDX 13 14
REMARK H PARENT
REMARK Flexibility Score: inf
ROOT
ATOM      1  C   UNL     1       5.743   1.245  -0.325  1.00  0.00     0.080 C 
ENDROOT
BRANCH   1   2
ATOM      2  C   UNL     1       5.180   1.213   1.054  1.00  0.00     0.130 C 
ATOM      3  C   UNL     1       5.580   0.171   2.037  1.00  0.00     0.087 C 
ATOM      4  O   UNL     1       4.368   2.048   1.418  1.00  0.00    -0.300 OA
ENDBRANCH   1   2
BRANCH   1   5
ATOM      5  C   UNL     1       7.249   1.072  -0.309  1.00  0.00     0.043 C 
BRANCH   5   6
ATOM      6  C   UNL     1       7.659  -0.209  -0.912  1.00  0.00    -0.044 A 
ATOM      7  C   UNL     1       7.829  -0.348  -2.294  1.00  0.00     0.008 A 
ATOM      8  C   UNL     1       7.884  -1.301  -0.105  1.00  0.00     0.054 A 
ATOM      9  C   UNL     1       8.215  -1.574  -2.803  1.00  0.00     0.051 A 
ATOM     10  C   UNL     1       8.276  -2.539  -0.625  1.00  0.00     0.166 A 
ATOM     11  C   UNL     1       8.442  -2.677  -1.985  1.00  0.00     0.165 A 
ATOM     12  O   UNL     1       8.556  -3.757  -0.042  1.00  0.00    -0.454 OA
ATOM     13  O   UNL     1       8.826  -3.989  -2.211  1.00  0.00    -0.454 OA
ATOM     14  C   UNL     1       8.999  -4.684  -0.999  1.00  0.00     0.468 C 
ENDBRANCH   5   6
ENDBRANCH   1   5
TORSDOF 3
ENDMDL
MODEL 3
REMARK VINA RESULT:      -7.1      2.100      2.643
REMARK SMILES CC(=O)CCc1ccc2c(c1)OCO2
REMARK SMILES IDX 4 1 2 2 1 3 3 4 5 5 6 6 7 7 11 8 8 9 10 10 9 11 12 12 14 13
REMARK SMILES IDX 13 14
REMARK H PARENT
REMARK Flexibility Score: inf
ROOT
ATOM      1  C   UNL     1       5.528  -0.053   1.938  1.00  0.00     0.080 C 
ENDROOT
BRANCH   1   2
ATOM      2  C   UNL     1       4.685   1.139   1.642  1.00  0.00     0.130 C 
ATOM      3  C   UNL     1       4.998   2.056   0.513  1.00  0.00     0.087 C 
ATOM      4  O   UNL     1       3.707   1.399   2.324  1.00  0.00    -0.300 OA
ENDBRANCH   1   2
BRANCH   1   5
ATOM      5  C   UNL     1       6.971   0.180   1.536  1.00  0.00     0.043 C 
BRANCH   5   6
ATOM      6  C   UNL     1       7.403  -0.755   0.482  1.00  0.00    -0.044 A 
ATOM      7  C   UNL     1       7.316  -0.422  -0.874  1.00  0.00     0.008 A 
ATOM      8  C   UNL     1       7.908  -1.988   0.829  1.00  0.00     0.054 A 
ATOM      9  C   UNL     1       7.737  -1.339  -1.819  1.00  0.00     0.051 A 
ATOM     10  C   UNL     1       8.333  -2.912  -0.130  1.00  0.00     0.166 A 
ATOM     11  C   UNL     1       8.246  -2.585  -1.465  1.00  0.00     0.165 A 
ATOM     12  O   UNL     1       8.862  -4.182  -0.042  1.00  0.00    -0.454 OA
ATOM     13  O   UNL     1       8.730  -3.672  -2.176  1.00  0.00    -0.454 OA
ATOM     14  C   UNL     1       9.216  -4.670  -1.310  1.00  0.00     0.468 C 
ENDBRANCH   5   6
ENDBRANCH   1   5
TORSDOF 3
ENDMDL
MODEL 4
REMARK VINA RESULT:      -7.1      1.245      1.452
REMARK SMILES CC(=O)CCc1ccc2c(c1)OCO2
REMARK SMILES IDX 4 1 2 2 1 3 3 4 5 5 6 6 7 7 11 8 8 9 10 10 9 11 12 12 14 13
REMARK SMILES IDX 13 14
REMARK H PARENT
REMARK Flexibility Score: inf
ROOT
ATOM      1  C   UNL     1       6.351   1.226   0.882  1.00  0.00     0.080 C 
ENDROOT
BRANCH   1   2
ATOM      2  C   UNL     1       5.655   0.415   1.919  1.00  0.00     0.130 C 
ATOM      3  C   UNL     1       6.262  -0.821   2.482  1.00  0.00     0.087 C 
ATOM      4  O   UNL     1       4.557   0.743   2.340  1.00  0.00    -0.300 OA
ENDBRANCH   1   2
BRANCH   1   5
ATOM      5  C   UNL     1       5.839   0.901  -0.507  1.00  0.00     0.043 C 
BRANCH   5   6
ATOM      6  C   UNL     1       6.805   0.090  -1.270  1.00  0.00    -0.044 A 
ATOM      7  C   UNL     1       7.517   0.624  -2.350  1.00  0.00     0.008 A 
ATOM      8  C   UNL     1       7.021  -1.223  -0.919  1.00  0.00     0.054 A 
ATOM      9  C   UNL     1       8.412  -0.184  -3.028  1.00  0.00     0.051 A 
ATOM     10  C   UNL     1       7.926  -2.035  -1.608  1.00  0.00     0.166 A 
ATOM     11  C   UNL     1       8.627  -1.512  -2.671  1.00  0.00     0.165 A 
ATOM     12  O   UNL     1       8.312  -3.350  -1.457  1.00  0.00    -0.454 OA
ATOM     13  O   UNL     1       9.438  -2.526  -3.156  1.00  0.00    -0.454 OA
ATOM     14  C   UNL     1       9.337  -3.682  -2.359  1.00  0.00     0.468 C 
ENDBRANCH   5   6
ENDBRANCH   1   5
TORSDOF 3
ENDMDL
MODEL 5
REMARK VINA RESULT:      -6.9      1.927      2.487
REMARK SMILES CC(=O)CCc1ccc2c(c1)OCO2
REMARK SMILES IDX 4 1 2 2 1 3 3 4 5 5 6 6 7 7 11 8 8 9 10 10 9 11 12 12 14 13
REMARK SMILES IDX 13 14
REMARK H PARENT
REMARK Flexibility Score: inf
ROOT
ATOM      1  C   UNL     1       7.039   1.092   1.132  1.00  0.00     0.080 C 
ENDROOT
BRANCH   1   2
ATOM      2  C   UNL     1       5.583   1.231   1.412  1.00  0.00     0.130 C 
ATOM      3  C   UNL     1       4.720   2.150   0.621  1.00  0.00     0.087 C 
ATOM      4  O   UNL     1       5.052   0.590   2.304  1.00  0.00    -0.300 OA
ENDBRANCH   1   2
BRANCH   1   5
ATOM      5  C   UNL     1       7.327   1.191  -0.353  1.00  0.00     0.043 C 
BRANCH   5   6
ATOM      6  C   UNL     1       7.680  -0.118  -0.929  1.00  0.00    -0.044 A 
ATOM      7  C   UNL     1       7.791  -0.304  -2.312  1.00  0.00     0.008 A 
ATOM      8  C   UNL     1       7.912  -1.190  -0.098  1.00  0.00     0.054 A 
ATOM      9  C   UNL     1       8.127  -1.555  -2.796  1.00  0.00     0.051 A 
ATOM     10  C   UNL     1       8.252  -2.453  -0.592  1.00  0.00     0.166 A 
ATOM     11  C   UNL     1       8.360  -2.637  -1.952  1.00  0.00     0.165 A 
ATOM     12  O   UNL     1       8.526  -3.658   0.019  1.00  0.00    -0.454 OA
ATOM     13  O   UNL     1       8.703  -3.965  -2.151  1.00  0.00    -0.454 OA
ATOM     14  C   UNL     1       8.907  -4.626  -0.925  1.00  0.00     0.468 C 
ENDBRANCH   5   6
ENDBRANCH   1   5
TORSDOF 3
ENDMDL
