@<TRIPOS>MOLECULE
/home/cewinharhar/GITHUB/reincatalyze/data/processed/docking_pred/2023-May-31-1438_sub9_nm5_bs15_s42_ex16_mel10_mts1000_k50_ec05_g099_lra9e-4_lrc3e-3/bb509c9d750c31c787a0dfaad7ceec12964b61ea_ligand_9.pdbqt
 14 15 0 0 0
SMALL
GASTEIGER

@<TRIPOS>ATOM
      1  C          6.3790    1.2030    0.9150 C.3     1  UNL1        0.0800
      2  C          5.6810    0.3720    1.9360 C.2     1  UNL1        0.1300
      3  C          6.3120   -0.8420    2.5180 C.3     1  UNL1        0.0870
      4  O          4.5630    0.6660    2.3250 O.2     1  UNL1       -0.3000
      5  C          5.8640    0.9100   -0.4800 C.3     1  UNL1        0.0430
      6  C          6.8150    0.0910   -1.2530 C.2     1  UNL1       -0.0440
      7  C          7.5020    0.6110   -2.3560 C.2     1  UNL1        0.0080
      8  C          7.0420   -1.2160   -0.8890 C.2     1  UNL1        0.0540
      9  C          8.3830   -0.2040   -3.0430 C.2     1  UNL1        0.0510
     10  C          7.9340   -2.0360   -1.5870 C.2     1  UNL1        0.1660
     11  C          8.6100   -1.5260   -2.6720 C.2     1  UNL1        0.1650
     12  O          8.3260   -3.3480   -1.4260 O.2     1  UNL1       -0.4540
     13  O          9.4120   -2.5450   -3.1610 O.2     1  UNL1       -0.4540
     14  C          9.3310   -3.6900   -2.3460 C.3     1  UNL1        0.4680
@<TRIPOS>BOND
     1    13    11    1
     2    13    14    1
     3     9    11    2
     4     9     7    1
     5    11    10    1
     6     7     6    2
     7    14    12    1
     8    10    12    1
     9    10     8    2
    10     6     8    1
    11     6     5    1
    12     5     1    1
    13     1     2    1
    14     2     4    2
    15     2     3    1
