MODEL 1
REMARK VINA RESULT:      -7.7      0.000      0.000
REMARK SMILES CC(=O)CCc1ccc2c(c1)OCO2
REMARK SMILES IDX 4 1 2 2 1 3 3 4 5 5 6 6 7 7 11 8 8 9 10 10 9 11 12 12 14 13
REMARK SMILES IDX 13 14
REMARK H PARENT
REMARK Flexibility Score: inf
ROOT
ATOM      1  C   UNL     1       5.502   1.926   1.256  1.00  0.00     0.080 C 
ENDROOT
BRANCH   1   2
ATOM      2  C   UNL     1       5.060   0.712   1.997  1.00  0.00     0.130 C 
ATOM      3  C   UNL     1       5.946  -0.473   2.153  1.00  0.00     0.087 C 
ATOM      4  O   UNL     1       3.951   0.655   2.502  1.00  0.00    -0.300 OA
ENDBRANCH   1   2
BRANCH   1   5
ATOM      5  C   UNL     1       5.380   1.731  -0.242  1.00  0.00     0.043 C 
BRANCH   5   6
ATOM      6  C   UNL     1       6.551   1.030  -0.799  1.00  0.00    -0.044 A 
ATOM      7  C   UNL     1       7.856   1.464  -0.541  1.00  0.00     0.008 A 
ATOM      8  C   UNL     1       6.368  -0.081  -1.592  1.00  0.00     0.054 A 
ATOM      9  C   UNL     1       8.916   0.765  -1.090  1.00  0.00     0.051 A 
ATOM     10  C   UNL     1       7.443  -0.783  -2.144  1.00  0.00     0.166 A 
ATOM     11  C   UNL     1       8.728  -0.357  -1.891  1.00  0.00     0.165 A 
ATOM     12  O   UNL     1       7.522  -1.898  -2.952  1.00  0.00    -0.454 OA
ATOM     13  O   UNL     1       9.577  -1.228  -2.555  1.00  0.00    -0.454 OA
ATOM     14  C   UNL     1       8.858  -2.273  -3.165  1.00  0.00     0.468 C 
ENDBRANCH   5   6
ENDBRANCH   1   5
TORSDOF 3
ENDMDL
MODEL 2
REMARK VINA RESULT:      -7.5      1.935      2.388
REMARK SMILES CC(=O)CCc1ccc2c(c1)OCO2
REMARK SMILES IDX 4 1 2 2 1 3 3 4 5 5 6 6 7 7 11 8 8 9 10 10 9 11 12 12 14 13
REMARK SMILES IDX 13 14
REMARK H PARENT
REMARK Flexibility Score: inf
ROOT
ATOM      1  C   UNL     1       5.720   1.267  -0.302  1.00  0.00     0.080 C 
ENDROOT
BRANCH   1   2
ATOM      2  C   UNL     1       5.137   1.227   1.069  1.00  0.00     0.130 C 
ATOM      3  C   UNL     1       5.356   0.068   1.976  1.00  0.00     0.087 C 
ATOM      4  O   UNL     1       4.459   2.150   1.489  1.00  0.00    -0.300 OA
ENDBRANCH   1   2
BRANCH   1   5
ATOM      5  C   UNL     1       7.224   1.081  -0.267  1.00  0.00     0.043 C 
BRANCH   5   6
ATOM      6  C   UNL     1       7.629  -0.202  -0.868  1.00  0.00    -0.044 A 
ATOM      7  C   UNL     1       7.770  -0.351  -2.253  1.00  0.00     0.008 A 
ATOM      8  C   UNL     1       7.881  -1.286  -0.058  1.00  0.00     0.054 A 
ATOM      9  C   UNL     1       8.154  -1.578  -2.760  1.00  0.00     0.051 A 
ATOM     10  C   UNL     1       8.270  -2.525  -0.576  1.00  0.00     0.166 A 
ATOM     11  C   UNL     1       8.407  -2.672  -1.938  1.00  0.00     0.165 A 
ATOM     12  O   UNL     1       8.572  -3.736   0.010  1.00  0.00    -0.454 OA
ATOM     13  O   UNL     1       8.796  -3.984  -2.162  1.00  0.00    -0.454 OA
ATOM     14  C   UNL     1       9.001  -4.668  -0.949  1.00  0.00     0.468 C 
ENDBRANCH   5   6
ENDBRANCH   1   5
TORSDOF 3
ENDMDL
MODEL 3
REMARK VINA RESULT:      -7.2      2.067      2.627
REMARK SMILES CC(=O)CCc1ccc2c(c1)OCO2
REMARK SMILES IDX 4 1 2 2 1 3 3 4 5 5 6 6 7 7 11 8 8 9 10 10 9 11 12 12 14 13
REMARK SMILES IDX 13 14
REMARK H PARENT
REMARK Flexibility Score: inf
ROOT
ATOM      1  C   UNL     1       5.449  -0.026   1.985  1.00  0.00     0.080 C 
ENDROOT
BRANCH   1   2
ATOM      2  C   UNL     1       4.579   1.156   1.731  1.00  0.00     0.130 C 
ATOM      3  C   UNL     1       4.874   2.123   0.640  1.00  0.00     0.087 C 
ATOM      4  O   UNL     1       3.592   1.367   2.418  1.00  0.00    -0.300 OA
ENDBRANCH   1   2
BRANCH   1   5
ATOM      5  C   UNL     1       6.873   0.232   1.535  1.00  0.00     0.043 C 
BRANCH   5   6
ATOM      6  C   UNL     1       7.295  -0.714   0.486  1.00  0.00    -0.044 A 
ATOM      7  C   UNL     1       7.168  -0.405  -0.873  1.00  0.00     0.008 A 
ATOM      8  C   UNL     1       7.830  -1.931   0.840  1.00  0.00     0.054 A 
ATOM      9  C   UNL     1       7.581  -1.332  -1.813  1.00  0.00     0.051 A 
ATOM     10  C   UNL     1       8.247  -2.864  -0.114  1.00  0.00     0.166 A 
ATOM     11  C   UNL     1       8.121  -2.562  -1.451  1.00  0.00     0.165 A 
ATOM     12  O   UNL     1       8.801  -4.123  -0.017  1.00  0.00    -0.454 OA
ATOM     13  O   UNL     1       8.606  -3.653  -2.156  1.00  0.00    -0.454 OA
ATOM     14  C   UNL     1       9.131  -4.627  -1.286  1.00  0.00     0.468 C 
ENDBRANCH   5   6
ENDBRANCH   1   5
TORSDOF 3
ENDMDL
MODEL 4
REMARK VINA RESULT:      -7.1      1.258      1.476
REMARK SMILES CC(=O)CCc1ccc2c(c1)OCO2
REMARK SMILES IDX 4 1 2 2 1 3 3 4 5 5 6 6 7 7 11 8 8 9 10 10 9 11 12 12 14 13
REMARK SMILES IDX 13 14
REMARK H PARENT
REMARK Flexibility Score: inf
ROOT
ATOM      1  C   UNL     1       6.379   1.203   0.915  1.00  0.00     0.080 C 
ENDROOT
BRANCH   1   2
ATOM      2  C   UNL     1       5.681   0.372   1.936  1.00  0.00     0.130 C 
ATOM      3  C   UNL     1       6.312  -0.842   2.518  1.00  0.00     0.087 C 
ATOM      4  O   UNL     1       4.563   0.666   2.325  1.00  0.00    -0.300 OA
ENDBRANCH   1   2
BRANCH   1   5
ATOM      5  C   UNL     1       5.864   0.910  -0.480  1.00  0.00     0.043 C 
BRANCH   5   6
ATOM      6  C   UNL     1       6.815   0.091  -1.253  1.00  0.00    -0.044 A 
ATOM      7  C   UNL     1       7.502   0.611  -2.356  1.00  0.00     0.008 A 
ATOM      8  C   UNL     1       7.042  -1.216  -0.889  1.00  0.00     0.054 A 
ATOM      9  C   UNL     1       8.383  -0.204  -3.043  1.00  0.00     0.051 A 
ATOM     10  C   UNL     1       7.934  -2.036  -1.587  1.00  0.00     0.166 A 
ATOM     11  C   UNL     1       8.610  -1.526  -2.672  1.00  0.00     0.165 A 
ATOM     12  O   UNL     1       8.326  -3.348  -1.426  1.00  0.00    -0.454 OA
ATOM     13  O   UNL     1       9.412  -2.545  -3.161  1.00  0.00    -0.454 OA
ATOM     14  C   UNL     1       9.331  -3.690  -2.346  1.00  0.00     0.468 C 
ENDBRANCH   5   6
ENDBRANCH   1   5
TORSDOF 3
ENDMDL
MODEL 5
REMARK VINA RESULT:      -6.8      1.271      1.758
REMARK SMILES CC(=O)CCc1ccc2c(c1)OCO2
REMARK SMILES IDX 4 1 2 2 1 3 3 4 5 5 6 6 7 7 11 8 8 9 10 10 9 11 12 12 14 13
REMARK SMILES IDX 13 14
REMARK H PARENT
REMARK Flexibility Score: inf
ROOT
ATOM      1  C   UNL     1       5.343  -0.046   1.975  1.00  0.00     0.080 C 
ENDROOT
BRANCH   1   2
ATOM      2  C   UNL     1       4.457   1.136   1.785  1.00  0.00     0.130 C 
ATOM      3  C   UNL     1       4.722   2.149   0.728  1.00  0.00     0.087 C 
ATOM      4  O   UNL     1       3.480   1.308   2.496  1.00  0.00    -0.300 OA
ENDBRANCH   1   2
BRANCH   1   5
ATOM      5  C   UNL     1       6.806   0.345   1.893  1.00  0.00     0.043 C 
BRANCH   5   6
ATOM      6  C   UNL     1       7.398  -0.028   0.596  1.00  0.00    -0.044 A 
ATOM      7  C   UNL     1       7.873   0.939  -0.298  1.00  0.00     0.008 A 
ATOM      8  C   UNL     1       7.495  -1.356   0.247  1.00  0.00     0.054 A 
ATOM      9  C   UNL     1       8.420   0.530  -1.500  1.00  0.00     0.051 A 
ATOM     10  C   UNL     1       8.050  -1.764  -0.970  1.00  0.00     0.166 A 
ATOM     11  C   UNL     1       8.516  -0.813  -1.851  1.00  0.00     0.165 A 
ATOM     12  O   UNL     1       8.255  -3.002  -1.541  1.00  0.00    -0.454 OA
ATOM     13  O   UNL     1       9.003  -1.495  -2.955  1.00  0.00    -0.454 OA
ATOM     14  C   UNL     1       8.941  -2.887  -2.761  1.00  0.00     0.468 C 
ENDBRANCH   5   6
ENDBRANCH   1   5
TORSDOF 3
ENDMDL
