@<TRIPOS>MOLECULE
/home/cewinharhar/GITHUB/reincatalyze/data/processed/docking_pred/2023-May-31-1438_sub9_nm5_bs15_s42_ex16_mel10_mts1000_k50_ec05_g099_lra9e-4_lrc3e-3/bb509c9d750c31c787a0dfaad7ceec12964b61ea_ligand_9.pdbqt
 14 15 0 0 0
SMALL
GASTEIGER

@<TRIPOS>ATOM
      1  C          5.7200    1.2670   -0.3020 C.3     1  UNL1        0.0800
      2  C          5.1370    1.2270    1.0690 C.2     1  UNL1        0.1300
      3  C          5.3560    0.0680    1.9760 C.3     1  UNL1        0.0870
      4  O          4.4590    2.1500    1.4890 O.2     1  UNL1       -0.3000
      5  C          7.2240    1.0810   -0.2670 C.3     1  UNL1        0.0430
      6  C          7.6290   -0.2020   -0.8680 C.2     1  UNL1       -0.0440
      7  C          7.7700   -0.3510   -2.2530 C.2     1  UNL1        0.0080
      8  C          7.8810   -1.2860   -0.0580 C.2     1  UNL1        0.0540
      9  C          8.1540   -1.5780   -2.7600 C.2     1  UNL1        0.0510
     10  C          8.2700   -2.5250   -0.5760 C.2     1  UNL1        0.1660
     11  C          8.4070   -2.6720   -1.9380 C.2     1  UNL1        0.1650
     12  O          8.5720   -3.7360    0.0100 O.2     1  UNL1       -0.4540
     13  O          8.7960   -3.9840   -2.1620 O.2     1  UNL1       -0.4540
     14  C          9.0010   -4.6680   -0.9490 C.3     1  UNL1        0.4680
@<TRIPOS>BOND
     1     9     7    1
     2     9    11    2
     3     7     6    2
     4    13    11    1
     5    13    14    1
     6    11    10    1
     7    14    12    1
     8     6     5    1
     9     6     8    1
    10    10     8    2
    11    10    12    1
    12     1     5    1
    13     1     2    1
    14     2     4    2
    15     2     3    1
