@<TRIPOS>MOLECULE
/home/cewinharhar/GITHUB/reincatalyze/data/processed/docking_pred/2023-May-31-1438_sub9_nm5_bs15_s42_ex16_mel10_mts1000_k50_ec05_g099_lra9e-4_lrc3e-3/bb509c9d750c31c787a0dfaad7ceec12964b61ea_ligand_9.pdbqt
 14 15 0 0 0
SMALL
GASTEIGER

@<TRIPOS>ATOM
      1  C          5.3430   -0.0460    1.9750 C.3     1  UNL1        0.0800
      2  C          4.4570    1.1360    1.7850 C.2     1  UNL1        0.1300
      3  C          4.7220    2.1490    0.7280 C.3     1  UNL1        0.0870
      4  O          3.4800    1.3080    2.4960 O.2     1  UNL1       -0.3000
      5  C          6.8060    0.3450    1.8930 C.3     1  UNL1        0.0430
      6  C          7.3980   -0.0280    0.5960 C.2     1  UNL1       -0.0440
      7  C          7.8730    0.9390   -0.2980 C.2     1  UNL1        0.0080
      8  C          7.4950   -1.3560    0.2470 C.2     1  UNL1        0.0540
      9  C          8.4200    0.5300   -1.5000 C.2     1  UNL1        0.0510
     10  C          8.0500   -1.7640   -0.9700 C.2     1  UNL1        0.1660
     11  C          8.5160   -0.8130   -1.8510 C.2     1  UNL1        0.1650
     12  O          8.2550   -3.0020   -1.5410 O.2     1  UNL1       -0.4540
     13  O          9.0030   -1.4950   -2.9550 O.2     1  UNL1       -0.4540
     14  C          8.9410   -2.8870   -2.7610 C.3     1  UNL1        0.4680
@<TRIPOS>BOND
     1    13    14    1
     2    13    11    1
     3    14    12    1
     4    11     9    2
     5    11    10    1
     6    12    10    1
     7     9     7    1
     8    10     8    2
     9     7     6    2
    10     8     6    1
    11     6     5    1
    12     3     2    1
    13     2     1    1
    14     2     4    2
    15     5     1    1
