@<TRIPOS>MOLECULE
/home/cewinharhar/GITHUB/reincatalyze/data/processed/docking_pred/2023-May-31-1438_sub9_nm5_bs15_s42_ex16_mel10_mts1000_k50_ec05_g099_lra9e-4_lrc3e-3/bb509c9d750c31c787a0dfaad7ceec12964b61ea_ligand_9.pdbqt
 14 15 0 0 0
SMALL
GASTEIGER

@<TRIPOS>ATOM
      1  C          5.5020    1.9260    1.2560 C.3     1  UNL1        0.0800
      2  C          5.0600    0.7120    1.9970 C.2     1  UNL1        0.1300
      3  C          5.9460   -0.4730    2.1530 C.3     1  UNL1        0.0870
      4  O          3.9510    0.6550    2.5020 O.2     1  UNL1       -0.3000
      5  C          5.3800    1.7310   -0.2420 C.3     1  UNL1        0.0430
      6  C          6.5510    1.0300   -0.7990 C.2     1  UNL1       -0.0440
      7  C          7.8560    1.4640   -0.5410 C.2     1  UNL1        0.0080
      8  C          6.3680   -0.0810   -1.5920 C.2     1  UNL1        0.0540
      9  C          8.9160    0.7650   -1.0900 C.2     1  UNL1        0.0510
     10  C          7.4430   -0.7830   -2.1440 C.2     1  UNL1        0.1660
     11  C          8.7280   -0.3570   -1.8910 C.2     1  UNL1        0.1650
     12  O          7.5220   -1.8980   -2.9520 O.2     1  UNL1       -0.4540
     13  O          9.5770   -1.2280   -2.5550 O.2     1  UNL1       -0.4540
     14  C          8.8580   -2.2730   -3.1650 C.3     1  UNL1        0.4680
@<TRIPOS>BOND
     1    14    12    1
     2    14    13    1
     3    12    10    1
     4    13    11    1
     5    10    11    2
     6    10     8    1
     7    11     9    1
     8     8     6    2
     9     9     7    2
    10     6     7    1
    11     6     5    1
    12     5     1    1
    13     1     2    1
    14     2     3    1
    15     2     4    2
