@<TRIPOS>MOLECULE
/home/cewinharhar/GITHUB/reincatalyze/data/processed/docking_pred/2023-May-31-1438_sub9_nm5_bs15_s42_ex16_mel10_mts1000_k50_ec05_g099_lra9e-4_lrc3e-3/bb8285001221c2ec88d34c7e342a921234d5c761_ligand_9.pdbqt
 14 15 0 0 0
SMALL
GASTEIGER

@<TRIPOS>ATOM
      1  C          5.7680    1.3680   -0.2710 C.3     1  UNL1        0.0800
      2  C          5.1040    1.2710    1.0580 C.2     1  UNL1        0.1300
      3  C          5.3260    0.1100    1.9600 C.3     1  UNL1        0.0870
      4  O          4.3520    2.1500    1.4480 O.2     1  UNL1       -0.3000
      5  C          7.2540    1.0860   -0.1660 C.3     1  UNL1        0.0430
      6  C          7.6130   -0.1960   -0.7980 C.2     1  UNL1       -0.0440
      7  C          7.6120   -0.3540   -2.1890 C.2     1  UNL1        0.0080
      8  C          7.9630   -1.2700   -0.0110 C.2     1  UNL1        0.0540
      9  C          7.9590   -1.5800   -2.7250 C.2     1  UNL1        0.0510
     10  C          8.3140   -2.5080   -0.5590 C.2     1  UNL1        0.1660
     11  C          8.3110   -2.6640   -1.9270 C.2     1  UNL1        0.1650
     12  O          8.6930   -3.7090    0.0010 O.2     1  UNL1       -0.4540
     13  O          8.6940   -3.9720   -2.1820 O.2     1  UNL1       -0.4540
     14  C          9.0330   -4.6430   -0.9920 C.3     1  UNL1        0.4680
@<TRIPOS>BOND
     1     9     7    1
     2     9    11    2
     3     7     6    2
     4    13    11    1
     5    13    14    1
     6    11    10    1
     7    14    12    1
     8     6     5    1
     9     6     8    1
    10    10     8    2
    11    10    12    1
    12     1     5    1
    13     1     2    1
    14     2     4    2
    15     2     3    1
