@<TRIPOS>MOLECULE
/home/cewinharhar/GITHUB/reincatalyze/data/processed/docking_pred/2023-May-31-1438_sub9_nm5_bs15_s42_ex16_mel10_mts1000_k50_ec05_g099_lra9e-4_lrc3e-3/bb8285001221c2ec88d34c7e342a921234d5c761_ligand_9.pdbqt
 14 15 0 0 0
SMALL
GASTEIGER

@<TRIPOS>ATOM
      1  C          5.2930   -0.0820    1.9470 C.3     1  UNL1        0.0800
      2  C          4.4320    1.1220    1.7840 C.2     1  UNL1        0.1300
      3  C          4.7150    2.1500    0.7470 C.3     1  UNL1        0.0870
      4  O          3.4620    1.3010    2.5030 O.2     1  UNL1       -0.3000
      5  C          6.7640    0.2830    1.9050 C.3     1  UNL1        0.0430
      6  C          7.3770   -0.0650    0.6110 C.2     1  UNL1       -0.0440
      7  C          7.8710    0.9190   -0.2530 C.2     1  UNL1        0.0080
      8  C          7.4730   -1.3850    0.2340 C.2     1  UNL1        0.0540
      9  C          8.4370    0.5330   -1.4550 C.2     1  UNL1        0.0510
     10  C          8.0460   -1.7700   -0.9810 C.2     1  UNL1        0.1660
     11  C          8.5320   -0.8030   -1.8330 C.2     1  UNL1        0.1650
     12  O          8.2550   -2.9960   -1.5750 O.2     1  UNL1       -0.4540
     13  O          9.0350   -1.4630   -2.9430 O.2     1  UNL1       -0.4540
     14  C          8.9620   -2.8590   -2.7810 C.3     1  UNL1        0.4680
@<TRIPOS>BOND
     1    13    14    1
     2    13    11    1
     3    14    12    1
     4    11     9    2
     5    11    10    1
     6    12    10    1
     7     9     7    1
     8    10     8    2
     9     7     6    2
    10     8     6    1
    11     6     5    1
    12     3     2    1
    13     2     1    1
    14     2     4    2
    15     5     1    1
