@<TRIPOS>MOLECULE
/home/cewinharhar/GITHUB/reincatalyze/data/processed/docking_pred/2023-May-31-1438_sub9_nm5_bs15_s42_ex16_mel10_mts1000_k50_ec05_g099_lra9e-4_lrc3e-3/bb8285001221c2ec88d34c7e342a921234d5c761_ligand_9.pdbqt
 14 15 0 0 0
SMALL
GASTEIGER

@<TRIPOS>ATOM
      1  C          6.3970    1.2070    0.9380 C.3     1  UNL1        0.0800
      2  C          5.6720    0.3660    1.9310 C.2     1  UNL1        0.1300
      3  C          6.2780   -0.8670    2.5010 C.3     1  UNL1        0.0870
      4  O          4.5510    0.6680    2.3080 O.2     1  UNL1       -0.3000
      5  C          5.8910    0.9560   -0.4690 C.3     1  UNL1        0.0430
      6  C          6.8260    0.1230   -1.2450 C.2     1  UNL1       -0.0440
      7  C          7.5080    0.6280   -2.3580 C.2     1  UNL1        0.0080
      8  C          7.0430   -1.1850   -0.8750 C.2     1  UNL1        0.0540
      9  C          8.3740   -0.2010   -3.0480 C.2     1  UNL1        0.0510
     10  C          7.9200   -2.0190   -1.5760 C.2     1  UNL1        0.1660
     11  C          8.5900   -1.5230   -2.6710 C.2     1  UNL1        0.1650
     12  O          8.3000   -3.3340   -1.4100 O.2     1  UNL1       -0.4540
     13  O          9.3770   -2.5540   -3.1600 O.2     1  UNL1       -0.4540
     14  C          9.2930   -3.6920   -2.3370 C.3     1  UNL1        0.4680
@<TRIPOS>BOND
     1    13    11    1
     2    13    14    1
     3     9    11    2
     4     9     7    1
     5    11    10    1
     6     7     6    2
     7    14    12    1
     8    10    12    1
     9    10     8    2
    10     6     8    1
    11     6     5    1
    12     5     1    1
    13     1     2    1
    14     2     4    2
    15     2     3    1
