@<TRIPOS>MOLECULE
/home/cewinharhar/GITHUB/reincatalyze/data/processed/docking_pred/2023-May-31-1438_sub9_nm5_bs15_s42_ex16_mel10_mts1000_k50_ec05_g099_lra9e-4_lrc3e-3/bb8285001221c2ec88d34c7e342a921234d5c761_ligand_9.pdbqt
 14 15 0 0 0
SMALL
GASTEIGER

@<TRIPOS>ATOM
      1  C          5.5420   -0.0530    1.9440 C.3     1  UNL1        0.0800
      2  C          4.6940    1.1340    1.6430 C.2     1  UNL1        0.1300
      3  C          5.0290    2.0720    0.5380 C.3     1  UNL1        0.0870
      4  O          3.6940    1.3730    2.3000 O.2     1  UNL1       -0.3000
      5  C          6.9780    0.1720    1.5140 C.3     1  UNL1        0.0430
      6  C          7.3870   -0.7730    0.4600 C.2     1  UNL1       -0.0440
      7  C          7.2850   -0.4470   -0.8970 C.2     1  UNL1        0.0080
      8  C          7.8850   -2.0080    0.8080 C.2     1  UNL1        0.0540
      9  C          7.6850   -1.3750   -1.8420 C.2     1  UNL1        0.0510
     10  C          8.2890   -2.9420   -0.1510 C.2     1  UNL1        0.1660
     11  C          8.1880   -2.6230   -1.4870 C.2     1  UNL1        0.1650
     12  O          8.8080   -4.2160   -0.0620 O.2     1  UNL1       -0.4540
     13  O          8.6530   -3.7180   -2.1980 O.2     1  UNL1       -0.4540
     14  C          9.1410   -4.7150   -1.3320 C.3     1  UNL1        0.4680
@<TRIPOS>BOND
     1    13    11    1
     2    13    14    1
     3     9    11    2
     4     9     7    1
     5    11    10    1
     6    14    12    1
     7     7     6    2
     8    10    12    1
     9    10     8    2
    10     6     8    1
    11     6     5    1
    12     3     2    1
    13     5     1    1
    14     2     1    1
    15     2     4    2
