MODEL 1
REMARK VINA RESULT:      -7.7      0.000      0.000
REMARK SMILES CC(=O)CCc1ccc2c(c1)OCO2
REMARK SMILES IDX 4 1 2 2 1 3 3 4 5 5 6 6 7 7 11 8 8 9 10 10 9 11 12 12 14 13
REMARK SMILES IDX 13 14
REMARK H PARENT
REMARK Flexibility Score: inf
ROOT
ATOM      1  C   UNL     1       5.518   1.889   1.290  1.00  0.00     0.080 C 
ENDROOT
BRANCH   1   2
ATOM      2  C   UNL     1       5.076   0.667   2.016  1.00  0.00     0.130 C 
ATOM      3  C   UNL     1       5.963  -0.519   2.161  1.00  0.00     0.087 C 
ATOM      4  O   UNL     1       3.965   0.602   2.517  1.00  0.00    -0.300 OA
ENDBRANCH   1   2
BRANCH   1   5
ATOM      5  C   UNL     1       5.390   1.715  -0.211  1.00  0.00     0.043 C 
BRANCH   5   6
ATOM      6  C   UNL     1       6.557   1.018  -0.781  1.00  0.00    -0.044 A 
ATOM      7  C   UNL     1       7.864   1.453  -0.532  1.00  0.00     0.008 A 
ATOM      8  C   UNL     1       6.369  -0.089  -1.576  1.00  0.00     0.054 A 
ATOM      9  C   UNL     1       8.921   0.759  -1.094  1.00  0.00     0.051 A 
ATOM     10  C   UNL     1       7.441  -0.788  -2.141  1.00  0.00     0.166 A 
ATOM     11  C   UNL     1       8.727  -0.360  -1.898  1.00  0.00     0.165 A 
ATOM     12  O   UNL     1       7.514  -1.899  -2.954  1.00  0.00    -0.454 OA
ATOM     13  O   UNL     1       9.572  -1.226  -2.573  1.00  0.00    -0.454 OA
ATOM     14  C   UNL     1       8.849  -2.270  -3.181  1.00  0.00     0.468 C 
ENDBRANCH   5   6
ENDBRANCH   1   5
TORSDOF 3
ENDMDL
MODEL 2
REMARK VINA RESULT:      -7.4      1.937      2.399
REMARK SMILES CC(=O)CCc1ccc2c(c1)OCO2
REMARK SMILES IDX 4 1 2 2 1 3 3 4 5 5 6 6 7 7 11 8 8 9 10 10 9 11 12 12 14 13
REMARK SMILES IDX 13 14
REMARK H PARENT
REMARK Flexibility Score: inf
ROOT
ATOM      1  C   UNL     1       5.768   1.368  -0.271  1.00  0.00     0.080 C 
ENDROOT
BRANCH   1   2
ATOM      2  C   UNL     1       5.104   1.271   1.058  1.00  0.00     0.130 C 
ATOM      3  C   UNL     1       5.326   0.110   1.960  1.00  0.00     0.087 C 
ATOM      4  O   UNL     1       4.352   2.150   1.448  1.00  0.00    -0.300 OA
ENDBRANCH   1   2
BRANCH   1   5
ATOM      5  C   UNL     1       7.254   1.086  -0.166  1.00  0.00     0.043 C 
BRANCH   5   6
ATOM      6  C   UNL     1       7.613  -0.196  -0.798  1.00  0.00    -0.044 A 
ATOM      7  C   UNL     1       7.612  -0.354  -2.189  1.00  0.00     0.008 A 
ATOM      8  C   UNL     1       7.963  -1.270  -0.011  1.00  0.00     0.054 A 
ATOM      9  C   UNL     1       7.959  -1.580  -2.725  1.00  0.00     0.051 A 
ATOM     10  C   UNL     1       8.314  -2.508  -0.559  1.00  0.00     0.166 A 
ATOM     11  C   UNL     1       8.311  -2.664  -1.927  1.00  0.00     0.165 A 
ATOM     12  O   UNL     1       8.693  -3.709   0.001  1.00  0.00    -0.454 OA
ATOM     13  O   UNL     1       8.694  -3.972  -2.182  1.00  0.00    -0.454 OA
ATOM     14  C   UNL     1       9.033  -4.643  -0.992  1.00  0.00     0.468 C 
ENDBRANCH   5   6
ENDBRANCH   1   5
TORSDOF 3
ENDMDL
MODEL 3
REMARK VINA RESULT:      -7.2      2.103      2.650
REMARK SMILES CC(=O)CCc1ccc2c(c1)OCO2
REMARK SMILES IDX 4 1 2 2 1 3 3 4 5 5 6 6 7 7 11 8 8 9 10 10 9 11 12 12 14 13
REMARK SMILES IDX 13 14
REMARK H PARENT
REMARK Flexibility Score: inf
ROOT
ATOM      1  C   UNL     1       5.542  -0.053   1.944  1.00  0.00     0.080 C 
ENDROOT
BRANCH   1   2
ATOM      2  C   UNL     1       4.694   1.134   1.643  1.00  0.00     0.130 C 
ATOM      3  C   UNL     1       5.029   2.072   0.538  1.00  0.00     0.087 C 
ATOM      4  O   UNL     1       3.694   1.373   2.300  1.00  0.00    -0.300 OA
ENDBRANCH   1   2
BRANCH   1   5
ATOM      5  C   UNL     1       6.978   0.172   1.514  1.00  0.00     0.043 C 
BRANCH   5   6
ATOM      6  C   UNL     1       7.387  -0.773   0.460  1.00  0.00    -0.044 A 
ATOM      7  C   UNL     1       7.285  -0.447  -0.897  1.00  0.00     0.008 A 
ATOM      8  C   UNL     1       7.885  -2.008   0.808  1.00  0.00     0.054 A 
ATOM      9  C   UNL     1       7.685  -1.375  -1.842  1.00  0.00     0.051 A 
ATOM     10  C   UNL     1       8.289  -2.942  -0.151  1.00  0.00     0.166 A 
ATOM     11  C   UNL     1       8.188  -2.623  -1.487  1.00  0.00     0.165 A 
ATOM     12  O   UNL     1       8.808  -4.216  -0.062  1.00  0.00    -0.454 OA
ATOM     13  O   UNL     1       8.653  -3.718  -2.198  1.00  0.00    -0.454 OA
ATOM     14  C   UNL     1       9.141  -4.715  -1.332  1.00  0.00     0.468 C 
ENDBRANCH   5   6
ENDBRANCH   1   5
TORSDOF 3
ENDMDL
MODEL 4
REMARK VINA RESULT:      -7.1      1.253      1.464
REMARK SMILES CC(=O)CCc1ccc2c(c1)OCO2
REMARK SMILES IDX 4 1 2 2 1 3 3 4 5 5 6 6 7 7 11 8 8 9 10 10 9 11 12 12 14 13
REMARK SMILES IDX 13 14
REMARK H PARENT
REMARK Flexibility Score: inf
ROOT
ATOM      1  C   UNL     1       6.397   1.207   0.938  1.00  0.00     0.080 C 
ENDROOT
BRANCH   1   2
ATOM      2  C   UNL     1       5.672   0.366   1.931  1.00  0.00     0.130 C 
ATOM      3  C   UNL     1       6.278  -0.867   2.501  1.00  0.00     0.087 C 
ATOM      4  O   UNL     1       4.551   0.668   2.308  1.00  0.00    -0.300 OA
ENDBRANCH   1   2
BRANCH   1   5
ATOM      5  C   UNL     1       5.891   0.956  -0.469  1.00  0.00     0.043 C 
BRANCH   5   6
ATOM      6  C   UNL     1       6.826   0.123  -1.245  1.00  0.00    -0.044 A 
ATOM      7  C   UNL     1       7.508   0.628  -2.358  1.00  0.00     0.008 A 
ATOM      8  C   UNL     1       7.043  -1.185  -0.875  1.00  0.00     0.054 A 
ATOM      9  C   UNL     1       8.374  -0.201  -3.048  1.00  0.00     0.051 A 
ATOM     10  C   UNL     1       7.920  -2.019  -1.576  1.00  0.00     0.166 A 
ATOM     11  C   UNL     1       8.590  -1.523  -2.671  1.00  0.00     0.165 A 
ATOM     12  O   UNL     1       8.300  -3.334  -1.410  1.00  0.00    -0.454 OA
ATOM     13  O   UNL     1       9.377  -2.554  -3.160  1.00  0.00    -0.454 OA
ATOM     14  C   UNL     1       9.293  -3.692  -2.337  1.00  0.00     0.468 C 
ENDBRANCH   5   6
ENDBRANCH   1   5
TORSDOF 3
ENDMDL
MODEL 5
REMARK VINA RESULT:      -6.8      1.268      1.756
REMARK SMILES CC(=O)CCc1ccc2c(c1)OCO2
REMARK SMILES IDX 4 1 2 2 1 3 3 4 5 5 6 6 7 7 11 8 8 9 10 10 9 11 12 12 14 13
REMARK SMILES IDX 13 14
REMARK H PARENT
REMARK Flexibility Score: inf
ROOT
ATOM      1  C   UNL     1       5.293  -0.082   1.947  1.00  0.00     0.080 C 
ENDROOT
BRANCH   1   2
ATOM      2  C   UNL     1       4.432   1.122   1.784  1.00  0.00     0.130 C 
ATOM      3  C   UNL     1       4.715   2.150   0.747  1.00  0.00     0.087 C 
ATOM      4  O   UNL     1       3.462   1.301   2.503  1.00  0.00    -0.300 OA
ENDBRANCH   1   2
BRANCH   1   5
ATOM      5  C   UNL     1       6.764   0.283   1.905  1.00  0.00     0.043 C 
BRANCH   5   6
ATOM      6  C   UNL     1       7.377  -0.065   0.611  1.00  0.00    -0.044 A 
ATOM      7  C   UNL     1       7.871   0.919  -0.253  1.00  0.00     0.008 A 
ATOM      8  C   UNL     1       7.473  -1.385   0.234  1.00  0.00     0.054 A 
ATOM      9  C   UNL     1       8.437   0.533  -1.455  1.00  0.00     0.051 A 
ATOM     10  C   UNL     1       8.046  -1.770  -0.981  1.00  0.00     0.166 A 
ATOM     11  C   UNL     1       8.532  -0.803  -1.833  1.00  0.00     0.165 A 
ATOM     12  O   UNL     1       8.255  -2.996  -1.575  1.00  0.00    -0.454 OA
ATOM     13  O   UNL     1       9.035  -1.463  -2.943  1.00  0.00    -0.454 OA
ATOM     14  C   UNL     1       8.962  -2.859  -2.781  1.00  0.00     0.468 C 
ENDBRANCH   5   6
ENDBRANCH   1   5
TORSDOF 3
ENDMDL
