MODEL 1
REMARK VINA RESULT:      -7.7      0.000      0.000
REMARK SMILES CC(=O)CCc1ccc2c(c1)OCO2
REMARK SMILES IDX 4 1 2 2 1 3 3 4 5 5 6 6 7 7 11 8 8 9 10 10 9 11 12 12 14 13
REMARK SMILES IDX 13 14
REMARK H PARENT
REMARK Flexibility Score: inf
ROOT
ATOM      1  C   UNL     1       5.502   1.893   1.254  1.00  0.00     0.080 C 
ENDROOT
BRANCH   1   2
ATOM      2  C   UNL     1       5.016   0.695   1.994  1.00  0.00     0.130 C 
ATOM      3  C   UNL     1       5.831  -0.546   2.090  1.00  0.00     0.087 C 
ATOM      4  O   UNL     1       3.928   0.698   2.545  1.00  0.00    -0.300 OA
ENDBRANCH   1   2
BRANCH   1   5
ATOM      5  C   UNL     1       5.383   1.701  -0.244  1.00  0.00     0.043 C 
BRANCH   5   6
ATOM      6  C   UNL     1       6.559   1.010  -0.802  1.00  0.00    -0.044 A 
ATOM      7  C   UNL     1       7.861   1.450  -0.539  1.00  0.00     0.008 A 
ATOM      8  C   UNL     1       6.384  -0.098  -1.600  1.00  0.00     0.054 A 
ATOM      9  C   UNL     1       8.926   0.761  -1.090  1.00  0.00     0.051 A 
ATOM     10  C   UNL     1       7.464  -0.792  -2.154  1.00  0.00     0.166 A 
ATOM     11  C   UNL     1       8.746  -0.358  -1.897  1.00  0.00     0.165 A 
ATOM     12  O   UNL     1       7.551  -1.902  -2.967  1.00  0.00    -0.454 OA
ATOM     13  O   UNL     1       9.602  -1.221  -2.563  1.00  0.00    -0.454 OA
ATOM     14  C   UNL     1       8.891  -2.268  -3.179  1.00  0.00     0.468 C 
ENDBRANCH   5   6
ENDBRANCH   1   5
TORSDOF 3
ENDMDL
MODEL 2
REMARK VINA RESULT:      -7.5      1.927      2.372
REMARK SMILES CC(=O)CCc1ccc2c(c1)OCO2
REMARK SMILES IDX 4 1 2 2 1 3 3 4 5 5 6 6 7 7 11 8 8 9 10 10 9 11 12 12 14 13
REMARK SMILES IDX 13 14
REMARK H PARENT
REMARK Flexibility Score: inf
ROOT
ATOM      1  C   UNL     1       5.705   1.290  -0.288  1.00  0.00     0.080 C 
ENDROOT
BRANCH   1   2
ATOM      2  C   UNL     1       5.121   1.262   1.082  1.00  0.00     0.130 C 
ATOM      3  C   UNL     1       5.420   0.161   2.037  1.00  0.00     0.087 C 
ATOM      4  O   UNL     1       4.373   2.148   1.462  1.00  0.00    -0.300 OA
ENDBRANCH   1   2
BRANCH   1   5
ATOM      5  C   UNL     1       7.208   1.095  -0.249  1.00  0.00     0.043 C 
BRANCH   5   6
ATOM      6  C   UNL     1       7.610  -0.185  -0.857  1.00  0.00    -0.044 A 
ATOM      7  C   UNL     1       7.734  -0.331  -2.244  1.00  0.00     0.008 A 
ATOM      8  C   UNL     1       7.874  -1.270  -0.052  1.00  0.00     0.054 A 
ATOM      9  C   UNL     1       8.115  -1.557  -2.758  1.00  0.00     0.051 A 
ATOM     10  C   UNL     1       8.259  -2.507  -0.577  1.00  0.00     0.166 A 
ATOM     11  C   UNL     1       8.381  -2.652  -1.941  1.00  0.00     0.165 A 
ATOM     12  O   UNL     1       8.572  -3.718   0.004  1.00  0.00    -0.454 OA
ATOM     13  O   UNL     1       8.770  -3.962  -2.172  1.00  0.00    -0.454 OA
ATOM     14  C   UNL     1       8.991  -4.647  -0.962  1.00  0.00     0.468 C 
ENDBRANCH   5   6
ENDBRANCH   1   5
TORSDOF 3
ENDMDL
MODEL 3
REMARK VINA RESULT:      -7.2      2.057      2.631
REMARK SMILES CC(=O)CCc1ccc2c(c1)OCO2
REMARK SMILES IDX 4 1 2 2 1 3 3 4 5 5 6 6 7 7 11 8 8 9 10 10 9 11 12 12 14 13
REMARK SMILES IDX 13 14
REMARK H PARENT
REMARK Flexibility Score: inf
ROOT
ATOM      1  C   UNL     1       5.377  -0.101   2.005  1.00  0.00     0.080 C 
ENDROOT
BRANCH   1   2
ATOM      2  C   UNL     1       4.559   1.123   1.775  1.00  0.00     0.130 C 
ATOM      3  C   UNL     1       4.926   2.124   0.737  1.00  0.00     0.087 C 
ATOM      4  O   UNL     1       3.557   1.341   2.437  1.00  0.00    -0.300 OA
ENDBRANCH   1   2
BRANCH   1   5
ATOM      5  C   UNL     1       6.829   0.130   1.634  1.00  0.00     0.043 C 
BRANCH   5   6
ATOM      6  C   UNL     1       7.268  -0.775   0.557  1.00  0.00    -0.044 A 
ATOM      7  C   UNL     1       7.146  -0.423  -0.792  1.00  0.00     0.008 A 
ATOM      8  C   UNL     1       7.815  -1.998   0.874  1.00  0.00     0.054 A 
ATOM      9  C   UNL     1       7.576  -1.313  -1.759  1.00  0.00     0.051 A 
ATOM     10  C   UNL     1       8.249  -2.894  -0.108  1.00  0.00     0.166 A 
ATOM     11  C   UNL     1       8.128  -2.548  -1.435  1.00  0.00     0.165 A 
ATOM     12  O   UNL     1       8.816  -4.149  -0.050  1.00  0.00    -0.454 OA
ATOM     13  O   UNL     1       8.630  -3.609  -2.173  1.00  0.00    -0.454 OA
ATOM     14  C   UNL     1       9.160  -4.606  -1.332  1.00  0.00     0.468 C 
ENDBRANCH   5   6
ENDBRANCH   1   5
TORSDOF 3
ENDMDL
MODEL 4
REMARK VINA RESULT:      -7.1      1.989      2.511
REMARK SMILES CC(=O)CCc1ccc2c(c1)OCO2
REMARK SMILES IDX 4 1 2 2 1 3 3 4 5 5 6 6 7 7 11 8 8 9 10 10 9 11 12 12 14 13
REMARK SMILES IDX 13 14
REMARK H PARENT
REMARK Flexibility Score: inf
ROOT
ATOM      1  C   UNL     1       6.735   0.735   1.499  1.00  0.00     0.080 C 
ENDROOT
BRANCH   1   2
ATOM      2  C   UNL     1       5.308   1.162   1.503  1.00  0.00     0.130 C 
ATOM      3  C   UNL     1       4.785   2.144   0.517  1.00  0.00     0.087 C 
ATOM      4  O   UNL     1       4.523   0.716   2.323  1.00  0.00    -0.300 OA
ENDBRANCH   1   2
BRANCH   1   5
ATOM      5  C   UNL     1       7.387   1.003   0.157  1.00  0.00     0.043 C 
BRANCH   5   6
ATOM      6  C   UNL     1       7.703  -0.247  -0.557  1.00  0.00    -0.044 A 
ATOM      7  C   UNL     1       7.717  -0.309  -1.955  1.00  0.00     0.008 A 
ATOM      8  C   UNL     1       7.995  -1.386   0.159  1.00  0.00     0.054 A 
ATOM      9  C   UNL     1       8.022  -1.510  -2.570  1.00  0.00     0.051 A 
ATOM     10  C   UNL     1       8.303  -2.597  -0.467  1.00  0.00     0.166 A 
ATOM     11  C   UNL     1       8.316  -2.660  -1.843  1.00  0.00     0.165 A 
ATOM     12  O   UNL     1       8.622  -3.849   0.013  1.00  0.00    -0.454 OA
ATOM     13  O   UNL     1       8.648  -3.962  -2.182  1.00  0.00    -0.454 OA
ATOM     14  C   UNL     1       8.939  -4.727  -1.036  1.00  0.00     0.468 C 
ENDBRANCH   5   6
ENDBRANCH   1   5
TORSDOF 3
ENDMDL
MODEL 5
REMARK VINA RESULT:      -7.1      1.265      1.470
REMARK SMILES CC(=O)CCc1ccc2c(c1)OCO2
REMARK SMILES IDX 4 1 2 2 1 3 3 4 5 5 6 6 7 7 11 8 8 9 10 10 9 11 12 12 14 13
REMARK SMILES IDX 13 14
REMARK H PARENT
REMARK Flexibility Score: inf
ROOT
ATOM      1  C   UNL     1       6.392   1.214   0.932  1.00  0.00     0.080 C 
ENDROOT
BRANCH   1   2
ATOM      2  C   UNL     1       5.671   0.372   1.928  1.00  0.00     0.130 C 
ATOM      3  C   UNL     1       6.283  -0.857   2.500  1.00  0.00     0.087 C 
ATOM      4  O   UNL     1       4.549   0.670   2.305  1.00  0.00    -0.300 OA
ENDBRANCH   1   2
BRANCH   1   5
ATOM      5  C   UNL     1       5.889   0.955  -0.474  1.00  0.00     0.043 C 
BRANCH   5   6
ATOM      6  C   UNL     1       6.827   0.121  -1.245  1.00  0.00    -0.044 A 
ATOM      7  C   UNL     1       7.514   0.625  -2.356  1.00  0.00     0.008 A 
ATOM      8  C   UNL     1       7.043  -1.186  -0.872  1.00  0.00     0.054 A 
ATOM      9  C   UNL     1       8.383  -0.205  -3.041  1.00  0.00     0.051 A 
ATOM     10  C   UNL     1       7.924  -2.021  -1.567  1.00  0.00     0.166 A 
ATOM     11  C   UNL     1       8.599  -1.526  -2.661  1.00  0.00     0.165 A 
ATOM     12  O   UNL     1       8.304  -3.335  -1.398  1.00  0.00    -0.454 OA
ATOM     13  O   UNL     1       9.389  -2.557  -3.145  1.00  0.00    -0.454 OA
ATOM     14  C   UNL     1       9.301  -3.694  -2.320  1.00  0.00     0.468 C 
ENDBRANCH   5   6
ENDBRANCH   1   5
TORSDOF 3
ENDMDL
