@<TRIPOS>MOLECULE
/home/cewinharhar/GITHUB/reincatalyze/data/processed/docking_pred/2023-May-31-1438_sub9_nm5_bs15_s42_ex16_mel10_mts1000_k50_ec05_g099_lra9e-4_lrc3e-3/be159ddb300952c005bf82764a5ce22912cca304_ligand_9.pdbqt
 14 15 0 0 0
SMALL
GASTEIGER

@<TRIPOS>ATOM
      1  C          6.6580    0.1610    1.8650 C.3     1  UNL1        0.0800
      2  C          5.3430    0.8380    1.6860 C.2     1  UNL1        0.1300
      3  C          5.1120    1.8190    0.5920 C.3     1  UNL1        0.0870
      4  O          4.4110    0.6050    2.4380 O.2     1  UNL1       -0.3000
      5  C          6.5740   -1.3090    1.5020 C.3     1  UNL1        0.0430
      6  C          7.2940   -1.6050    0.2510 C.2     1  UNL1       -0.0440
      7  C          6.8670   -1.0920   -0.9800 C.2     1  UNL1        0.0080
      8  C          8.4160   -2.4020    0.2810 C.2     1  UNL1        0.0540
      9  C          7.5840   -1.4030   -2.1210 C.2     1  UNL1        0.0510
     10  C          9.1370   -2.7130   -0.8750 C.2     1  UNL1        0.1660
     11  C          8.7170   -2.2090   -2.0860 C.2     1  UNL1        0.1650
     12  O         10.2660   -3.4710   -1.1040 O.2     1  UNL1       -0.4540
     13  O          9.6070   -2.6730   -3.0430 O.2     1  UNL1       -0.4540
     14  C         10.6560   -3.4020   -2.4510 C.3     1  UNL1        0.4680
@<TRIPOS>BOND
     1    13    14    1
     2    13    11    1
     3    14    12    1
     4     9    11    2
     5     9     7    1
     6    11    10    1
     7    12    10    1
     8     7     6    2
     9    10     8    2
    10     6     8    1
    11     6     5    1
    12     3     2    1
    13     5     1    1
    14     2     1    1
    15     2     4    2
