@<TRIPOS>MOLECULE
/home/cewinharhar/GITHUB/reincatalyze/data/processed/docking_pred/2023-May-31-1438_sub9_nm5_bs15_s42_ex16_mel10_mts1000_k50_ec05_g099_lra9e-4_lrc3e-3/be159ddb300952c005bf82764a5ce22912cca304_ligand_9.pdbqt
 14 15 0 0 0
SMALL
GASTEIGER

@<TRIPOS>ATOM
      1  C          5.8770    1.3290   -0.3150 C.3     1  UNL1        0.0800
      2  C          5.2780    1.1590    1.0380 C.2     1  UNL1        0.1300
      3  C          5.6010   -0.0140    1.8930 C.3     1  UNL1        0.0870
      4  O          4.4980    1.9840    1.4860 O.2     1  UNL1       -0.3000
      5  C          7.3910    1.2980   -0.2550 C.3     1  UNL1        0.0430
      6  C          7.9470    0.1790   -1.0360 C.2     1  UNL1       -0.0440
      7  C          7.3270   -0.2780   -2.2050 C.2     1  UNL1        0.0080
      8  C          9.1050   -0.4360   -0.6180 C.2     1  UNL1        0.0540
      9  C          7.8950   -1.3320   -2.8980 C.2     1  UNL1        0.0510
     10  C          9.6760   -1.5000   -1.3230 C.2     1  UNL1        0.1660
     11  C          9.0650   -1.9520   -2.4720 C.2     1  UNL1        0.1650
     12  O         10.8020   -2.2670   -1.1160 O.2     1  UNL1       -0.4540
     13  O          9.8380   -2.9970   -2.9520 O.2     1  UNL1       -0.4540
     14  C         10.9980   -3.1710   -2.1730 C.3     1  UNL1        0.4680
@<TRIPOS>BOND
     1    13    11    1
     2    13    14    1
     3     9    11    2
     4     9     7    1
     5    11    10    1
     6     7     6    2
     7    14    12    1
     8    10    12    1
     9    10     8    2
    10     6     8    1
    11     6     5    1
    12     1     5    1
    13     1     2    1
    14     2     4    2
    15     2     3    1
