@<TRIPOS>MOLECULE
/home/cewinharhar/GITHUB/reincatalyze/data/processed/docking_pred/2023-May-31-1438_sub9_nm5_bs15_s42_ex16_mel10_mts1000_k50_ec05_g099_lra9e-4_lrc3e-3/bef029ec7f2d3d0301694813bb63cef4e6663bb8_ligand_9.pdbqt
 14 15 0 0 0
SMALL
GASTEIGER

@<TRIPOS>ATOM
      1  C          5.6960    1.3190   -0.3070 C.3     1  UNL1        0.0800
      2  C          5.1010    1.2680    1.0570 C.2     1  UNL1        0.1300
      3  C          5.3900    0.1490    1.9930 C.3     1  UNL1        0.0870
      4  O          4.3530    2.1490    1.4490 O.2     1  UNL1       -0.3000
      5  C          7.1960    1.1060   -0.2620 C.3     1  UNL1        0.0430
      6  C          7.5820   -0.1860   -0.8570 C.2     1  UNL1       -0.0440
      7  C          7.6630   -0.3600   -2.2440 C.2     1  UNL1        0.0080
      8  C          7.8750   -1.2540   -0.0390 C.2     1  UNL1        0.0540
      9  C          8.0320   -1.5950   -2.7450 C.2     1  UNL1        0.0510
     10  C          8.2470   -2.5000   -0.5500 C.2     1  UNL1        0.1660
     11  C          8.3260   -2.6730   -1.9140 C.2     1  UNL1        0.1650
     12  O          8.5820   -3.6980    0.0450 O.2     1  UNL1       -0.4540
     13  O          8.7120   -3.9860   -2.1310 O.2     1  UNL1       -0.4540
     14  C          8.9730   -4.6460   -0.9150 C.3     1  UNL1        0.4680
@<TRIPOS>BOND
     1     9     7    1
     2     9    11    2
     3     7     6    2
     4    13    11    1
     5    13    14    1
     6    11    10    1
     7    14    12    1
     8     6     5    1
     9     6     8    1
    10    10     8    2
    11    10    12    1
    12     1     5    1
    13     1     2    1
    14     2     4    2
    15     2     3    1
