@<TRIPOS>MOLECULE
/home/cewinharhar/GITHUB/reincatalyze/data/processed/docking_pred/2023-May-31-1438_sub9_nm5_bs15_s42_ex16_mel10_mts1000_k50_ec05_g099_lra9e-4_lrc3e-3/bef029ec7f2d3d0301694813bb63cef4e6663bb8_ligand_9.pdbqt
 14 15 0 0 0
SMALL
GASTEIGER

@<TRIPOS>ATOM
      1  C          8.3090    0.1880   -2.6800 C.3     1  UNL1        0.0800
      2  C          8.0280   -1.2730   -2.7610 C.2     1  UNL1        0.1300
      3  C          9.1090   -2.2620   -3.0190 C.3     1  UNL1        0.0870
      4  O          6.8950   -1.7020   -2.6170 O.2     1  UNL1       -0.3000
      5  C          8.8390    0.5720   -1.3130 C.3     1  UNL1        0.0430
      6  C          7.8100    0.4270   -0.2680 C.2     1  UNL1       -0.0440
      7  C          7.9220   -0.5340    0.7440 C.2     1  UNL1        0.0080
      8  C          6.7090    1.2540   -0.2750 C.2     1  UNL1        0.0540
      9  C          6.9250   -0.6230    1.6980 C.2     1  UNL1        0.0510
     10  C          5.7050    1.1600    0.6930 C.2     1  UNL1        0.1660
     11  C          5.8130    0.2140    1.6880 C.2     1  UNL1        0.1650
     12  O          4.5310    1.8540    0.8990 O.2     1  UNL1       -0.4540
     13  O          4.6930    0.3480    2.4930 O.2     1  UNL1       -0.4540
     14  C          3.8990    1.4360    2.0820 C.3     1  UNL1        0.4680
@<TRIPOS>BOND
     1     3     2    1
     2     2     1    1
     3     2     4    2
     4     1     5    1
     5     5     6    1
     6     8     6    2
     7     8    10    1
     8     6     7    1
     9    10    12    1
    10    10    11    2
    11     7     9    2
    12    12    14    1
    13    11     9    1
    14    11    13    1
    15    14    13    1
