@<TRIPOS>MOLECULE
/home/cewinharhar/GITHUB/reincatalyze/data/processed/docking_pred/2023-May-31-1438_sub9_nm5_bs15_s42_ex16_mel10_mts1000_k50_ec05_g099_lra9e-4_lrc3e-3/bef029ec7f2d3d0301694813bb63cef4e6663bb8_ligand_9.pdbqt
 14 15 0 0 0
SMALL
GASTEIGER

@<TRIPOS>ATOM
      1  C          5.5460    0.0490    1.9720 C.3     1  UNL1        0.0800
      2  C          4.6490    1.1900    1.6380 C.2     1  UNL1        0.1300
      3  C          4.9610    2.1290    0.5280 C.3     1  UNL1        0.0870
      4  O          3.6250    1.3890    2.2710 O.2     1  UNL1       -0.3000
      5  C          6.9600    0.3000    1.4860 C.3     1  UNL1        0.0430
      6  C          7.3610   -0.6670    0.4480 C.2     1  UNL1       -0.0440
      7  C          7.2430   -0.3700   -0.9150 C.2     1  UNL1        0.0080
      8  C          7.8670   -1.8930    0.8160 C.2     1  UNL1        0.0540
      9  C          7.6360   -1.3160   -1.8440 C.2     1  UNL1        0.0510
     10  C          8.2630   -2.8460   -0.1270 C.2     1  UNL1        0.1660
     11  C          8.1460   -2.5550   -1.4680 C.2     1  UNL1        0.1650
     12  O          8.7870   -4.1160   -0.0160 O.2     1  UNL1       -0.4540
     13  O          8.6070   -3.6640   -2.1600 O.2     1  UNL1       -0.4540
     14  C          9.1070   -4.6410   -1.2790 C.3     1  UNL1        0.4680
@<TRIPOS>BOND
     1    13    11    1
     2    13    14    1
     3     9    11    2
     4     9     7    1
     5    11    10    1
     6    14    12    1
     7     7     6    2
     8    10    12    1
     9    10     8    2
    10     6     8    1
    11     6     5    1
    12     3     2    1
    13     5     1    1
    14     2     1    1
    15     2     4    2
