@<TRIPOS>MOLECULE
/home/cewinharhar/GITHUB/reincatalyze/data/processed/docking_pred/2023-May-31-1438_sub9_nm5_bs15_s42_ex16_mel10_mts1000_k50_ec05_g099_lra9e-4_lrc3e-3/bef029ec7f2d3d0301694813bb63cef4e6663bb8_ligand_9.pdbqt
 14 15 0 0 0
SMALL
GASTEIGER

@<TRIPOS>ATOM
      1  C          6.3900    1.1770    0.9700 C.3     1  UNL1        0.0800
      2  C          5.6620    0.3530    1.9750 C.2     1  UNL1        0.1300
      3  C          6.2550   -0.8840    2.5480 C.3     1  UNL1        0.0870
      4  O          4.5480    0.6730    2.3590 O.2     1  UNL1       -0.3000
      5  C          5.8750    0.9180   -0.4320 C.3     1  UNL1        0.0430
      6  C          6.8150    0.0980   -1.2170 C.2     1  UNL1       -0.0440
      7  C          7.4820    0.6140   -2.3330 C.2     1  UNL1        0.0080
      8  C          7.0510   -1.2080   -0.8500 C.2     1  UNL1        0.0540
      9  C          8.3540   -0.2030   -3.0310 C.2     1  UNL1        0.0510
     10  C          7.9330   -2.0290   -1.5590 C.2     1  UNL1        0.1660
     11  C          8.5890   -1.5230   -2.6580 C.2     1  UNL1        0.1650
     12  O          8.3310   -3.3400   -1.3980 O.2     1  UNL1       -0.4540
     13  O          9.3860   -2.5430   -3.1550 O.2     1  UNL1       -0.4540
     14  C          9.3210   -3.6840   -2.3330 C.3     1  UNL1        0.4680
@<TRIPOS>BOND
     1    13    11    1
     2    13    14    1
     3     9    11    2
     4     9     7    1
     5    11    10    1
     6     7     6    2
     7    14    12    1
     8    10    12    1
     9    10     8    2
    10     6     8    1
    11     6     5    1
    12     5     1    1
    13     1     2    1
    14     2     4    2
    15     2     3    1
