MODEL 1
REMARK VINA RESULT:      -7.7      0.000      0.000
REMARK SMILES CC(=O)CCc1ccc2c(c1)OCO2
REMARK SMILES IDX 4 1 2 2 1 3 3 4 5 5 6 6 7 7 11 8 8 9 10 10 9 11 12 12 14 13
REMARK SMILES IDX 13 14
REMARK H PARENT
REMARK Flexibility Score: inf
ROOT
ATOM      1  C   UNL     1       5.512   1.945   1.255  1.00  0.00     0.080 C 
ENDROOT
BRANCH   1   2
ATOM      2  C   UNL     1       5.094   0.728   2.005  1.00  0.00     0.130 C 
ATOM      3  C   UNL     1       6.008  -0.432   2.183  1.00  0.00     0.087 C 
ATOM      4  O   UNL     1       3.980   0.648   2.498  1.00  0.00    -0.300 OA
ENDBRANCH   1   2
BRANCH   1   5
ATOM      5  C   UNL     1       5.386   1.741  -0.241  1.00  0.00     0.043 C 
BRANCH   5   6
ATOM      6  C   UNL     1       6.557   1.040  -0.798  1.00  0.00    -0.044 A 
ATOM      7  C   UNL     1       7.863   1.474  -0.539  1.00  0.00     0.008 A 
ATOM      8  C   UNL     1       6.375  -0.071  -1.590  1.00  0.00     0.054 A 
ATOM      9  C   UNL     1       8.923   0.776  -1.087  1.00  0.00     0.051 A 
ATOM     10  C   UNL     1       7.451  -0.773  -2.142  1.00  0.00     0.166 A 
ATOM     11  C   UNL     1       8.735  -0.346  -1.888  1.00  0.00     0.165 A 
ATOM     12  O   UNL     1       7.530  -1.888  -2.949  1.00  0.00    -0.454 OA
ATOM     13  O   UNL     1       9.585  -1.217  -2.552  1.00  0.00    -0.454 OA
ATOM     14  C   UNL     1       8.867  -2.262  -3.162  1.00  0.00     0.468 C 
ENDBRANCH   5   6
ENDBRANCH   1   5
TORSDOF 3
ENDMDL
MODEL 2
REMARK VINA RESULT:      -7.5      1.939      2.398
REMARK SMILES CC(=O)CCc1ccc2c(c1)OCO2
REMARK SMILES IDX 4 1 2 2 1 3 3 4 5 5 6 6 7 7 11 8 8 9 10 10 9 11 12 12 14 13
REMARK SMILES IDX 13 14
REMARK H PARENT
REMARK Flexibility Score: inf
ROOT
ATOM      1  C   UNL     1       5.696   1.319  -0.307  1.00  0.00     0.080 C 
ENDROOT
BRANCH   1   2
ATOM      2  C   UNL     1       5.101   1.268   1.057  1.00  0.00     0.130 C 
ATOM      3  C   UNL     1       5.390   0.149   1.993  1.00  0.00     0.087 C 
ATOM      4  O   UNL     1       4.353   2.149   1.449  1.00  0.00    -0.300 OA
ENDBRANCH   1   2
BRANCH   1   5
ATOM      5  C   UNL     1       7.196   1.106  -0.262  1.00  0.00     0.043 C 
BRANCH   5   6
ATOM      6  C   UNL     1       7.582  -0.186  -0.857  1.00  0.00    -0.044 A 
ATOM      7  C   UNL     1       7.663  -0.360  -2.244  1.00  0.00     0.008 A 
ATOM      8  C   UNL     1       7.875  -1.254  -0.039  1.00  0.00     0.054 A 
ATOM      9  C   UNL     1       8.032  -1.595  -2.745  1.00  0.00     0.051 A 
ATOM     10  C   UNL     1       8.247  -2.500  -0.550  1.00  0.00     0.166 A 
ATOM     11  C   UNL     1       8.326  -2.673  -1.914  1.00  0.00     0.165 A 
ATOM     12  O   UNL     1       8.582  -3.698   0.045  1.00  0.00    -0.454 OA
ATOM     13  O   UNL     1       8.712  -3.986  -2.131  1.00  0.00    -0.454 OA
ATOM     14  C   UNL     1       8.973  -4.646  -0.915  1.00  0.00     0.468 C 
ENDBRANCH   5   6
ENDBRANCH   1   5
TORSDOF 3
ENDMDL
MODEL 3
REMARK VINA RESULT:      -7.2      2.078      2.622
REMARK SMILES CC(=O)CCc1ccc2c(c1)OCO2
REMARK SMILES IDX 4 1 2 2 1 3 3 4 5 5 6 6 7 7 11 8 8 9 10 10 9 11 12 12 14 13
REMARK SMILES IDX 13 14
REMARK H PARENT
REMARK Flexibility Score: inf
ROOT
ATOM      1  C   UNL     1       5.546   0.049   1.972  1.00  0.00     0.080 C 
ENDROOT
BRANCH   1   2
ATOM      2  C   UNL     1       4.649   1.190   1.638  1.00  0.00     0.130 C 
ATOM      3  C   UNL     1       4.961   2.129   0.528  1.00  0.00     0.087 C 
ATOM      4  O   UNL     1       3.625   1.389   2.271  1.00  0.00    -0.300 OA
ENDBRANCH   1   2
BRANCH   1   5
ATOM      5  C   UNL     1       6.960   0.300   1.486  1.00  0.00     0.043 C 
BRANCH   5   6
ATOM      6  C   UNL     1       7.361  -0.667   0.448  1.00  0.00    -0.044 A 
ATOM      7  C   UNL     1       7.243  -0.370  -0.915  1.00  0.00     0.008 A 
ATOM      8  C   UNL     1       7.867  -1.893   0.816  1.00  0.00     0.054 A 
ATOM      9  C   UNL     1       7.636  -1.316  -1.844  1.00  0.00     0.051 A 
ATOM     10  C   UNL     1       8.263  -2.846  -0.127  1.00  0.00     0.166 A 
ATOM     11  C   UNL     1       8.146  -2.555  -1.468  1.00  0.00     0.165 A 
ATOM     12  O   UNL     1       8.787  -4.116  -0.016  1.00  0.00    -0.454 OA
ATOM     13  O   UNL     1       8.607  -3.664  -2.160  1.00  0.00    -0.454 OA
ATOM     14  C   UNL     1       9.107  -4.641  -1.279  1.00  0.00     0.468 C 
ENDBRANCH   5   6
ENDBRANCH   1   5
TORSDOF 3
ENDMDL
MODEL 4
REMARK VINA RESULT:      -7.1      1.263      1.478
REMARK SMILES CC(=O)CCc1ccc2c(c1)OCO2
REMARK SMILES IDX 4 1 2 2 1 3 3 4 5 5 6 6 7 7 11 8 8 9 10 10 9 11 12 12 14 13
REMARK SMILES IDX 13 14
REMARK H PARENT
REMARK Flexibility Score: inf
ROOT
ATOM      1  C   UNL     1       6.390   1.177   0.970  1.00  0.00     0.080 C 
ENDROOT
BRANCH   1   2
ATOM      2  C   UNL     1       5.662   0.353   1.975  1.00  0.00     0.130 C 
ATOM      3  C   UNL     1       6.255  -0.884   2.548  1.00  0.00     0.087 C 
ATOM      4  O   UNL     1       4.548   0.673   2.359  1.00  0.00    -0.300 OA
ENDBRANCH   1   2
BRANCH   1   5
ATOM      5  C   UNL     1       5.875   0.918  -0.432  1.00  0.00     0.043 C 
BRANCH   5   6
ATOM      6  C   UNL     1       6.815   0.098  -1.217  1.00  0.00    -0.044 A 
ATOM      7  C   UNL     1       7.482   0.614  -2.333  1.00  0.00     0.008 A 
ATOM      8  C   UNL     1       7.051  -1.208  -0.850  1.00  0.00     0.054 A 
ATOM      9  C   UNL     1       8.354  -0.203  -3.031  1.00  0.00     0.051 A 
ATOM     10  C   UNL     1       7.933  -2.029  -1.559  1.00  0.00     0.166 A 
ATOM     11  C   UNL     1       8.589  -1.523  -2.658  1.00  0.00     0.165 A 
ATOM     12  O   UNL     1       8.331  -3.340  -1.398  1.00  0.00    -0.454 OA
ATOM     13  O   UNL     1       9.386  -2.543  -3.155  1.00  0.00    -0.454 OA
ATOM     14  C   UNL     1       9.321  -3.684  -2.333  1.00  0.00     0.468 C 
ENDBRANCH   5   6
ENDBRANCH   1   5
TORSDOF 3
ENDMDL
MODEL 5
REMARK VINA RESULT:      -6.8      1.190      5.165
REMARK SMILES CC(=O)CCc1ccc2c(c1)OCO2
REMARK SMILES IDX 4 1 2 2 1 3 3 4 5 5 6 6 7 7 11 8 8 9 10 10 9 11 12 12 14 13
REMARK SMILES IDX 13 14
REMARK H PARENT
REMARK Flexibility Score: inf
ROOT
ATOM      1  C   UNL     1       8.309   0.188  -2.680  1.00  0.00     0.080 C 
ENDROOT
BRANCH   1   2
ATOM      2  C   UNL     1       8.028  -1.273  -2.761  1.00  0.00     0.130 C 
ATOM      3  C   UNL     1       9.109  -2.262  -3.019  1.00  0.00     0.087 C 
ATOM      4  O   UNL     1       6.895  -1.702  -2.617  1.00  0.00    -0.300 OA
ENDBRANCH   1   2
BRANCH   1   5
ATOM      5  C   UNL     1       8.839   0.572  -1.313  1.00  0.00     0.043 C 
BRANCH   5   6
ATOM      6  C   UNL     1       7.810   0.427  -0.268  1.00  0.00    -0.044 A 
ATOM      7  C   UNL     1       7.922  -0.534   0.744  1.00  0.00     0.008 A 
ATOM      8  C   UNL     1       6.709   1.254  -0.275  1.00  0.00     0.054 A 
ATOM      9  C   UNL     1       6.925  -0.623   1.698  1.00  0.00     0.051 A 
ATOM     10  C   UNL     1       5.705   1.160   0.693  1.00  0.00     0.166 A 
ATOM     11  C   UNL     1       5.813   0.214   1.688  1.00  0.00     0.165 A 
ATOM     12  O   UNL     1       4.531   1.854   0.899  1.00  0.00    -0.454 OA
ATOM     13  O   UNL     1       4.693   0.348   2.493  1.00  0.00    -0.454 OA
ATOM     14  C   UNL     1       3.899   1.436   2.082  1.00  0.00     0.468 C 
ENDBRANCH   5   6
ENDBRANCH   1   5
TORSDOF 3
ENDMDL
