@<TRIPOS>MOLECULE
/home/cewinharhar/GITHUB/reincatalyze/data/processed/docking_pred/2023-May-31-1438_sub9_nm5_bs15_s42_ex16_mel10_mts1000_k50_ec05_g099_lra9e-4_lrc3e-3/bf1bd72bf83e0bbc7f208f1f88a3802cf16c22f1_ligand_9.pdbqt
 14 15 0 0 0
SMALL
GASTEIGER

@<TRIPOS>ATOM
      1  C          8.3240    0.2000   -2.6650 C.3     1  UNL1        0.0800
      2  C          8.0510   -1.2610   -2.7590 C.2     1  UNL1        0.1300
      3  C          9.1330   -2.2420   -3.0390 C.3     1  UNL1        0.0870
      4  O          6.9210   -1.6980   -2.6080 O.2     1  UNL1       -0.3000
      5  C          8.8500    0.5750   -1.2930 C.3     1  UNL1        0.0430
      6  C          7.8170    0.4260   -0.2530 C.2     1  UNL1       -0.0440
      7  C          7.9240   -0.5410    0.7530 C.2     1  UNL1        0.0080
      8  C          6.7180    1.2550   -0.2600 C.2     1  UNL1        0.0540
      9  C          6.9230   -0.6330    1.7040 C.2     1  UNL1        0.0510
     10  C          5.7100    1.1580    0.7040 C.2     1  UNL1        0.1660
     11  C          5.8130    0.2060    1.6940 C.2     1  UNL1        0.1650
     12  O          4.5360    1.8520    0.9100 O.2     1  UNL1       -0.4540
     13  O          4.6900    0.3370    2.4960 O.2     1  UNL1       -0.4540
     14  C          3.9000    1.4290    2.0880 C.3     1  UNL1        0.4680
@<TRIPOS>BOND
     1     3     2    1
     2     2     1    1
     3     2     4    2
     4     1     5    1
     5     5     6    1
     6     8     6    2
     7     8    10    1
     8     6     7    1
     9    10    12    1
    10    10    11    2
    11     7     9    2
    12    12    14    1
    13    11     9    1
    14    11    13    1
    15    14    13    1
