@<TRIPOS>MOLECULE
/home/cewinharhar/GITHUB/reincatalyze/data/processed/docking_pred/2023-May-31-1438_sub9_nm5_bs15_s42_ex16_mel10_mts1000_k50_ec05_g099_lra9e-4_lrc3e-3/bf1bd72bf83e0bbc7f208f1f88a3802cf16c22f1_ligand_9.pdbqt
 14 15 0 0 0
SMALL
GASTEIGER

@<TRIPOS>ATOM
      1  C          5.5260    1.9160    1.2650 C.3     1  UNL1        0.0800
      2  C          5.0890    0.6980    2.0020 C.2     1  UNL1        0.1300
      3  C          5.9880   -0.4750    2.1750 C.3     1  UNL1        0.0870
      4  O          3.9720    0.6270    2.4890 O.2     1  UNL1       -0.3000
      5  C          5.3990    1.7280   -0.2340 C.3     1  UNL1        0.0430
      6  C          6.5680    1.0290   -0.7970 C.2     1  UNL1       -0.0440
      7  C          7.8740    1.4700   -0.5540 C.2     1  UNL1        0.0080
      8  C          6.3830   -0.0870   -1.5820 C.2     1  UNL1        0.0540
      9  C          8.9320    0.7740   -1.1090 C.2     1  UNL1        0.0510
     10  C          7.4560   -0.7880   -2.1400 C.2     1  UNL1        0.1660
     11  C          8.7410   -0.3540   -1.9020 C.2     1  UNL1        0.1650
     12  O          7.5320   -1.9070   -2.9420 O.2     1  UNL1       -0.4540
     13  O          9.5890   -1.2250   -2.5680 O.2     1  UNL1       -0.4540
     14  C          8.8690   -2.2770   -3.1660 C.3     1  UNL1        0.4680
@<TRIPOS>BOND
     1    14    12    1
     2    14    13    1
     3    12    10    1
     4    13    11    1
     5    10    11    2
     6    10     8    1
     7    11     9    1
     8     8     6    2
     9     9     7    2
    10     6     7    1
    11     6     5    1
    12     5     1    1
    13     1     2    1
    14     2     3    1
    15     2     4    2
