@<TRIPOS>MOLECULE
/home/cewinharhar/GITHUB/reincatalyze/data/processed/docking_pred/2023-May-31-1438_sub9_nm5_bs15_s42_ex16_mel10_mts1000_k50_ec05_g099_lra9e-4_lrc3e-3/bfaa3bc067c86e8b5ef89a85d12e30cfe25fe09e_ligand_9.pdbqt
 14 15 0 0 0
SMALL
GASTEIGER

@<TRIPOS>ATOM
      1  C          5.5780   -0.0080    1.9180 C.3     1  UNL1        0.0800
      2  C          4.6900    1.1490    1.6170 C.2     1  UNL1        0.1300
      3  C          5.0010    2.1090    0.5240 C.3     1  UNL1        0.0870
      4  O          3.6740    1.3450    2.2650 O.2     1  UNL1       -0.3000
      5  C          6.9930    0.2440    1.4360 C.3     1  UNL1        0.0430
      6  C          7.3990   -0.7250    0.4020 C.2     1  UNL1       -0.0440
      7  C          7.2950   -0.4290   -0.9620 C.2     1  UNL1        0.0080
      8  C          7.8960   -1.9530    0.7760 C.2     1  UNL1        0.0540
      9  C          7.6920   -1.3770   -1.8870 C.2     1  UNL1        0.0510
     10  C          8.2970   -2.9080   -0.1630 C.2     1  UNL1        0.1660
     11  C          8.1940   -2.6180   -1.5050 C.2     1  UNL1        0.1650
     12  O          8.8140   -4.1810   -0.0470 O.2     1  UNL1       -0.4540
     13  O          8.6560   -3.7290   -2.1930 O.2     1  UNL1       -0.4540
     14  C          9.1440   -4.7080   -1.3060 C.3     1  UNL1        0.4680
@<TRIPOS>BOND
     1    13    11    1
     2    13    14    1
     3     9    11    2
     4     9     7    1
     5    11    10    1
     6    14    12    1
     7     7     6    2
     8    10    12    1
     9    10     8    2
    10     6     8    1
    11     6     5    1
    12     3     2    1
    13     5     1    1
    14     2     1    1
    15     2     4    2
