MODEL 1
REMARK VINA RESULT:      -7.7      0.000      0.000
REMARK SMILES CC(=O)CCc1ccc2c(c1)OCO2
REMARK SMILES IDX 4 1 2 2 1 3 3 4 5 5 6 6 7 7 11 8 8 9 10 10 9 11 12 12 14 13
REMARK SMILES IDX 13 14
REMARK H PARENT
REMARK Flexibility Score: inf
ROOT
ATOM      1  C   UNL     1       5.514   1.910   1.254  1.00  0.00     0.080 C 
ENDROOT
BRANCH   1   2
ATOM      2  C   UNL     1       5.056   0.701   1.994  1.00  0.00     0.130 C 
ATOM      3  C   UNL     1       5.924  -0.498   2.143  1.00  0.00     0.087 C 
ATOM      4  O   UNL     1       3.947   0.660   2.502  1.00  0.00    -0.300 OA
ENDBRANCH   1   2
BRANCH   1   5
ATOM      5  C   UNL     1       5.392   1.718  -0.245  1.00  0.00     0.043 C 
BRANCH   5   6
ATOM      6  C   UNL     1       6.562   1.018  -0.803  1.00  0.00    -0.044 A 
ATOM      7  C   UNL     1       7.867   1.453  -0.547  1.00  0.00     0.008 A 
ATOM      8  C   UNL     1       6.379  -0.093  -1.595  1.00  0.00     0.054 A 
ATOM      9  C   UNL     1       8.927   0.756  -1.098  1.00  0.00     0.051 A 
ATOM     10  C   UNL     1       7.454  -0.795  -2.149  1.00  0.00     0.166 A 
ATOM     11  C   UNL     1       8.739  -0.366  -1.898  1.00  0.00     0.165 A 
ATOM     12  O   UNL     1       7.532  -1.909  -2.956  1.00  0.00    -0.454 OA
ATOM     13  O   UNL     1       9.588  -1.237  -2.563  1.00  0.00    -0.454 OA
ATOM     14  C   UNL     1       8.869  -2.283  -3.172  1.00  0.00     0.468 C 
ENDBRANCH   5   6
ENDBRANCH   1   5
TORSDOF 3
ENDMDL
MODEL 2
REMARK VINA RESULT:      -7.4      1.921      2.400
REMARK SMILES CC(=O)CCc1ccc2c(c1)OCO2
REMARK SMILES IDX 4 1 2 2 1 3 3 4 5 5 6 6 7 7 11 8 8 9 10 10 9 11 12 12 14 13
REMARK SMILES IDX 13 14
REMARK H PARENT
REMARK Flexibility Score: inf
ROOT
ATOM      1  C   UNL     1       5.717   1.340  -0.306  1.00  0.00     0.080 C 
ENDROOT
BRANCH   1   2
ATOM      2  C   UNL     1       5.103   1.269   1.049  1.00  0.00     0.130 C 
ATOM      3  C   UNL     1       5.376   0.135   1.972  1.00  0.00     0.087 C 
ATOM      4  O   UNL     1       4.351   2.146   1.443  1.00  0.00    -0.300 OA
ENDBRANCH   1   2
BRANCH   1   5
ATOM      5  C   UNL     1       7.209   1.081  -0.249  1.00  0.00     0.043 C 
BRANCH   5   6
ATOM      6  C   UNL     1       7.564  -0.212  -0.861  1.00  0.00    -0.044 A 
ATOM      7  C   UNL     1       7.571  -0.389  -2.249  1.00  0.00     0.008 A 
ATOM      8  C   UNL     1       7.899  -1.278  -0.057  1.00  0.00     0.054 A 
ATOM      9  C   UNL     1       7.912  -1.625  -2.766  1.00  0.00     0.051 A 
ATOM     10  C   UNL     1       8.245  -2.526  -0.585  1.00  0.00     0.166 A 
ATOM     11  C   UNL     1       8.251  -2.701  -1.951  1.00  0.00     0.165 A 
ATOM     12  O   UNL     1       8.610  -3.723  -0.007  1.00  0.00    -0.454 OA
ATOM     13  O   UNL     1       8.625  -4.014  -2.185  1.00  0.00    -0.454 OA
ATOM     14  C   UNL     1       8.950  -4.672  -0.984  1.00  0.00     0.468 C 
ENDBRANCH   5   6
ENDBRANCH   1   5
TORSDOF 3
ENDMDL
MODEL 3
REMARK VINA RESULT:      -7.2      2.100      2.631
REMARK SMILES CC(=O)CCc1ccc2c(c1)OCO2
REMARK SMILES IDX 4 1 2 2 1 3 3 4 5 5 6 6 7 7 11 8 8 9 10 10 9 11 12 12 14 13
REMARK SMILES IDX 13 14
REMARK H PARENT
REMARK Flexibility Score: inf
ROOT
ATOM      1  C   UNL     1       5.578  -0.008   1.918  1.00  0.00     0.080 C 
ENDROOT
BRANCH   1   2
ATOM      2  C   UNL     1       4.690   1.149   1.617  1.00  0.00     0.130 C 
ATOM      3  C   UNL     1       5.001   2.109   0.524  1.00  0.00     0.087 C 
ATOM      4  O   UNL     1       3.674   1.345   2.265  1.00  0.00    -0.300 OA
ENDBRANCH   1   2
BRANCH   1   5
ATOM      5  C   UNL     1       6.993   0.244   1.436  1.00  0.00     0.043 C 
BRANCH   5   6
ATOM      6  C   UNL     1       7.399  -0.725   0.402  1.00  0.00    -0.044 A 
ATOM      7  C   UNL     1       7.295  -0.429  -0.962  1.00  0.00     0.008 A 
ATOM      8  C   UNL     1       7.896  -1.953   0.776  1.00  0.00     0.054 A 
ATOM      9  C   UNL     1       7.692  -1.377  -1.887  1.00  0.00     0.051 A 
ATOM     10  C   UNL     1       8.297  -2.908  -0.163  1.00  0.00     0.166 A 
ATOM     11  C   UNL     1       8.194  -2.618  -1.505  1.00  0.00     0.165 A 
ATOM     12  O   UNL     1       8.814  -4.181  -0.047  1.00  0.00    -0.454 OA
ATOM     13  O   UNL     1       8.656  -3.729  -2.193  1.00  0.00    -0.454 OA
ATOM     14  C   UNL     1       9.144  -4.708  -1.306  1.00  0.00     0.468 C 
ENDBRANCH   5   6
ENDBRANCH   1   5
TORSDOF 3
ENDMDL
MODEL 4
REMARK VINA RESULT:      -7.1      1.248      1.444
REMARK SMILES CC(=O)CCc1ccc2c(c1)OCO2
REMARK SMILES IDX 4 1 2 2 1 3 3 4 5 5 6 6 7 7 11 8 8 9 10 10 9 11 12 12 14 13
REMARK SMILES IDX 13 14
REMARK H PARENT
REMARK Flexibility Score: inf
ROOT
ATOM      1  C   UNL     1       6.371   1.211   0.950  1.00  0.00     0.080 C 
ENDROOT
BRANCH   1   2
ATOM      2  C   UNL     1       5.641   0.366   1.936  1.00  0.00     0.130 C 
ATOM      3  C   UNL     1       6.248  -0.865   2.510  1.00  0.00     0.087 C 
ATOM      4  O   UNL     1       4.516   0.663   2.304  1.00  0.00    -0.300 OA
ENDBRANCH   1   2
BRANCH   1   5
ATOM      5  C   UNL     1       5.873   0.966  -0.460  1.00  0.00     0.043 C 
BRANCH   5   6
ATOM      6  C   UNL     1       6.812   0.136  -1.236  1.00  0.00    -0.044 A 
ATOM      7  C   UNL     1       7.498   0.647  -2.344  1.00  0.00     0.008 A 
ATOM      8  C   UNL     1       7.029  -1.173  -0.869  1.00  0.00     0.054 A 
ATOM      9  C   UNL     1       8.368  -0.179  -3.033  1.00  0.00     0.051 A 
ATOM     10  C   UNL     1       7.910  -2.003  -1.569  1.00  0.00     0.166 A 
ATOM     11  C   UNL     1       8.585  -1.502  -2.660  1.00  0.00     0.165 A 
ATOM     12  O   UNL     1       8.291  -3.318  -1.406  1.00  0.00    -0.454 OA
ATOM     13  O   UNL     1       9.375  -2.530  -3.149  1.00  0.00    -0.454 OA
ATOM     14  C   UNL     1       9.288  -3.672  -2.330  1.00  0.00     0.468 C 
ENDBRANCH   5   6
ENDBRANCH   1   5
TORSDOF 3
ENDMDL
MODEL 5
REMARK VINA RESULT:      -6.8      1.184      5.179
REMARK SMILES CC(=O)CCc1ccc2c(c1)OCO2
REMARK SMILES IDX 4 1 2 2 1 3 3 4 5 5 6 6 7 7 11 8 8 9 10 10 9 11 12 12 14 13
REMARK SMILES IDX 13 14
REMARK H PARENT
REMARK Flexibility Score: inf
ROOT
ATOM      1  C   UNL     1       8.355   0.210  -2.620  1.00  0.00     0.080 C 
ENDROOT
BRANCH   1   2
ATOM      2  C   UNL     1       8.058  -1.246  -2.723  1.00  0.00     0.130 C 
ATOM      3  C   UNL     1       9.123  -2.242  -3.015  1.00  0.00     0.087 C 
ATOM      4  O   UNL     1       6.922  -1.666  -2.570  1.00  0.00    -0.300 OA
ENDBRANCH   1   2
BRANCH   1   5
ATOM      5  C   UNL     1       8.864   0.572  -1.239  1.00  0.00     0.043 C 
BRANCH   5   6
ATOM      6  C   UNL     1       7.813   0.436  -0.216  1.00  0.00    -0.044 A 
ATOM      7  C   UNL     1       7.897  -0.526   0.798  1.00  0.00     0.008 A 
ATOM      8  C   UNL     1       6.719   1.270  -0.246  1.00  0.00     0.054 A 
ATOM      9  C   UNL     1       6.880  -0.607   1.732  1.00  0.00     0.051 A 
ATOM     10  C   UNL     1       5.694   1.185   0.701  1.00  0.00     0.166 A 
ATOM     11  C   UNL     1       5.775   0.239   1.698  1.00  0.00     0.165 A 
ATOM     12  O   UNL     1       4.522   1.888   0.883  1.00  0.00    -0.454 OA
ATOM     13  O   UNL     1       4.640   0.382   2.480  1.00  0.00    -0.454 OA
ATOM     14  C   UNL     1       3.863   1.475   2.053  1.00  0.00     0.468 C 
ENDBRANCH   5   6
ENDBRANCH   1   5
TORSDOF 3
ENDMDL
