@<TRIPOS>MOLECULE
/home/cewinharhar/GITHUB/reincatalyze/data/processed/docking_pred/2023-May-31-1438_sub9_nm5_bs15_s42_ex16_mel10_mts1000_k50_ec05_g099_lra9e-4_lrc3e-3/c00c8b20774af87dd702fd508d588995eeb45aaa_ligand_9.pdbqt
 14 15 0 0 0
SMALL
GASTEIGER

@<TRIPOS>ATOM
      1  C          6.1310    1.7750    0.2770 C.3     1  UNL1        0.0800
      2  C          5.2050    1.2250    1.3060 C.2     1  UNL1        0.1300
      3  C          5.4520   -0.0890    1.9570 C.3     1  UNL1        0.0870
      4  O          4.2090    1.8420    1.6460 O.2     1  UNL1       -0.3000
      5  C          6.0370    0.9970   -1.0210 C.3     1  UNL1        0.0430
      6  C          7.1940    0.1040   -1.2080 C.2     1  UNL1       -0.0440
      7  C          7.1330   -1.0050   -2.0600 C.2     1  UNL1        0.0080
      8  C          8.3680    0.3580   -0.5360 C.2     1  UNL1        0.0540
      9  C          8.2510   -1.8070   -2.1970 C.2     1  UNL1        0.0510
     10  C          9.4950   -0.4560   -0.6780 C.2     1  UNL1        0.1660
     11  C          9.4370   -1.5480   -1.5160 C.2     1  UNL1        0.1650
     12  O         10.7590   -0.4160   -0.1280 O.2     1  UNL1       -0.4540
     13  O         10.6780   -2.1610   -1.4620 O.2     1  UNL1       -0.4540
     14  C         11.5750   -1.4250   -0.6650 C.3     1  UNL1        0.4680
@<TRIPOS>BOND
     1     9     7    1
     2     9    11    2
     3     7     6    2
     4    11    13    1
     5    11    10    1
     6    13    14    1
     7     6     5    1
     8     6     8    1
     9     5     1    1
    10    10     8    2
    11    10    12    1
    12    14    12    1
    13     1     2    1
    14     2     4    2
    15     2     3    1
