@<TRIPOS>MOLECULE
/home/cewinharhar/GITHUB/reincatalyze/data/processed/docking_pred/2023-May-31-1438_sub9_nm5_bs15_s42_ex16_mel10_mts1000_k50_ec05_g099_lra9e-4_lrc3e-3/c00c8b20774af87dd702fd508d588995eeb45aaa_ligand_9.pdbqt
 14 15 0 0 0
SMALL
GASTEIGER

@<TRIPOS>ATOM
      1  C          5.8390    1.6190    0.8810 C.3     1  UNL1        0.0800
      2  C          5.3890    0.6010    1.8710 C.2     1  UNL1        0.1300
      3  C          6.2330   -0.5710    2.2250 C.3     1  UNL1        0.0870
      4  O          4.3060    0.7010    2.4240 O.2     1  UNL1       -0.3000
      5  C          5.7520    1.0850   -0.5350 C.3     1  UNL1        0.0430
      6  C          7.0040    0.4240   -0.9470 C.2     1  UNL1       -0.0440
      7  C          8.2520    1.0230   -0.7400 C.2     1  UNL1        0.0080
      8  C          6.9560   -0.8130   -1.5480 C.2     1  UNL1        0.0540
      9  C          9.3920    0.3550   -1.1470 C.2     1  UNL1        0.0510
     10  C          8.1120   -1.4840   -1.9570 C.2     1  UNL1        0.1660
     11  C          9.3400   -0.8950   -1.7550 C.2     1  UNL1        0.1650
     12  O          8.3250   -2.7020   -2.5680 O.2     1  UNL1       -0.4540
     13  O         10.2920   -1.7730   -2.2510 O.2     1  UNL1       -0.4540
     14  C          9.6980   -2.9700   -2.6930 C.3     1  UNL1        0.4680
@<TRIPOS>BOND
     1    14    12    1
     2    14    13    1
     3    12    10    1
     4    13    11    1
     5    10    11    2
     6    10     8    1
     7    11     9    1
     8     8     6    2
     9     9     7    2
    10     6     7    1
    11     6     5    1
    12     5     1    1
    13     1     2    1
    14     2     3    1
    15     2     4    2
