MODEL 1
REMARK VINA RESULT:      -8.2      0.000      0.000
REMARK SMILES CC(=O)CCc1ccc2c(c1)OCO2
REMARK SMILES IDX 4 1 2 2 1 3 3 4 5 5 6 6 7 7 11 8 8 9 10 10 9 11 12 12 14 13
REMARK SMILES IDX 13 14
REMARK H PARENT
REMARK Flexibility Score: inf
ROOT
ATOM      1  C   UNL     1       5.839   1.619   0.881  1.00  0.00     0.080 C 
ENDROOT
BRANCH   1   2
ATOM      2  C   UNL     1       5.389   0.601   1.871  1.00  0.00     0.130 C 
ATOM      3  C   UNL     1       6.233  -0.571   2.225  1.00  0.00     0.087 C 
ATOM      4  O   UNL     1       4.306   0.701   2.424  1.00  0.00    -0.300 OA
ENDBRANCH   1   2
BRANCH   1   5
ATOM      5  C   UNL     1       5.752   1.085  -0.535  1.00  0.00     0.043 C 
BRANCH   5   6
ATOM      6  C   UNL     1       7.004   0.424  -0.947  1.00  0.00    -0.044 A 
ATOM      7  C   UNL     1       8.252   1.023  -0.740  1.00  0.00     0.008 A 
ATOM      8  C   UNL     1       6.956  -0.813  -1.548  1.00  0.00     0.054 A 
ATOM      9  C   UNL     1       9.392   0.355  -1.147  1.00  0.00     0.051 A 
ATOM     10  C   UNL     1       8.112  -1.484  -1.957  1.00  0.00     0.166 A 
ATOM     11  C   UNL     1       9.340  -0.895  -1.755  1.00  0.00     0.165 A 
ATOM     12  O   UNL     1       8.325  -2.702  -2.568  1.00  0.00    -0.454 OA
ATOM     13  O   UNL     1      10.292  -1.773  -2.251  1.00  0.00    -0.454 OA
ATOM     14  C   UNL     1       9.698  -2.970  -2.693  1.00  0.00     0.468 C 
ENDBRANCH   5   6
ENDBRANCH   1   5
TORSDOF 3
ENDMDL
MODEL 2
REMARK VINA RESULT:      -7.6      1.105      1.785
REMARK SMILES CC(=O)CCc1ccc2c(c1)OCO2
REMARK SMILES IDX 4 1 2 2 1 3 3 4 5 5 6 6 7 7 11 8 8 9 10 10 9 11 12 12 14 13
REMARK SMILES IDX 13 14
REMARK H PARENT
REMARK Flexibility Score: inf
ROOT
ATOM      1  C   UNL     1       5.883   1.291  -0.308  1.00  0.00     0.080 C 
ENDROOT
BRANCH   1   2
ATOM      2  C   UNL     1       5.283   1.120   1.045  1.00  0.00     0.130 C 
ATOM      3  C   UNL     1       5.599  -0.059   1.896  1.00  0.00     0.087 C 
ATOM      4  O   UNL     1       4.509   1.948   1.497  1.00  0.00    -0.300 OA
ENDBRANCH   1   2
BRANCH   1   5
ATOM      5  C   UNL     1       7.398   1.282  -0.243  1.00  0.00     0.043 C 
BRANCH   5   6
ATOM      6  C   UNL     1       7.972   0.182  -1.039  1.00  0.00    -0.044 A 
ATOM      7  C   UNL     1       7.407  -0.214  -2.257  1.00  0.00     0.008 A 
ATOM      8  C   UNL     1       9.092  -0.476  -0.584  1.00  0.00     0.054 A 
ATOM      9  C   UNL     1       7.990  -1.252  -2.960  1.00  0.00     0.051 A 
ATOM     10  C   UNL     1       9.677  -1.525  -1.299  1.00  0.00     0.166 A 
ATOM     11  C   UNL     1       9.122  -1.916  -2.497  1.00  0.00     0.165 A 
ATOM     12  O   UNL     1      10.774  -2.326  -1.063  1.00  0.00    -0.454 OA
ATOM     13  O   UNL     1       9.898  -2.960  -2.977  1.00  0.00    -0.454 OA
ATOM     14  C   UNL     1      11.009  -3.192  -2.144  1.00  0.00     0.468 C 
ENDBRANCH   5   6
ENDBRANCH   1   5
TORSDOF 3
ENDMDL
MODEL 3
REMARK VINA RESULT:      -7.4      1.257      2.059
REMARK SMILES CC(=O)CCc1ccc2c(c1)OCO2
REMARK SMILES IDX 4 1 2 2 1 3 3 4 5 5 6 6 7 7 11 8 8 9 10 10 9 11 12 12 14 13
REMARK SMILES IDX 13 14
REMARK H PARENT
REMARK Flexibility Score: inf
ROOT
ATOM      1  C   UNL     1       6.577   0.065   0.895  1.00  0.00     0.080 C 
ENDROOT
BRANCH   1   2
ATOM      2  C   UNL     1       5.413   0.924   1.249  1.00  0.00     0.130 C 
ATOM      3  C   UNL     1       5.013   2.083   0.408  1.00  0.00     0.087 C 
ATOM      4  O   UNL     1       4.749   0.698   2.248  1.00  0.00    -0.300 OA
ENDBRANCH   1   2
BRANCH   1   5
ATOM      5  C   UNL     1       7.462   0.736  -0.138  1.00  0.00     0.043 C 
BRANCH   5   6
ATOM      6  C   UNL     1       8.115  -0.248  -1.020  1.00  0.00    -0.044 A 
ATOM      7  C   UNL     1       7.693  -0.442  -2.340  1.00  0.00     0.008 A 
ATOM      8  C   UNL     1       9.167  -0.997  -0.545  1.00  0.00     0.054 A 
ATOM      9  C   UNL     1       8.345  -1.379  -3.122  1.00  0.00     0.051 A 
ATOM     10  C   UNL     1       9.823  -1.942  -1.339  1.00  0.00     0.166 A 
ATOM     11  C   UNL     1       9.408  -2.135  -2.638  1.00  0.00     0.165 A 
ATOM     12  O   UNL     1      10.877  -2.799  -1.103  1.00  0.00    -0.454 OA
ATOM     13  O   UNL     1      10.225  -3.115  -3.179  1.00  0.00    -0.454 OA
ATOM     14  C   UNL     1      11.228  -3.500  -2.269  1.00  0.00     0.468 C 
ENDBRANCH   5   6
ENDBRANCH   1   5
TORSDOF 3
ENDMDL
MODEL 4
REMARK VINA RESULT:      -7.3      1.416      2.180
REMARK SMILES CC(=O)CCc1ccc2c(c1)OCO2
REMARK SMILES IDX 4 1 2 2 1 3 3 4 5 5 6 6 7 7 11 8 8 9 10 10 9 11 12 12 14 13
REMARK SMILES IDX 13 14
REMARK H PARENT
REMARK Flexibility Score: inf
ROOT
ATOM      1  C   UNL     1       6.627   0.157   1.810  1.00  0.00     0.080 C 
ENDROOT
BRANCH   1   2
ATOM      2  C   UNL     1       5.339   0.879   1.621  1.00  0.00     0.130 C 
ATOM      3  C   UNL     1       5.139   1.840   0.503  1.00  0.00     0.087 C 
ATOM      4  O   UNL     1       4.403   0.702   2.383  1.00  0.00    -0.300 OA
ENDBRANCH   1   2
BRANCH   1   5
ATOM      5  C   UNL     1       6.504  -1.302   1.418  1.00  0.00     0.043 C 
BRANCH   5   6
ATOM      6  C   UNL     1       7.254  -1.601   0.185  1.00  0.00    -0.044 A 
ATOM      7  C   UNL     1       6.851  -1.101  -1.058  1.00  0.00     0.008 A 
ATOM      8  C   UNL     1       8.381  -2.389   0.247  1.00  0.00     0.054 A 
ATOM      9  C   UNL     1       7.594  -1.415  -2.181  1.00  0.00     0.051 A 
ATOM     10  C   UNL     1       9.130  -2.703  -0.891  1.00  0.00     0.166 A 
ATOM     11  C   UNL     1       8.733  -2.212  -2.115  1.00  0.00     0.165 A 
ATOM     12  O   UNL     1      10.270  -3.453  -1.089  1.00  0.00    -0.454 OA
ATOM     13  O   UNL     1       9.647  -2.676  -3.048  1.00  0.00    -0.454 OA
ATOM     14  C   UNL     1      10.689  -3.391  -2.428  1.00  0.00     0.468 C 
ENDBRANCH   5   6
ENDBRANCH   1   5
TORSDOF 3
ENDMDL
MODEL 5
REMARK VINA RESULT:      -7.2      1.210      2.005
REMARK SMILES CC(=O)CCc1ccc2c(c1)OCO2
REMARK SMILES IDX 4 1 2 2 1 3 3 4 5 5 6 6 7 7 11 8 8 9 10 10 9 11 12 12 14 13
REMARK SMILES IDX 13 14
REMARK H PARENT
REMARK Flexibility Score: inf
ROOT
ATOM      1  C   UNL     1       6.131   1.775   0.277  1.00  0.00     0.080 C 
ENDROOT
BRANCH   1   2
ATOM      2  C   UNL     1       5.205   1.225   1.306  1.00  0.00     0.130 C 
ATOM      3  C   UNL     1       5.452  -0.089   1.957  1.00  0.00     0.087 C 
ATOM      4  O   UNL     1       4.209   1.842   1.646  1.00  0.00    -0.300 OA
ENDBRANCH   1   2
BRANCH   1   5
ATOM      5  C   UNL     1       6.037   0.997  -1.021  1.00  0.00     0.043 C 
BRANCH   5   6
ATOM      6  C   UNL     1       7.194   0.104  -1.208  1.00  0.00    -0.044 A 
ATOM      7  C   UNL     1       7.133  -1.005  -2.060  1.00  0.00     0.008 A 
ATOM      8  C   UNL     1       8.368   0.358  -0.536  1.00  0.00     0.054 A 
ATOM      9  C   UNL     1       8.251  -1.807  -2.197  1.00  0.00     0.051 A 
ATOM     10  C   UNL     1       9.495  -0.456  -0.678  1.00  0.00     0.166 A 
ATOM     11  C   UNL     1       9.437  -1.548  -1.516  1.00  0.00     0.165 A 
ATOM     12  O   UNL     1      10.759  -0.416  -0.128  1.00  0.00    -0.454 OA
ATOM     13  O   UNL     1      10.678  -2.161  -1.462  1.00  0.00    -0.454 OA
ATOM     14  C   UNL     1      11.575  -1.425  -0.665  1.00  0.00     0.468 C 
ENDBRANCH   5   6
ENDBRANCH   1   5
TORSDOF 3
ENDMDL
