@<TRIPOS>MOLECULE
/home/cewinharhar/GITHUB/reincatalyze/data/processed/docking_pred/2023-May-31-1438_sub9_nm5_bs15_s42_ex16_mel10_mts1000_k50_ec05_g099_lra9e-4_lrc3e-3/c00c8b20774af87dd702fd508d588995eeb45aaa_ligand_9.pdbqt
 14 15 0 0 0
SMALL
GASTEIGER

@<TRIPOS>ATOM
      1  C          6.5770    0.0650    0.8950 C.3     1  UNL1        0.0800
      2  C          5.4130    0.9240    1.2490 C.2     1  UNL1        0.1300
      3  C          5.0130    2.0830    0.4080 C.3     1  UNL1        0.0870
      4  O          4.7490    0.6980    2.2480 O.2     1  UNL1       -0.3000
      5  C          7.4620    0.7360   -0.1380 C.3     1  UNL1        0.0430
      6  C          8.1150   -0.2480   -1.0200 C.2     1  UNL1       -0.0440
      7  C          7.6930   -0.4420   -2.3400 C.2     1  UNL1        0.0080
      8  C          9.1670   -0.9970   -0.5450 C.2     1  UNL1        0.0540
      9  C          8.3450   -1.3790   -3.1220 C.2     1  UNL1        0.0510
     10  C          9.8230   -1.9420   -1.3390 C.2     1  UNL1        0.1660
     11  C          9.4080   -2.1350   -2.6380 C.2     1  UNL1        0.1650
     12  O         10.8770   -2.7990   -1.1030 O.2     1  UNL1       -0.4540
     13  O         10.2250   -3.1150   -3.1790 O.2     1  UNL1       -0.4540
     14  C         11.2280   -3.5000   -2.2690 C.3     1  UNL1        0.4680
@<TRIPOS>BOND
     1    13    11    1
     2    13    14    1
     3     9    11    2
     4     9     7    1
     5    11    10    1
     6     7     6    2
     7    14    12    1
     8    10    12    1
     9    10     8    2
    10     6     8    1
    11     6     5    1
    12     5     1    1
    13     3     2    1
    14     1     2    1
    15     2     4    2
