@<TRIPOS>MOLECULE
/home/cewinharhar/GITHUB/reincatalyze/data/processed/docking_pred/2023-May-31-1438_sub9_nm5_bs15_s42_ex16_mel10_mts1000_k50_ec05_g099_lra9e-4_lrc3e-3/c00c8b20774af87dd702fd508d588995eeb45aaa_ligand_9.pdbqt
 14 15 0 0 0
SMALL
GASTEIGER

@<TRIPOS>ATOM
      1  C          5.8830    1.2910   -0.3080 C.3     1  UNL1        0.0800
      2  C          5.2830    1.1200    1.0450 C.2     1  UNL1        0.1300
      3  C          5.5990   -0.0590    1.8960 C.3     1  UNL1        0.0870
      4  O          4.5090    1.9480    1.4970 O.2     1  UNL1       -0.3000
      5  C          7.3980    1.2820   -0.2430 C.3     1  UNL1        0.0430
      6  C          7.9720    0.1820   -1.0390 C.2     1  UNL1       -0.0440
      7  C          7.4070   -0.2140   -2.2570 C.2     1  UNL1        0.0080
      8  C          9.0920   -0.4760   -0.5840 C.2     1  UNL1        0.0540
      9  C          7.9900   -1.2520   -2.9600 C.2     1  UNL1        0.0510
     10  C          9.6770   -1.5250   -1.2990 C.2     1  UNL1        0.1660
     11  C          9.1220   -1.9160   -2.4970 C.2     1  UNL1        0.1650
     12  O         10.7740   -2.3260   -1.0630 O.2     1  UNL1       -0.4540
     13  O          9.8980   -2.9600   -2.9770 O.2     1  UNL1       -0.4540
     14  C         11.0090   -3.1920   -2.1440 C.3     1  UNL1        0.4680
@<TRIPOS>BOND
     1    13    11    1
     2    13    14    1
     3     9    11    2
     4     9     7    1
     5    11    10    1
     6     7     6    2
     7    14    12    1
     8    10    12    1
     9    10     8    2
    10     6     8    1
    11     6     5    1
    12     1     5    1
    13     1     2    1
    14     2     4    2
    15     2     3    1
