@<TRIPOS>MOLECULE
/home/cewinharhar/GITHUB/reincatalyze/data/processed/docking_pred/2023-May-31-1438_sub9_nm5_bs15_s42_ex16_mel10_mts1000_k50_ec05_g099_lra9e-4_lrc3e-3/c00c8b20774af87dd702fd508d588995eeb45aaa_ligand_9.pdbqt
 14 15 0 0 0
SMALL
GASTEIGER

@<TRIPOS>ATOM
      1  C          6.6270    0.1570    1.8100 C.3     1  UNL1        0.0800
      2  C          5.3390    0.8790    1.6210 C.2     1  UNL1        0.1300
      3  C          5.1390    1.8400    0.5030 C.3     1  UNL1        0.0870
      4  O          4.4030    0.7020    2.3830 O.2     1  UNL1       -0.3000
      5  C          6.5040   -1.3020    1.4180 C.3     1  UNL1        0.0430
      6  C          7.2540   -1.6010    0.1850 C.2     1  UNL1       -0.0440
      7  C          6.8510   -1.1010   -1.0580 C.2     1  UNL1        0.0080
      8  C          8.3810   -2.3890    0.2470 C.2     1  UNL1        0.0540
      9  C          7.5940   -1.4150   -2.1810 C.2     1  UNL1        0.0510
     10  C          9.1300   -2.7030   -0.8910 C.2     1  UNL1        0.1660
     11  C          8.7330   -2.2120   -2.1150 C.2     1  UNL1        0.1650
     12  O         10.2700   -3.4530   -1.0890 O.2     1  UNL1       -0.4540
     13  O          9.6470   -2.6760   -3.0480 O.2     1  UNL1       -0.4540
     14  C         10.6890   -3.3910   -2.4280 C.3     1  UNL1        0.4680
@<TRIPOS>BOND
     1    13    14    1
     2    13    11    1
     3    14    12    1
     4     9    11    2
     5     9     7    1
     6    11    10    1
     7    12    10    1
     8     7     6    2
     9    10     8    2
    10     6     8    1
    11     6     5    1
    12     3     2    1
    13     5     1    1
    14     2     1    1
    15     2     4    2
