MODEL 1
REMARK VINA RESULT:      -7.6      0.000      0.000
REMARK SMILES CC(=O)CCc1ccc2c(c1)OCO2
REMARK SMILES IDX 4 1 2 2 1 3 3 4 5 5 6 6 7 7 11 8 8 9 10 10 9 11 12 12 14 13
REMARK SMILES IDX 13 14
REMARK H PARENT
REMARK Flexibility Score: inf
ROOT
ATOM      1  C   UNL     1       5.515   1.901   1.275  1.00  0.00     0.080 C 
ENDROOT
BRANCH   1   2
ATOM      2  C   UNL     1       5.072   0.680   2.005  1.00  0.00     0.130 C 
ATOM      3  C   UNL     1       5.959  -0.504   2.158  1.00  0.00     0.087 C 
ATOM      4  O   UNL     1       3.959   0.617   2.502  1.00  0.00    -0.300 OA
ENDBRANCH   1   2
BRANCH   1   5
ATOM      5  C   UNL     1       5.391   1.720  -0.225  1.00  0.00     0.043 C 
BRANCH   5   6
ATOM      6  C   UNL     1       6.561   1.024  -0.790  1.00  0.00    -0.044 A 
ATOM      7  C   UNL     1       7.866   1.465  -0.544  1.00  0.00     0.008 A 
ATOM      8  C   UNL     1       6.377  -0.090  -1.577  1.00  0.00     0.054 A 
ATOM      9  C   UNL     1       8.925   0.771  -1.100  1.00  0.00     0.051 A 
ATOM     10  C   UNL     1       7.451  -0.789  -2.137  1.00  0.00     0.166 A 
ATOM     11  C   UNL     1       8.736  -0.354  -1.896  1.00  0.00     0.165 A 
ATOM     12  O   UNL     1       7.529  -1.906  -2.941  1.00  0.00    -0.454 OA
ATOM     13  O   UNL     1       9.584  -1.223  -2.565  1.00  0.00    -0.454 OA
ATOM     14  C   UNL     1       8.866  -2.274  -3.165  1.00  0.00     0.468 C 
ENDBRANCH   5   6
ENDBRANCH   1   5
TORSDOF 3
ENDMDL
MODEL 2
REMARK VINA RESULT:      -7.4      1.898      2.392
REMARK SMILES CC(=O)CCc1ccc2c(c1)OCO2
REMARK SMILES IDX 4 1 2 2 1 3 3 4 5 5 6 6 7 7 11 8 8 9 10 10 9 11 12 12 14 13
REMARK SMILES IDX 13 14
REMARK H PARENT
REMARK Flexibility Score: inf
ROOT
ATOM      1  C   UNL     1       5.661   1.156  -0.374  1.00  0.00     0.080 C 
ENDROOT
BRANCH   1   2
ATOM      2  C   UNL     1       5.155   1.212   1.026  1.00  0.00     0.130 C 
ATOM      3  C   UNL     1       5.459   0.139   2.010  1.00  0.00     0.087 C 
ATOM      4  O   UNL     1       4.471   2.148   1.407  1.00  0.00    -0.300 OA
ENDBRANCH   1   2
BRANCH   1   5
ATOM      5  C   UNL     1       7.172   1.041  -0.409  1.00  0.00     0.043 C 
BRANCH   5   6
ATOM      6  C   UNL     1       7.609  -0.239  -0.993  1.00  0.00    -0.044 A 
ATOM      7  C   UNL     1       7.826  -0.381  -2.369  1.00  0.00     0.008 A 
ATOM      8  C   UNL     1       7.815  -1.327  -0.176  1.00  0.00     0.054 A 
ATOM      9  C   UNL     1       8.237  -1.607  -2.860  1.00  0.00     0.051 A 
ATOM     10  C   UNL     1       8.231  -2.564  -0.677  1.00  0.00     0.166 A 
ATOM     11  C   UNL     1       8.444  -2.705  -2.031  1.00  0.00     0.165 A 
ATOM     12  O   UNL     1       8.500  -3.778  -0.081  1.00  0.00    -0.454 OA
ATOM     13  O   UNL     1       8.844  -4.016  -2.239  1.00  0.00    -0.454 OA
ATOM     14  C   UNL     1       8.981  -4.705  -1.020  1.00  0.00     0.468 C 
ENDBRANCH   5   6
ENDBRANCH   1   5
TORSDOF 3
ENDMDL
MODEL 3
REMARK VINA RESULT:      -7.2      2.073      2.610
REMARK SMILES CC(=O)CCc1ccc2c(c1)OCO2
REMARK SMILES IDX 4 1 2 2 1 3 3 4 5 5 6 6 7 7 11 8 8 9 10 10 9 11 12 12 14 13
REMARK SMILES IDX 13 14
REMARK H PARENT
REMARK Flexibility Score: inf
ROOT
ATOM      1  C   UNL     1       5.547   0.018   1.966  1.00  0.00     0.080 C 
ENDROOT
BRANCH   1   2
ATOM      2  C   UNL     1       4.652   1.165   1.649  1.00  0.00     0.130 C 
ATOM      3  C   UNL     1       4.948   2.101   0.532  1.00  0.00     0.087 C 
ATOM      4  O   UNL     1       3.642   1.371   2.303  1.00  0.00    -0.300 OA
ENDBRANCH   1   2
BRANCH   1   5
ATOM      5  C   UNL     1       6.962   0.275   1.485  1.00  0.00     0.043 C 
BRANCH   5   6
ATOM      6  C   UNL     1       7.367  -0.685   0.442  1.00  0.00    -0.044 A 
ATOM      7  C   UNL     1       7.258  -0.377  -0.919  1.00  0.00     0.008 A 
ATOM      8  C   UNL     1       7.868  -1.915   0.804  1.00  0.00     0.054 A 
ATOM      9  C   UNL     1       7.655  -1.317  -1.853  1.00  0.00     0.051 A 
ATOM     10  C   UNL     1       8.268  -2.861  -0.145  1.00  0.00     0.166 A 
ATOM     11  C   UNL     1       8.160  -2.559  -1.484  1.00  0.00     0.165 A 
ATOM     12  O   UNL     1       8.788  -4.133  -0.041  1.00  0.00    -0.454 OA
ATOM     13  O   UNL     1       8.623  -3.664  -2.182  1.00  0.00    -0.454 OA
ATOM     14  C   UNL     1       9.115  -4.649  -1.305  1.00  0.00     0.468 C 
ENDBRANCH   5   6
ENDBRANCH   1   5
TORSDOF 3
ENDMDL
MODEL 4
REMARK VINA RESULT:      -7.1      1.263      1.478
REMARK SMILES CC(=O)CCc1ccc2c(c1)OCO2
REMARK SMILES IDX 4 1 2 2 1 3 3 4 5 5 6 6 7 7 11 8 8 9 10 10 9 11 12 12 14 13
REMARK SMILES IDX 13 14
REMARK H PARENT
REMARK Flexibility Score: inf
ROOT
ATOM      1  C   UNL     1       6.404   1.188   0.951  1.00  0.00     0.080 C 
ENDROOT
BRANCH   1   2
ATOM      2  C   UNL     1       5.656   0.362   1.939  1.00  0.00     0.130 C 
ATOM      3  C   UNL     1       6.242  -0.872   2.528  1.00  0.00     0.087 C 
ATOM      4  O   UNL     1       4.532   0.676   2.296  1.00  0.00    -0.300 OA
ENDBRANCH   1   2
BRANCH   1   5
ATOM      5  C   UNL     1       5.907   0.944  -0.460  1.00  0.00     0.043 C 
BRANCH   5   6
ATOM      6  C   UNL     1       6.842   0.105  -1.231  1.00  0.00    -0.044 A 
ATOM      7  C   UNL     1       7.519   0.602  -2.350  1.00  0.00     0.008 A 
ATOM      8  C   UNL     1       7.063  -1.198  -0.849  1.00  0.00     0.054 A 
ATOM      9  C   UNL     1       8.385  -0.231  -3.035  1.00  0.00     0.051 A 
ATOM     10  C   UNL     1       7.941  -2.036  -1.544  1.00  0.00     0.166 A 
ATOM     11  C   UNL     1       8.607  -1.549  -2.646  1.00  0.00     0.165 A 
ATOM     12  O   UNL     1       8.325  -3.348  -1.367  1.00  0.00    -0.454 OA
ATOM     13  O   UNL     1       9.395  -2.582  -3.127  1.00  0.00    -0.454 OA
ATOM     14  C   UNL     1       9.316  -3.713  -2.293  1.00  0.00     0.468 C 
ENDBRANCH   5   6
ENDBRANCH   1   5
TORSDOF 3
ENDMDL
MODEL 5
REMARK VINA RESULT:      -7.0      1.899      2.431
REMARK SMILES CC(=O)CCc1ccc2c(c1)OCO2
REMARK SMILES IDX 4 1 2 2 1 3 3 4 5 5 6 6 7 7 11 8 8 9 10 10 9 11 12 12 14 13
REMARK SMILES IDX 13 14
REMARK H PARENT
REMARK Flexibility Score: inf
ROOT
ATOM      1  C   UNL     1       6.866   1.009   1.328  1.00  0.00     0.080 C 
ENDROOT
BRANCH   1   2
ATOM      2  C   UNL     1       5.398   1.204   1.486  1.00  0.00     0.130 C 
ATOM      3  C   UNL     1       4.638   2.149   0.625  1.00  0.00     0.087 C 
ATOM      4  O   UNL     1       4.772   0.589   2.334  1.00  0.00    -0.300 OA
ENDBRANCH   1   2
BRANCH   1   5
ATOM      5  C   UNL     1       7.294   1.203  -0.114  1.00  0.00     0.043 C 
BRANCH   5   6
ATOM      6  C   UNL     1       7.635  -0.077  -0.759  1.00  0.00    -0.044 A 
ATOM      7  C   UNL     1       7.671  -0.209  -2.152  1.00  0.00     0.008 A 
ATOM      8  C   UNL     1       7.928  -1.176   0.016  1.00  0.00     0.054 A 
ATOM      9  C   UNL     1       7.998  -1.435  -2.702  1.00  0.00     0.051 A 
ATOM     10  C   UNL     1       8.258  -2.413  -0.544  1.00  0.00     0.166 A 
ATOM     11  C   UNL     1       8.293  -2.544  -1.915  1.00  0.00     0.165 A 
ATOM     12  O   UNL     1       8.584  -3.636   0.003  1.00  0.00    -0.454 OA
ATOM     13  O   UNL     1       8.644  -3.858  -2.183  1.00  0.00    -0.454 OA
ATOM     14  C   UNL     1       8.926  -4.561  -0.997  1.00  0.00     0.468 C 
ENDBRANCH   5   6
ENDBRANCH   1   5
TORSDOF 3
ENDMDL
