@<TRIPOS>MOLECULE
/home/cewinharhar/GITHUB/reincatalyze/data/processed/docking_pred/2023-May-31-1438_sub9_nm5_bs15_s42_ex16_mel10_mts1000_k50_ec05_g099_lra9e-4_lrc3e-3/c054a7f490e8e5c171bc57af56a9ae5cb4d717f8_ligand_9.pdbqt
 14 15 0 0 0
SMALL
GASTEIGER

@<TRIPOS>ATOM
      1  C          6.8660    1.0090    1.3280 C.3     1  UNL1        0.0800
      2  C          5.3980    1.2040    1.4860 C.2     1  UNL1        0.1300
      3  C          4.6380    2.1490    0.6250 C.3     1  UNL1        0.0870
      4  O          4.7720    0.5890    2.3340 O.2     1  UNL1       -0.3000
      5  C          7.2940    1.2030   -0.1140 C.3     1  UNL1        0.0430
      6  C          7.6350   -0.0770   -0.7590 C.2     1  UNL1       -0.0440
      7  C          7.6710   -0.2090   -2.1520 C.2     1  UNL1        0.0080
      8  C          7.9280   -1.1760    0.0160 C.2     1  UNL1        0.0540
      9  C          7.9980   -1.4350   -2.7020 C.2     1  UNL1        0.0510
     10  C          8.2580   -2.4130   -0.5440 C.2     1  UNL1        0.1660
     11  C          8.2930   -2.5440   -1.9150 C.2     1  UNL1        0.1650
     12  O          8.5840   -3.6360    0.0030 O.2     1  UNL1       -0.4540
     13  O          8.6440   -3.8580   -2.1830 O.2     1  UNL1       -0.4540
     14  C          8.9260   -4.5610   -0.9970 C.3     1  UNL1        0.4680
@<TRIPOS>BOND
     1     9     7    1
     2     9    11    2
     3    13    11    1
     4    13    14    1
     5     7     6    2
     6    11    10    1
     7    14    12    1
     8     6     5    1
     9     6     8    1
    10    10    12    1
    11    10     8    2
    12     5     1    1
    13     3     2    1
    14     1     2    1
    15     2     4    2
