@<TRIPOS>MOLECULE
/home/cewinharhar/GITHUB/reincatalyze/data/processed/docking_pred/2023-May-31-1438_sub9_nm5_bs15_s42_ex16_mel10_mts1000_k50_ec05_g099_lra9e-4_lrc3e-3/c2b16f598521213e119e3a09a49f7e8c9c89cc3b_ligand_9.pdbqt
 14 15 0 0 0
SMALL
GASTEIGER

@<TRIPOS>ATOM
      1  C          5.2990   -0.0830    1.9410 C.3     1  UNL1        0.0800
      2  C          4.4340    1.1180    1.7780 C.2     1  UNL1        0.1300
      3  C          4.7160    2.1500    0.7440 C.3     1  UNL1        0.0870
      4  O          3.4610    1.2920    2.4950 O.2     1  UNL1       -0.3000
      5  C          6.7690    0.2880    1.8980 C.3     1  UNL1        0.0430
      6  C          7.3830   -0.0610    0.6050 C.2     1  UNL1       -0.0440
      7  C          7.8760    0.9220   -0.2610 C.2     1  UNL1        0.0080
      8  C          7.4820   -1.3820    0.2310 C.2     1  UNL1        0.0540
      9  C          8.4430    0.5350   -1.4620 C.2     1  UNL1        0.0510
     10  C          8.0560   -1.7680   -0.9840 C.2     1  UNL1        0.1660
     11  C          8.5400   -0.8010   -1.8370 C.2     1  UNL1        0.1650
     12  O          8.2670   -2.9950   -1.5760 O.2     1  UNL1       -0.4540
     13  O          9.0450   -1.4620   -2.9460 O.2     1  UNL1       -0.4540
     14  C          8.9750   -2.8590   -2.7810 C.3     1  UNL1        0.4680
@<TRIPOS>BOND
     1    13    14    1
     2    13    11    1
     3    14    12    1
     4    11     9    2
     5    11    10    1
     6    12    10    1
     7     9     7    1
     8    10     8    2
     9     7     6    2
    10     8     6    1
    11     6     5    1
    12     3     2    1
    13     2     1    1
    14     2     4    2
    15     5     1    1
