@<TRIPOS>MOLECULE
/home/cewinharhar/GITHUB/reincatalyze/data/processed/docking_pred/2023-May-31-1438_sub9_nm5_bs15_s42_ex16_mel10_mts1000_k50_ec05_g099_lra9e-4_lrc3e-3/c2b16f598521213e119e3a09a49f7e8c9c89cc3b_ligand_9.pdbqt
 14 15 0 0 0
SMALL
GASTEIGER

@<TRIPOS>ATOM
      1  C          5.6050    0.0830    1.9460 C.3     1  UNL1        0.0800
      2  C          4.6820    1.2040    1.6140 C.2     1  UNL1        0.1300
      3  C          4.9570    2.1330    0.4850 C.3     1  UNL1        0.0870
      4  O          3.6670    1.3940    2.2640 O.2     1  UNL1       -0.3000
      5  C          7.0020    0.3460    1.4220 C.3     1  UNL1        0.0430
      6  C          7.3980   -0.6400    0.4010 C.2     1  UNL1       -0.0440
      7  C          7.2970   -0.3600   -0.9670 C.2     1  UNL1        0.0080
      8  C          7.8810   -1.8680    0.7900 C.2     1  UNL1        0.0540
      9  C          7.6840   -1.3250   -1.8800 C.2     1  UNL1        0.0510
     10  C          8.2710   -2.8400   -0.1360 C.2     1  UNL1        0.1660
     11  C          8.1710   -2.5660   -1.4820 C.2     1  UNL1        0.1650
     12  O          8.7750   -4.1170   -0.0040 O.2     1  UNL1       -0.4540
     13  O          8.6210   -3.6910   -2.1550 O.2     1  UNL1       -0.4540
     14  C          9.0980   -4.6640   -1.2560 C.3     1  UNL1        0.4680
@<TRIPOS>BOND
     1    13    11    1
     2    13    14    1
     3     9    11    2
     4     9     7    1
     5    11    10    1
     6    14    12    1
     7     7     6    2
     8    10    12    1
     9    10     8    2
    10     6     8    1
    11     6     5    1
    12     3     2    1
    13     5     1    1
    14     2     1    1
    15     2     4    2
