@<TRIPOS>MOLECULE
/home/cewinharhar/GITHUB/reincatalyze/data/processed/docking_pred/2023-May-31-1438_sub9_nm5_bs15_s42_ex16_mel10_mts1000_k50_ec05_g099_lra9e-4_lrc3e-3/c2bbe2b0b698b4c34a14c6b9d782c5d04fb4e97c_ligand_9.pdbqt
 14 15 0 0 0
SMALL
GASTEIGER

@<TRIPOS>ATOM
      1  C          5.5070    1.9270    1.2570 C.3     1  UNL1        0.0800
      2  C          5.0570    0.7140    1.9950 C.2     1  UNL1        0.1300
      3  C          5.9350   -0.4760    2.1490 C.3     1  UNL1        0.0870
      4  O          3.9460    0.6630    2.4980 O.2     1  UNL1       -0.3000
      5  C          5.3860    1.7360   -0.2420 C.3     1  UNL1        0.0430
      6  C          6.5560    1.0350   -0.8000 C.2     1  UNL1       -0.0440
      7  C          7.8610    1.4710   -0.5460 C.2     1  UNL1        0.0080
      8  C          6.3720   -0.0780   -1.5880 C.2     1  UNL1        0.0540
      9  C          8.9210    0.7720   -1.0960 C.2     1  UNL1        0.0510
     10  C          7.4470   -0.7820   -2.1410 C.2     1  UNL1        0.1660
     11  C          8.7310   -0.3530   -1.8930 C.2     1  UNL1        0.1650
     12  O          7.5240   -1.8990   -2.9460 O.2     1  UNL1       -0.4540
     13  O          9.5800   -1.2250   -2.5560 O.2     1  UNL1       -0.4540
     14  C          8.8610   -2.2720   -3.1620 C.3     1  UNL1        0.4680
@<TRIPOS>BOND
     1    14    12    1
     2    14    13    1
     3    12    10    1
     4    13    11    1
     5    10    11    2
     6    10     8    1
     7    11     9    1
     8     8     6    2
     9     9     7    2
    10     6     7    1
    11     6     5    1
    12     5     1    1
    13     1     2    1
    14     2     3    1
    15     2     4    2
