@<TRIPOS>MOLECULE
/home/cewinharhar/GITHUB/reincatalyze/data/processed/docking_pred/2023-May-31-1438_sub9_nm5_bs15_s42_ex16_mel10_mts1000_k50_ec05_g099_lra9e-4_lrc3e-3/c61eb663c2c3330cf201d691d278f59eb7eebd68_ligand_9.pdbqt
 14 15 0 0 0
SMALL
GASTEIGER

@<TRIPOS>ATOM
      1  C          6.3920    1.2140    0.9320 C.3     1  UNL1        0.0800
      2  C          5.6710    0.3720    1.9280 C.2     1  UNL1        0.1300
      3  C          6.2830   -0.8570    2.5000 C.3     1  UNL1        0.0870
      4  O          4.5490    0.6700    2.3050 O.2     1  UNL1       -0.3000
      5  C          5.8890    0.9550   -0.4740 C.3     1  UNL1        0.0430
      6  C          6.8270    0.1210   -1.2450 C.2     1  UNL1       -0.0440
      7  C          7.5140    0.6250   -2.3560 C.2     1  UNL1        0.0080
      8  C          7.0430   -1.1860   -0.8720 C.2     1  UNL1        0.0540
      9  C          8.3830   -0.2050   -3.0410 C.2     1  UNL1        0.0510
     10  C          7.9240   -2.0210   -1.5670 C.2     1  UNL1        0.1660
     11  C          8.5990   -1.5260   -2.6610 C.2     1  UNL1        0.1650
     12  O          8.3040   -3.3350   -1.3980 O.2     1  UNL1       -0.4540
     13  O          9.3890   -2.5570   -3.1450 O.2     1  UNL1       -0.4540
     14  C          9.3010   -3.6940   -2.3200 C.3     1  UNL1        0.4680
@<TRIPOS>BOND
     1    13    11    1
     2    13    14    1
     3     9    11    2
     4     9     7    1
     5    11    10    1
     6     7     6    2
     7    14    12    1
     8    10    12    1
     9    10     8    2
    10     6     8    1
    11     6     5    1
    12     5     1    1
    13     1     2    1
    14     2     4    2
    15     2     3    1
