@<TRIPOS>MOLECULE
/home/cewinharhar/GITHUB/reincatalyze/data/processed/docking_pred/2023-May-31-1438_sub9_nm5_bs15_s42_ex16_mel10_mts1000_k50_ec05_g099_lra9e-4_lrc3e-3/c8a10dea28a77dd5a54e6b3bff917c6d12aef46d_ligand_9.pdbqt
 14 15 0 0 0
SMALL
GASTEIGER

@<TRIPOS>ATOM
      1  C          2.6800   -7.6500   -0.8500 C.3     1  UNL1        0.0800
      2  C          2.4320   -6.2740   -0.3370 C.2     1  UNL1        0.1300
      3  C          2.0230   -5.1660   -1.2410 C.3     1  UNL1        0.0870
      4  O          2.5580   -6.0160    0.8490 O.2     1  UNL1       -0.3000
      5  C          2.8570   -8.6380    0.2860 C.3     1  UNL1        0.0430
      6  C          1.6080   -9.3630    0.5800 C.2     1  UNL1       -0.0440
      7  C          0.3610   -8.8630    0.1870 C.2     1  UNL1        0.0080
      8  C          1.6570  -10.5620    1.2540 C.2     1  UNL1        0.0540
      9  C         -0.7780   -9.5870    0.4890 C.2     1  UNL1        0.0510
     10  C          0.5030  -11.2910    1.5560 C.2     1  UNL1        0.1660
     11  C         -0.7240  -10.7990    1.1710 C.2     1  UNL1        0.1650
     12  O          0.2920  -12.4880    2.2070 O.2     1  UNL1       -0.4540
     13  O         -1.6740  -11.7150    1.5970 O.2     1  UNL1       -0.4540
     14  C         -1.0670  -12.8440    2.1770 C.3     1  UNL1        0.4680
@<TRIPOS>BOND
     1     3     2    1
     2     1     2    1
     3     1     5    1
     4     2     4    2
     5     7     9    1
     6     7     6    2
     7     5     6    1
     8     9    11    2
     9     6     8    1
    10    11    10    1
    11    11    13    1
    12     8    10    2
    13    10    12    1
    14    13    14    1
    15    14    12    1
