@<TRIPOS>MOLECULE
/home/cewinharhar/GITHUB/reincatalyze/data/processed/docking_pred/2023-May-31-1438_sub9_nm5_bs15_s42_ex16_mel10_mts1000_k50_ec05_g099_lra9e-4_lrc3e-3/c8a10dea28a77dd5a54e6b3bff917c6d12aef46d_ligand_9.pdbqt
 14 15 0 0 0
SMALL
GASTEIGER

@<TRIPOS>ATOM
      1  C          2.1710   -7.5650   -0.6920 C.3     1  UNL1        0.0800
      2  C          2.2980   -6.0970   -0.4710 C.2     1  UNL1        0.1300
      3  C          2.2090   -5.1280   -1.5950 C.3     1  UNL1        0.0870
      4  O          2.4810   -5.6460    0.6480 O.2     1  UNL1       -0.3000
      5  C          2.7520   -8.3490    0.4680 C.3     1  UNL1        0.0430
      6  C          1.8840   -9.4750    0.8560 C.2     1  UNL1       -0.0440
      7  C          2.4150  -10.6950    1.2900 C.2     1  UNL1        0.0080
      8  C          0.5160   -9.3340    0.7960 C.2     1  UNL1        0.0540
      9  C          1.5510  -11.7160    1.6420 C.2     1  UNL1        0.0510
     10  C         -0.3530  -10.3690    1.1530 C.2     1  UNL1        0.1660
     11  C          0.1690  -11.5700    1.5800 C.2     1  UNL1        0.1650
     12  O         -1.7280  -10.4750    1.1790 O.2     1  UNL1       -0.4540
     13  O         -0.9070  -12.3970    1.8630 O.2     1  UNL1       -0.4540
     14  C         -2.1280  -11.7130    1.7090 C.3     1  UNL1        0.4680
@<TRIPOS>BOND
     1     3     2    1
     2     1     2    1
     3     1     5    1
     4     2     4    2
     5     5     6    1
     6     8     6    2
     7     8    10    1
     8     6     7    1
     9    10    12    1
    10    10    11    2
    11    12    14    1
    12     7     9    2
    13    11     9    1
    14    11    13    1
    15    14    13    1
