@<TRIPOS>MOLECULE
/home/cewinharhar/GITHUB/reincatalyze/data/processed/docking_pred/2023-May-31-1438_sub9_nm5_bs15_s42_ex16_mel10_mts1000_k50_ec05_g099_lra9e-4_lrc3e-3/c8a10dea28a77dd5a54e6b3bff917c6d12aef46d_ligand_9.pdbqt
 14 15 0 0 0
SMALL
GASTEIGER

@<TRIPOS>ATOM
      1  C          8.7920   -4.7860   -0.3740 C.3     1  UNL1        0.0800
      2  C          9.5240   -4.6870   -1.6680 C.2     1  UNL1        0.1300
      3  C         10.3620   -5.8050   -2.1780 C.3     1  UNL1        0.0870
      4  O          9.4570   -3.6780   -2.3510 O.2     1  UNL1       -0.3000
      5  C          9.5370   -4.0710    0.7360 C.3     1  UNL1        0.0430
      6  C          8.8810   -2.8050    1.1070 C.2     1  UNL1       -0.0440
      7  C          9.6050   -1.6140    1.2330 C.2     1  UNL1        0.0080
      8  C          7.5240   -2.7810    1.3360 C.2     1  UNL1        0.0540
      9  C          8.9350   -0.4550    1.5830 C.2     1  UNL1        0.0510
     10  C          6.8520   -1.6070    1.6900 C.2     1  UNL1        0.1660
     11  C          7.5630   -0.4350    1.8150 C.2     1  UNL1        0.1650
     12  O          5.5300   -1.3290    1.9660 O.2     1  UNL1       -0.4540
     13  O          6.6540    0.5500    2.1680 O.2     1  UNL1       -0.4540
     14  C          5.3400    0.0460    2.1870 C.3     1  UNL1        0.4680
@<TRIPOS>BOND
     1     4     2    2
     2     3     2    1
     3     2     1    1
     4     1     5    1
     5     5     6    1
     6     6     7    2
     7     6     8    1
     8     7     9    1
     9     8    10    2
    10     9    11    2
    11    10    11    1
    12    10    12    1
    13    11    13    1
    14    12    14    1
    15    13    14    1
