@<TRIPOS>MOLECULE
/home/cewinharhar/GITHUB/reincatalyze/data/processed/docking_pred/2023-May-31-1438_sub9_nm5_bs15_s42_ex16_mel10_mts1000_k50_ec05_g099_lra9e-4_lrc3e-3/ca2511eb0ea692a115cf18c67ef7ccdfaa736476_ligand_9.pdbqt
 14 15 0 0 0
SMALL
GASTEIGER

@<TRIPOS>ATOM
      1  C          5.7580    1.3570   -0.2950 C.3     1  UNL1        0.0800
      2  C          5.1340    1.2620    1.0540 C.2     1  UNL1        0.1300
      3  C          5.3660    0.0910    1.9410 C.3     1  UNL1        0.0870
      4  O          4.4080    2.1490    1.4720 O.2     1  UNL1       -0.3000
      5  C          7.2520    1.1110   -0.2290 C.3     1  UNL1        0.0430
      6  C          7.6210   -0.1790   -0.8380 C.2     1  UNL1       -0.0440
      7  C          7.6880   -0.3420   -2.2260 C.2     1  UNL1        0.0080
      8  C          7.9120   -1.2560   -0.0320 C.2     1  UNL1        0.0540
      9  C          8.0400   -1.5760   -2.7410 C.2     1  UNL1        0.0510
     10  C          8.2690   -2.5010   -0.5570 C.2     1  UNL1        0.1660
     11  C          8.3330   -2.6630   -1.9230 C.2     1  UNL1        0.1650
     12  O          8.5980   -3.7070    0.0250 O.2     1  UNL1       -0.4540
     13  O          8.7050   -3.9780   -2.1550 O.2     1  UNL1       -0.4540
     14  C          8.9720   -4.6500   -0.9470 C.3     1  UNL1        0.4680
@<TRIPOS>BOND
     1     9     7    1
     2     9    11    2
     3     7     6    2
     4    13    11    1
     5    13    14    1
     6    11    10    1
     7    14    12    1
     8     6     5    1
     9     6     8    1
    10    10     8    2
    11    10    12    1
    12     1     5    1
    13     1     2    1
    14     2     4    2
    15     2     3    1
