@<TRIPOS>MOLECULE
/home/cewinharhar/GITHUB/reincatalyze/data/processed/docking_pred/2023-May-31-1438_sub9_nm5_bs15_s42_ex16_mel10_mts1000_k50_ec05_g099_lra9e-4_lrc3e-3/ca2511eb0ea692a115cf18c67ef7ccdfaa736476_ligand_9.pdbqt
 14 15 0 0 0
SMALL
GASTEIGER

@<TRIPOS>ATOM
      1  C          6.3450    1.2490    0.8920 C.3     1  UNL1        0.0800
      2  C          5.6630    0.4130    1.9190 C.2     1  UNL1        0.1300
      3  C          6.3090   -0.7960    2.4960 C.3     1  UNL1        0.0870
      4  O          4.5460    0.6990    2.3180 O.2     1  UNL1       -0.3000
      5  C          5.8310    0.9400   -0.5000 C.3     1  UNL1        0.0430
      6  C          6.7900    0.1280   -1.2690 C.2     1  UNL1       -0.0440
      7  C          7.4890    0.6570   -2.3600 C.2     1  UNL1        0.0080
      8  C          7.0140   -1.1830   -0.9130 C.2     1  UNL1        0.0540
      9  C          8.3780   -0.1520   -3.0440 C.2     1  UNL1        0.0510
     10  C          7.9150   -1.9970   -1.6080 C.2     1  UNL1        0.1660
     11  C          8.6020   -1.4770   -2.6820 C.2     1  UNL1        0.1650
     12  O          8.3060   -3.3090   -1.4530 O.2     1  UNL1       -0.4540
     13  O          9.4100   -2.4920   -3.1700 O.2     1  UNL1       -0.4540
     14  C          9.3210   -3.6430   -2.3650 C.3     1  UNL1        0.4680
@<TRIPOS>BOND
     1    13    11    1
     2    13    14    1
     3     9    11    2
     4     9     7    1
     5    11    10    1
     6    14    12    1
     7     7     6    2
     8    10    12    1
     9    10     8    2
    10     6     8    1
    11     6     5    1
    12     5     1    1
    13     1     2    1
    14     2     4    2
    15     2     3    1
