MODEL 1
REMARK VINA RESULT:      -7.7      0.000      0.000
REMARK SMILES CC(=O)CCc1ccc2c(c1)OCO2
REMARK SMILES IDX 4 1 2 2 1 3 3 4 5 5 6 6 7 7 11 8 8 9 10 10 9 11 12 12 14 13
REMARK SMILES IDX 13 14
REMARK H PARENT
REMARK Flexibility Score: inf
ROOT
ATOM      1  C   UNL     1       5.505   1.909   1.247  1.00  0.00     0.080 C 
ENDROOT
BRANCH   1   2
ATOM      2  C   UNL     1       5.033   0.708   1.991  1.00  0.00     0.130 C 
ATOM      3  C   UNL     1       5.873  -0.513   2.116  1.00  0.00     0.087 C 
ATOM      4  O   UNL     1       3.934   0.692   2.522  1.00  0.00    -0.300 OA
ENDBRANCH   1   2
BRANCH   1   5
ATOM      5  C   UNL     1       5.384   1.711  -0.251  1.00  0.00     0.043 C 
BRANCH   5   6
ATOM      6  C   UNL     1       6.558   1.014  -0.807  1.00  0.00    -0.044 A 
ATOM      7  C   UNL     1       7.862   1.450  -0.543  1.00  0.00     0.008 A 
ATOM      8  C   UNL     1       6.380  -0.094  -1.602  1.00  0.00     0.054 A 
ATOM      9  C   UNL     1       8.925   0.756  -1.091  1.00  0.00     0.051 A 
ATOM     10  C   UNL     1       7.458  -0.793  -2.153  1.00  0.00     0.166 A 
ATOM     11  C   UNL     1       8.741  -0.364  -1.895  1.00  0.00     0.165 A 
ATOM     12  O   UNL     1       7.542  -1.906  -2.964  1.00  0.00    -0.454 OA
ATOM     13  O   UNL     1       9.595  -1.232  -2.559  1.00  0.00    -0.454 OA
ATOM     14  C   UNL     1       8.880  -2.277  -3.174  1.00  0.00     0.468 C 
ENDBRANCH   5   6
ENDBRANCH   1   5
TORSDOF 3
ENDMDL
MODEL 2
REMARK VINA RESULT:      -7.5      1.933      2.384
REMARK SMILES CC(=O)CCc1ccc2c(c1)OCO2
REMARK SMILES IDX 4 1 2 2 1 3 3 4 5 5 6 6 7 7 11 8 8 9 10 10 9 11 12 12 14 13
REMARK SMILES IDX 13 14
REMARK H PARENT
REMARK Flexibility Score: inf
ROOT
ATOM      1  C   UNL     1       5.758   1.357  -0.295  1.00  0.00     0.080 C 
ENDROOT
BRANCH   1   2
ATOM      2  C   UNL     1       5.134   1.262   1.054  1.00  0.00     0.130 C 
ATOM      3  C   UNL     1       5.366   0.091   1.941  1.00  0.00     0.087 C 
ATOM      4  O   UNL     1       4.408   2.149   1.472  1.00  0.00    -0.300 OA
ENDBRANCH   1   2
BRANCH   1   5
ATOM      5  C   UNL     1       7.252   1.111  -0.229  1.00  0.00     0.043 C 
BRANCH   5   6
ATOM      6  C   UNL     1       7.621  -0.179  -0.838  1.00  0.00    -0.044 A 
ATOM      7  C   UNL     1       7.688  -0.342  -2.226  1.00  0.00     0.008 A 
ATOM      8  C   UNL     1       7.912  -1.256  -0.032  1.00  0.00     0.054 A 
ATOM      9  C   UNL     1       8.040  -1.576  -2.741  1.00  0.00     0.051 A 
ATOM     10  C   UNL     1       8.269  -2.501  -0.557  1.00  0.00     0.166 A 
ATOM     11  C   UNL     1       8.333  -2.663  -1.923  1.00  0.00     0.165 A 
ATOM     12  O   UNL     1       8.598  -3.707   0.025  1.00  0.00    -0.454 OA
ATOM     13  O   UNL     1       8.705  -3.978  -2.155  1.00  0.00    -0.454 OA
ATOM     14  C   UNL     1       8.972  -4.650  -0.947  1.00  0.00     0.468 C 
ENDBRANCH   5   6
ENDBRANCH   1   5
TORSDOF 3
ENDMDL
MODEL 3
REMARK VINA RESULT:      -7.2      2.039      2.597
REMARK SMILES CC(=O)CCc1ccc2c(c1)OCO2
REMARK SMILES IDX 4 1 2 2 1 3 3 4 5 5 6 6 7 7 11 8 8 9 10 10 9 11 12 12 14 13
REMARK SMILES IDX 13 14
REMARK H PARENT
REMARK Flexibility Score: inf
ROOT
ATOM      1  C   UNL     1       5.453  -0.021   2.026  1.00  0.00     0.080 C 
ENDROOT
BRANCH   1   2
ATOM      2  C   UNL     1       4.579   1.154   1.756  1.00  0.00     0.130 C 
ATOM      3  C   UNL     1       4.890   2.126   0.674  1.00  0.00     0.087 C 
ATOM      4  O   UNL     1       3.575   1.355   2.420  1.00  0.00    -0.300 OA
ENDBRANCH   1   2
BRANCH   1   5
ATOM      5  C   UNL     1       6.877   0.237   1.575  1.00  0.00     0.043 C 
BRANCH   5   6
ATOM      6  C   UNL     1       7.290  -0.693   0.509  1.00  0.00    -0.044 A 
ATOM      7  C   UNL     1       7.151  -0.364  -0.844  1.00  0.00     0.008 A 
ATOM      8  C   UNL     1       7.828  -1.915   0.840  1.00  0.00     0.054 A 
ATOM      9  C   UNL     1       7.556  -1.276  -1.802  1.00  0.00     0.051 A 
ATOM     10  C   UNL     1       8.237  -2.834  -0.131  1.00  0.00     0.166 A 
ATOM     11  C   UNL     1       8.100  -2.512  -1.463  1.00  0.00     0.165 A 
ATOM     12  O   UNL     1       8.792  -4.094  -0.059  1.00  0.00    -0.454 OA
ATOM     13  O   UNL     1       8.579  -3.591  -2.188  1.00  0.00    -0.454 OA
ATOM     14  C   UNL     1       9.112  -4.578  -1.338  1.00  0.00     0.468 C 
ENDBRANCH   5   6
ENDBRANCH   1   5
TORSDOF 3
ENDMDL
MODEL 4
REMARK VINA RESULT:      -7.1      1.246      1.438
REMARK SMILES CC(=O)CCc1ccc2c(c1)OCO2
REMARK SMILES IDX 4 1 2 2 1 3 3 4 5 5 6 6 7 7 11 8 8 9 10 10 9 11 12 12 14 13
REMARK SMILES IDX 13 14
REMARK H PARENT
REMARK Flexibility Score: inf
ROOT
ATOM      1  C   UNL     1       6.345   1.249   0.892  1.00  0.00     0.080 C 
ENDROOT
BRANCH   1   2
ATOM      2  C   UNL     1       5.663   0.413   1.919  1.00  0.00     0.130 C 
ATOM      3  C   UNL     1       6.309  -0.796   2.496  1.00  0.00     0.087 C 
ATOM      4  O   UNL     1       4.546   0.699   2.318  1.00  0.00    -0.300 OA
ENDBRANCH   1   2
BRANCH   1   5
ATOM      5  C   UNL     1       5.831   0.940  -0.500  1.00  0.00     0.043 C 
BRANCH   5   6
ATOM      6  C   UNL     1       6.790   0.128  -1.269  1.00  0.00    -0.044 A 
ATOM      7  C   UNL     1       7.489   0.657  -2.360  1.00  0.00     0.008 A 
ATOM      8  C   UNL     1       7.014  -1.183  -0.913  1.00  0.00     0.054 A 
ATOM      9  C   UNL     1       8.378  -0.152  -3.044  1.00  0.00     0.051 A 
ATOM     10  C   UNL     1       7.915  -1.997  -1.608  1.00  0.00     0.166 A 
ATOM     11  C   UNL     1       8.602  -1.477  -2.682  1.00  0.00     0.165 A 
ATOM     12  O   UNL     1       8.306  -3.309  -1.453  1.00  0.00    -0.454 OA
ATOM     13  O   UNL     1       9.410  -2.492  -3.170  1.00  0.00    -0.454 OA
ATOM     14  C   UNL     1       9.321  -3.643  -2.365  1.00  0.00     0.468 C 
ENDBRANCH   5   6
ENDBRANCH   1   5
TORSDOF 3
ENDMDL
MODEL 5
REMARK VINA RESULT:      -7.1      2.012      2.570
REMARK SMILES CC(=O)CCc1ccc2c(c1)OCO2
REMARK SMILES IDX 4 1 2 2 1 3 3 4 5 5 6 6 7 7 11 8 8 9 10 10 9 11 12 12 14 13
REMARK SMILES IDX 13 14
REMARK H PARENT
REMARK Flexibility Score: inf
ROOT
ATOM      1  C   UNL     1       6.756   0.592   1.325  1.00  0.00     0.080 C 
ENDROOT
BRANCH   1   2
ATOM      2  C   UNL     1       5.350   1.063   1.470  1.00  0.00     0.130 C 
ATOM      3  C   UNL     1       4.799   2.149   0.616  1.00  0.00     0.087 C 
ATOM      4  O   UNL     1       4.606   0.567   2.300  1.00  0.00    -0.300 OA
ENDBRANCH   1   2
BRANCH   1   5
ATOM      5  C   UNL     1       7.279   0.843  -0.075  1.00  0.00     0.043 C 
BRANCH   5   6
ATOM      6  C   UNL     1       7.705  -0.406  -0.731  1.00  0.00    -0.044 A 
ATOM      7  C   UNL     1       7.886  -0.481  -2.117  1.00  0.00     0.008 A 
ATOM      8  C   UNL     1       7.936  -1.531   0.028  1.00  0.00     0.054 A 
ATOM      9  C   UNL     1       8.288  -1.680  -2.677  1.00  0.00     0.051 A 
ATOM     10  C   UNL     1       8.343  -2.740  -0.543  1.00  0.00     0.166 A 
ATOM     11  C   UNL     1       8.520  -2.816  -1.906  1.00  0.00     0.165 A 
ATOM     12  O   UNL     1       8.632  -3.980  -0.012  1.00  0.00    -0.454 OA
ATOM     13  O   UNL     1       8.919  -4.113  -2.187  1.00  0.00    -0.454 OA
ATOM     14  C   UNL     1       9.090  -4.859  -1.006  1.00  0.00     0.468 C 
ENDBRANCH   5   6
ENDBRANCH   1   5
TORSDOF 3
ENDMDL
