@<TRIPOS>MOLECULE
/home/cewinharhar/GITHUB/reincatalyze/data/processed/docking_pred/2023-May-31-1438_sub9_nm5_bs15_s42_ex16_mel10_mts1000_k50_ec05_g099_lra9e-4_lrc3e-3/cb79d4b49cb2e7af28552c4e2a37cc688e9725fc_ligand_9.pdbqt
 14 15 0 0 0
SMALL
GASTEIGER

@<TRIPOS>ATOM
      1  C          6.4050    1.1970    0.9330 C.3     1  UNL1        0.0800
      2  C          5.6670    0.3760    1.9340 C.2     1  UNL1        0.1300
      3  C          6.2610   -0.8520    2.5260 C.3     1  UNL1        0.0870
      4  O          4.5460    0.6920    2.2990 O.2     1  UNL1       -0.3000
      5  C          5.9030    0.9310   -0.4730 C.3     1  UNL1        0.0430
      6  C          6.8440    0.0960   -1.2400 C.2     1  UNL1       -0.0440
      7  C          7.5330    0.5970   -2.3500 C.2     1  UNL1        0.0080
      8  C          7.0600   -1.2100   -0.8630 C.2     1  UNL1        0.0540
      9  C          8.4040   -0.2330   -3.0310 C.2     1  UNL1        0.0510
     10  C          7.9420   -2.0460   -1.5540 C.2     1  UNL1        0.1660
     11  C          8.6190   -1.5540   -2.6480 C.2     1  UNL1        0.1650
     12  O          8.3220   -3.3600   -1.3810 O.2     1  UNL1       -0.4540
     13  O          9.4110   -2.5860   -3.1270 O.2     1  UNL1       -0.4540
     14  C          9.3220   -3.7210   -2.3000 C.3     1  UNL1        0.4680
@<TRIPOS>BOND
     1    13    11    1
     2    13    14    1
     3     9    11    2
     4     9     7    1
     5    11    10    1
     6     7     6    2
     7    14    12    1
     8    10    12    1
     9    10     8    2
    10     6     8    1
    11     6     5    1
    12     5     1    1
    13     1     2    1
    14     2     4    2
    15     2     3    1
