@<TRIPOS>MOLECULE
/home/cewinharhar/GITHUB/reincatalyze/data/processed/docking_pred/2023-May-31-1438_sub9_nm5_bs15_s42_ex16_mel10_mts1000_k50_ec05_g099_lra9e-4_lrc3e-3/cc4a81c85f0f72a0e9860fd8246284f5ccc1e781_ligand_9.pdbqt
 14 15 0 0 0
SMALL
GASTEIGER

@<TRIPOS>ATOM
      1  C          5.5520    1.9240    1.2750 C.3     1  UNL1        0.0800
      2  C          5.1230    0.7060    2.0180 C.2     1  UNL1        0.1300
      3  C          6.0320   -0.4570    2.2010 C.3     1  UNL1        0.0870
      4  O          4.0050    0.6280    2.5010 O.2     1  UNL1       -0.3000
      5  C          5.4170    1.7310   -0.2230 C.3     1  UNL1        0.0430
      6  C          6.5820    1.0270   -0.7900 C.2     1  UNL1       -0.0440
      7  C          7.8900    1.4560   -0.5390 C.2     1  UNL1        0.0080
      8  C          6.3900   -0.0800   -1.5840 C.2     1  UNL1        0.0540
      9  C          8.9440    0.7560   -1.0980 C.2     1  UNL1        0.0510
     10  C          7.4590   -0.7850   -2.1460 C.2     1  UNL1        0.1660
     11  C          8.7460   -0.3630   -1.9010 C.2     1  UNL1        0.1650
     12  O          7.5280   -1.8970   -2.9570 O.2     1  UNL1       -0.4540
     13  O          9.5880   -1.2350   -2.5730 O.2     1  UNL1       -0.4540
     14  C          8.8620   -2.2760   -3.1810 C.3     1  UNL1        0.4680
@<TRIPOS>BOND
     1    14    12    1
     2    14    13    1
     3    12    10    1
     4    13    11    1
     5    10    11    2
     6    10     8    1
     7    11     9    1
     8     8     6    2
     9     9     7    2
    10     6     7    1
    11     6     5    1
    12     5     1    1
    13     1     2    1
    14     2     3    1
    15     2     4    2
