MODEL 1
REMARK VINA RESULT:      -7.7      0.000      0.000
REMARK SMILES CC(=O)CCc1ccc2c(c1)OCO2
REMARK SMILES IDX 4 1 2 2 1 3 3 4 5 5 6 6 7 7 11 8 8 9 10 10 9 11 12 12 14 13
REMARK SMILES IDX 13 14
REMARK H PARENT
REMARK Flexibility Score: inf
ROOT
ATOM      1  C   UNL     1       5.552   1.924   1.275  1.00  0.00     0.080 C 
ENDROOT
BRANCH   1   2
ATOM      2  C   UNL     1       5.123   0.706   2.018  1.00  0.00     0.130 C 
ATOM      3  C   UNL     1       6.032  -0.457   2.201  1.00  0.00     0.087 C 
ATOM      4  O   UNL     1       4.005   0.628   2.501  1.00  0.00    -0.300 OA
ENDBRANCH   1   2
BRANCH   1   5
ATOM      5  C   UNL     1       5.417   1.731  -0.223  1.00  0.00     0.043 C 
BRANCH   5   6
ATOM      6  C   UNL     1       6.582   1.027  -0.790  1.00  0.00    -0.044 A 
ATOM      7  C   UNL     1       7.890   1.456  -0.539  1.00  0.00     0.008 A 
ATOM      8  C   UNL     1       6.390  -0.080  -1.584  1.00  0.00     0.054 A 
ATOM      9  C   UNL     1       8.944   0.756  -1.098  1.00  0.00     0.051 A 
ATOM     10  C   UNL     1       7.459  -0.785  -2.146  1.00  0.00     0.166 A 
ATOM     11  C   UNL     1       8.746  -0.363  -1.901  1.00  0.00     0.165 A 
ATOM     12  O   UNL     1       7.528  -1.897  -2.957  1.00  0.00    -0.454 OA
ATOM     13  O   UNL     1       9.588  -1.235  -2.573  1.00  0.00    -0.454 OA
ATOM     14  C   UNL     1       8.862  -2.276  -3.181  1.00  0.00     0.468 C 
ENDBRANCH   5   6
ENDBRANCH   1   5
TORSDOF 3
ENDMDL
MODEL 2
REMARK VINA RESULT:      -7.4      1.932      2.384
REMARK SMILES CC(=O)CCc1ccc2c(c1)OCO2
REMARK SMILES IDX 4 1 2 2 1 3 3 4 5 5 6 6 7 7 11 8 8 9 10 10 9 11 12 12 14 13
REMARK SMILES IDX 13 14
REMARK H PARENT
REMARK Flexibility Score: inf
ROOT
ATOM      1  C   UNL     1       5.741   1.376  -0.258  1.00  0.00     0.080 C 
ENDROOT
BRANCH   1   2
ATOM      2  C   UNL     1       5.117   1.269   1.091  1.00  0.00     0.130 C 
ATOM      3  C   UNL     1       5.430   0.141   2.008  1.00  0.00     0.087 C 
ATOM      4  O   UNL     1       4.325   2.110   1.484  1.00  0.00    -0.300 OA
ENDBRANCH   1   2
BRANCH   1   5
ATOM      5  C   UNL     1       7.233   1.119  -0.196  1.00  0.00     0.043 C 
BRANCH   5   6
ATOM      6  C   UNL     1       7.590  -0.173  -0.810  1.00  0.00    -0.044 A 
ATOM      7  C   UNL     1       7.613  -0.343  -2.198  1.00  0.00     0.008 A 
ATOM      8  C   UNL     1       7.914  -1.243  -0.007  1.00  0.00     0.054 A 
ATOM      9  C   UNL     1       7.957  -1.578  -2.717  1.00  0.00     0.051 A 
ATOM     10  C   UNL     1       8.262  -2.489  -0.536  1.00  0.00     0.166 A 
ATOM     11  C   UNL     1       8.283  -2.658  -1.903  1.00  0.00     0.165 A 
ATOM     12  O   UNL     1       8.618  -3.690   0.041  1.00  0.00    -0.454 OA
ATOM     13  O   UNL     1       8.656  -3.972  -2.139  1.00  0.00    -0.454 OA
ATOM     14  C   UNL     1       8.966  -4.636  -0.936  1.00  0.00     0.468 C 
ENDBRANCH   5   6
ENDBRANCH   1   5
TORSDOF 3
ENDMDL
MODEL 3
REMARK VINA RESULT:      -7.2      2.055      2.620
REMARK SMILES CC(=O)CCc1ccc2c(c1)OCO2
REMARK SMILES IDX 4 1 2 2 1 3 3 4 5 5 6 6 7 7 11 8 8 9 10 10 9 11 12 12 14 13
REMARK SMILES IDX 13 14
REMARK H PARENT
REMARK Flexibility Score: inf
ROOT
ATOM      1  C   UNL     1       5.447  -0.038   1.999  1.00  0.00     0.080 C 
ENDROOT
BRANCH   1   2
ATOM      2  C   UNL     1       4.586   1.152   1.754  1.00  0.00     0.130 C 
ATOM      3  C   UNL     1       4.898   2.134   0.681  1.00  0.00     0.087 C 
ATOM      4  O   UNL     1       3.592   1.357   2.432  1.00  0.00    -0.300 OA
ENDBRANCH   1   2
BRANCH   1   5
ATOM      5  C   UNL     1       6.876   0.216   1.561  1.00  0.00     0.043 C 
BRANCH   5   6
ATOM      6  C   UNL     1       7.297  -0.717   0.501  1.00  0.00    -0.044 A 
ATOM      7  C   UNL     1       7.172  -0.392  -0.854  1.00  0.00     0.008 A 
ATOM      8  C   UNL     1       7.829  -1.940   0.841  1.00  0.00     0.054 A 
ATOM      9  C   UNL     1       7.585  -1.308  -1.805  1.00  0.00     0.051 A 
ATOM     10  C   UNL     1       8.246  -2.862  -0.124  1.00  0.00     0.166 A 
ATOM     11  C   UNL     1       8.122  -2.543  -1.458  1.00  0.00     0.165 A 
ATOM     12  O   UNL     1       8.798  -4.123  -0.042  1.00  0.00    -0.454 OA
ATOM     13  O   UNL     1       8.606  -3.626  -2.175  1.00  0.00    -0.454 OA
ATOM     14  C   UNL     1       9.128  -4.612  -1.317  1.00  0.00     0.468 C 
ENDBRANCH   5   6
ENDBRANCH   1   5
TORSDOF 3
ENDMDL
MODEL 4
REMARK VINA RESULT:      -7.1      1.254      1.470
REMARK SMILES CC(=O)CCc1ccc2c(c1)OCO2
REMARK SMILES IDX 4 1 2 2 1 3 3 4 5 5 6 6 7 7 11 8 8 9 10 10 9 11 12 12 14 13
REMARK SMILES IDX 13 14
REMARK H PARENT
REMARK Flexibility Score: inf
ROOT
ATOM      1  C   UNL     1       6.376   1.181   0.923  1.00  0.00     0.080 C 
ENDROOT
BRANCH   1   2
ATOM      2  C   UNL     1       5.659   0.373   1.949  1.00  0.00     0.130 C 
ATOM      3  C   UNL     1       6.255  -0.862   2.527  1.00  0.00     0.087 C 
ATOM      4  O   UNL     1       4.554   0.703   2.347  1.00  0.00    -0.300 OA
ENDBRANCH   1   2
BRANCH   1   5
ATOM      5  C   UNL     1       5.860   0.883  -0.470  1.00  0.00     0.043 C 
BRANCH   5   6
ATOM      6  C   UNL     1       6.815   0.072  -1.246  1.00  0.00    -0.044 A 
ATOM      7  C   UNL     1       7.501   0.599  -2.346  1.00  0.00     0.008 A 
ATOM      8  C   UNL     1       7.048  -1.236  -0.886  1.00  0.00     0.054 A 
ATOM      9  C   UNL     1       8.386  -0.210  -3.035  1.00  0.00     0.051 A 
ATOM     10  C   UNL     1       7.945  -2.049  -1.586  1.00  0.00     0.166 A 
ATOM     11  C   UNL     1       8.619  -1.532  -2.669  1.00  0.00     0.165 A 
ATOM     12  O   UNL     1       8.343  -3.360  -1.429  1.00  0.00    -0.454 OA
ATOM     13  O   UNL     1       9.427  -2.546  -3.160  1.00  0.00    -0.454 OA
ATOM     14  C   UNL     1       9.351  -3.694  -2.349  1.00  0.00     0.468 C 
ENDBRANCH   5   6
ENDBRANCH   1   5
TORSDOF 3
ENDMDL
MODEL 5
REMARK VINA RESULT:      -7.0      1.986      2.557
REMARK SMILES CC(=O)CCc1ccc2c(c1)OCO2
REMARK SMILES IDX 4 1 2 2 1 3 3 4 5 5 6 6 7 7 11 8 8 9 10 10 9 11 12 12 14 13
REMARK SMILES IDX 13 14
REMARK H PARENT
REMARK Flexibility Score: inf
ROOT
ATOM      1  C   UNL     1       6.797   0.693   1.323  1.00  0.00     0.080 C 
ENDROOT
BRANCH   1   2
ATOM      2  C   UNL     1       5.366   1.073   1.486  1.00  0.00     0.130 C 
ATOM      3  C   UNL     1       4.746   2.150   0.669  1.00  0.00     0.087 C 
ATOM      4  O   UNL     1       4.657   0.508   2.303  1.00  0.00    -0.300 OA
ENDBRANCH   1   2
BRANCH   1   5
ATOM      5  C   UNL     1       7.265   0.912  -0.102  1.00  0.00     0.043 C 
BRANCH   5   6
ATOM      6  C   UNL     1       7.636  -0.355  -0.757  1.00  0.00    -0.044 A 
ATOM      7  C   UNL     1       7.683  -0.473  -2.151  1.00  0.00     0.008 A 
ATOM      8  C   UNL     1       7.948  -1.454   0.011  1.00  0.00     0.054 A 
ATOM      9  C   UNL     1       8.039  -1.687  -2.709  1.00  0.00     0.051 A 
ATOM     10  C   UNL     1       8.307  -2.679  -0.559  1.00  0.00     0.166 A 
ATOM     11  C   UNL     1       8.353  -2.797  -1.930  1.00  0.00     0.165 A 
ATOM     12  O   UNL     1       8.656  -3.899  -0.020  1.00  0.00    -0.454 OA
ATOM     13  O   UNL     1       8.733  -4.100  -2.208  1.00  0.00    -0.454 OA
ATOM     14  C   UNL     1       9.023  -4.808  -1.026  1.00  0.00     0.468 C 
ENDBRANCH   5   6
ENDBRANCH   1   5
TORSDOF 3
ENDMDL
