@<TRIPOS>MOLECULE
/home/cewinharhar/GITHUB/reincatalyze/data/processed/docking_pred/2023-May-31-1438_sub9_nm5_bs15_s42_ex16_mel10_mts1000_k50_ec05_g099_lra9e-4_lrc3e-3/cc4a81c85f0f72a0e9860fd8246284f5ccc1e781_ligand_9.pdbqt
 14 15 0 0 0
SMALL
GASTEIGER

@<TRIPOS>ATOM
      1  C          5.7410    1.3760   -0.2580 C.3     1  UNL1        0.0800
      2  C          5.1170    1.2690    1.0910 C.2     1  UNL1        0.1300
      3  C          5.4300    0.1410    2.0080 C.3     1  UNL1        0.0870
      4  O          4.3250    2.1100    1.4840 O.2     1  UNL1       -0.3000
      5  C          7.2330    1.1190   -0.1960 C.3     1  UNL1        0.0430
      6  C          7.5900   -0.1730   -0.8100 C.2     1  UNL1       -0.0440
      7  C          7.6130   -0.3430   -2.1980 C.2     1  UNL1        0.0080
      8  C          7.9140   -1.2430   -0.0070 C.2     1  UNL1        0.0540
      9  C          7.9570   -1.5780   -2.7170 C.2     1  UNL1        0.0510
     10  C          8.2620   -2.4890   -0.5360 C.2     1  UNL1        0.1660
     11  C          8.2830   -2.6580   -1.9030 C.2     1  UNL1        0.1650
     12  O          8.6180   -3.6900    0.0410 O.2     1  UNL1       -0.4540
     13  O          8.6560   -3.9720   -2.1390 O.2     1  UNL1       -0.4540
     14  C          8.9660   -4.6360   -0.9360 C.3     1  UNL1        0.4680
@<TRIPOS>BOND
     1     9     7    1
     2     9    11    2
     3     7     6    2
     4    13    11    1
     5    13    14    1
     6    11    10    1
     7    14    12    1
     8     6     5    1
     9     6     8    1
    10    10     8    2
    11    10    12    1
    12     1     5    1
    13     1     2    1
    14     2     4    2
    15     2     3    1
