@<TRIPOS>MOLECULE
/home/cewinharhar/GITHUB/reincatalyze/data/processed/docking_pred/2023-May-31-1438_sub9_nm5_bs15_s42_ex16_mel10_mts1000_k50_ec05_g099_lra9e-4_lrc3e-3/cc4a81c85f0f72a0e9860fd8246284f5ccc1e781_ligand_9.pdbqt
 14 15 0 0 0
SMALL
GASTEIGER

@<TRIPOS>ATOM
      1  C          5.4470   -0.0380    1.9990 C.3     1  UNL1        0.0800
      2  C          4.5860    1.1520    1.7540 C.2     1  UNL1        0.1300
      3  C          4.8980    2.1340    0.6810 C.3     1  UNL1        0.0870
      4  O          3.5920    1.3570    2.4320 O.2     1  UNL1       -0.3000
      5  C          6.8760    0.2160    1.5610 C.3     1  UNL1        0.0430
      6  C          7.2970   -0.7170    0.5010 C.2     1  UNL1       -0.0440
      7  C          7.1720   -0.3920   -0.8540 C.2     1  UNL1        0.0080
      8  C          7.8290   -1.9400    0.8410 C.2     1  UNL1        0.0540
      9  C          7.5850   -1.3080   -1.8050 C.2     1  UNL1        0.0510
     10  C          8.2460   -2.8620   -0.1240 C.2     1  UNL1        0.1660
     11  C          8.1220   -2.5430   -1.4580 C.2     1  UNL1        0.1650
     12  O          8.7980   -4.1230   -0.0420 O.2     1  UNL1       -0.4540
     13  O          8.6060   -3.6260   -2.1750 O.2     1  UNL1       -0.4540
     14  C          9.1280   -4.6120   -1.3170 C.3     1  UNL1        0.4680
@<TRIPOS>BOND
     1    13    11    1
     2    13    14    1
     3     9    11    2
     4     9     7    1
     5    11    10    1
     6    14    12    1
     7     7     6    2
     8    10    12    1
     9    10     8    2
    10     6     8    1
    11     6     5    1
    12     3     2    1
    13     5     1    1
    14     2     1    1
    15     2     4    2
