@<TRIPOS>MOLECULE
/home/cewinharhar/GITHUB/reincatalyze/data/processed/docking_pred/2023-May-31-1438_sub9_nm5_bs15_s42_ex16_mel10_mts1000_k50_ec05_g099_lra9e-4_lrc3e-3/cdc825ac9d1cfd0e1f917a20457d8153cb4f8d56_ligand_9.pdbqt
 14 15 0 0 0
SMALL
GASTEIGER

@<TRIPOS>ATOM
      1  C          5.7670    1.4030   -0.2620 C.3     1  UNL1        0.0800
      2  C          5.1600    1.2700    1.0920 C.2     1  UNL1        0.1300
      3  C          5.3950    0.0700    1.9390 C.3     1  UNL1        0.0870
      4  O          4.4470    2.1500    1.5480 O.2     1  UNL1       -0.3000
      5  C          7.2620    1.1520   -0.2220 C.3     1  UNL1        0.0430
      6  C          7.6170   -0.1330   -0.8490 C.2     1  UNL1       -0.0440
      7  C          7.6400   -0.2890   -2.2400 C.2     1  UNL1        0.0080
      8  C          7.9390   -1.2120   -0.0570 C.2     1  UNL1        0.0540
      9  C          7.9820   -1.5190   -2.7710 C.2     1  UNL1        0.0510
     10  C          8.2850   -2.4530   -0.6000 C.2     1  UNL1        0.1660
     11  C          8.3070   -2.6080   -1.9680 C.2     1  UNL1        0.1650
     12  O          8.6390   -3.6600   -0.0350 O.2     1  UNL1       -0.4540
     13  O          8.6780   -3.9200   -2.2170 O.2     1  UNL1       -0.4540
     14  C          8.9870   -4.5970   -1.0220 C.3     1  UNL1        0.4680
@<TRIPOS>BOND
     1     9     7    1
     2     9    11    2
     3     7     6    2
     4    13    11    1
     5    13    14    1
     6    11    10    1
     7    14    12    1
     8     6     5    1
     9     6     8    1
    10    10     8    2
    11    10    12    1
    12     1     5    1
    13     1     2    1
    14     2     4    2
    15     2     3    1
