@<TRIPOS>MOLECULE
/home/cewinharhar/GITHUB/reincatalyze/data/processed/docking_pred/2023-May-31-1438_sub9_nm5_bs15_s42_ex16_mel10_mts1000_k50_ec05_g099_lra9e-4_lrc3e-3/cdc825ac9d1cfd0e1f917a20457d8153cb4f8d56_ligand_9.pdbqt
 14 15 0 0 0
SMALL
GASTEIGER

@<TRIPOS>ATOM
      1  C          6.5890    0.3550    1.0930 C.3     1  UNL1        0.0800
      2  C          5.3030    1.0300    1.4230 C.2     1  UNL1        0.1300
      3  C          4.7740    2.1490    0.5970 C.3     1  UNL1        0.0870
      4  O          4.6410    0.6820    2.3870 O.2     1  UNL1       -0.3000
      5  C          6.9570    0.5530   -0.3640 C.3     1  UNL1        0.0430
      6  C          7.5300   -0.6700   -0.9540 C.2     1  UNL1       -0.0440
      7  C          7.8070   -0.7630   -2.3230 C.2     1  UNL1        0.0080
      8  C          7.8040   -1.7520   -0.1490 C.2     1  UNL1        0.0540
      9  C          8.3450   -1.9360   -2.8210 C.2     1  UNL1        0.0510
     10  C          8.3480   -2.9360   -0.6570 C.2     1  UNL1        0.1660
     11  C          8.6200   -3.0280   -2.0040 C.2     1  UNL1        0.1650
     12  O          8.7050   -4.1330   -0.0730 O.2     1  UNL1       -0.4540
     13  O          9.1450   -4.2930   -2.2210 O.2     1  UNL1       -0.4540
     14  C          9.3010   -4.9930   -1.0100 C.3     1  UNL1        0.4680
@<TRIPOS>BOND
     1     9     7    1
     2     9    11    2
     3     7     6    2
     4    13    11    1
     5    13    14    1
     6    11    10    1
     7    14    12    1
     8     6     5    1
     9     6     8    1
    10    10     8    2
    11    10    12    1
    12     5     1    1
    13     3     2    1
    14     1     2    1
    15     2     4    2
