@<TRIPOS>MOLECULE
/home/cewinharhar/GITHUB/reincatalyze/data/processed/docking_pred/2023-May-31-1438_sub9_nm5_bs15_s42_ex16_mel10_mts1000_k50_ec05_g099_lra9e-4_lrc3e-3/cdc825ac9d1cfd0e1f917a20457d8153cb4f8d56_ligand_9.pdbqt
 14 15 0 0 0
SMALL
GASTEIGER

@<TRIPOS>ATOM
      1  C          6.3630    1.2290    0.9250 C.3     1  UNL1        0.0800
      2  C          5.6650    0.3940    1.9420 C.2     1  UNL1        0.1300
      3  C          6.2940   -0.8270    2.5150 C.3     1  UNL1        0.0870
      4  O          4.5490    0.6890    2.3370 O.2     1  UNL1       -0.3000
      5  C          5.8480    0.9400   -0.4710 C.3     1  UNL1        0.0430
      6  C          6.7970    0.1180   -1.2440 C.2     1  UNL1       -0.0440
      7  C          7.4820    0.6340   -2.3500 C.2     1  UNL1        0.0080
      8  C          7.0230   -1.1890   -0.8770 C.2     1  UNL1        0.0540
      9  C          8.3610   -0.1840   -3.0360 C.2     1  UNL1        0.0510
     10  C          7.9130   -2.0120   -1.5730 C.2     1  UNL1        0.1660
     11  C          8.5870   -1.5050   -2.6620 C.2     1  UNL1        0.1650
     12  O          8.3040   -3.3240   -1.4100 O.2     1  UNL1       -0.4540
     13  O          9.3870   -2.5270   -3.1490 O.2     1  UNL1       -0.4540
     14  C          9.3070   -3.6700   -2.3300 C.3     1  UNL1        0.4680
@<TRIPOS>BOND
     1    13    11    1
     2    13    14    1
     3     9    11    2
     4     9     7    1
     5    11    10    1
     6     7     6    2
     7    14    12    1
     8    10    12    1
     9    10     8    2
    10     6     8    1
    11     6     5    1
    12     5     1    1
    13     1     2    1
    14     2     4    2
    15     2     3    1
