MODEL 1
REMARK VINA RESULT:      -7.6      0.000      0.000
REMARK SMILES CC(=O)CCc1ccc2c(c1)OCO2
REMARK SMILES IDX 4 1 2 2 1 3 3 4 5 5 6 6 7 7 11 8 8 9 10 10 9 11 12 12 14 13
REMARK SMILES IDX 13 14
REMARK H PARENT
REMARK Flexibility Score: inf
ROOT
ATOM      1  C   UNL     1       5.577   1.898   1.298  1.00  0.00     0.080 C 
ENDROOT
BRANCH   1   2
ATOM      2  C   UNL     1       5.125   0.680   2.027  1.00  0.00     0.130 C 
ATOM      3  C   UNL     1       6.012  -0.502   2.199  1.00  0.00     0.087 C 
ATOM      4  O   UNL     1       4.005   0.617   2.507  1.00  0.00    -0.300 OA
ENDBRANCH   1   2
BRANCH   1   5
ATOM      5  C   UNL     1       5.438   1.724  -0.202  1.00  0.00     0.043 C 
BRANCH   5   6
ATOM      6  C   UNL     1       6.597   1.021  -0.780  1.00  0.00    -0.044 A 
ATOM      7  C   UNL     1       7.908   1.455  -0.549  1.00  0.00     0.008 A 
ATOM      8  C   UNL     1       6.398  -0.091  -1.566  1.00  0.00     0.054 A 
ATOM      9  C   UNL     1       8.956   0.755  -1.117  1.00  0.00     0.051 A 
ATOM     10  C   UNL     1       7.462  -0.795  -2.138  1.00  0.00     0.166 A 
ATOM     11  C   UNL     1       8.751  -0.369  -1.912  1.00  0.00     0.165 A 
ATOM     12  O   UNL     1       7.524  -1.912  -2.944  1.00  0.00    -0.454 OA
ATOM     13  O   UNL     1       9.587  -1.242  -2.590  1.00  0.00    -0.454 OA
ATOM     14  C   UNL     1       8.856  -2.288  -3.184  1.00  0.00     0.468 C 
ENDBRANCH   5   6
ENDBRANCH   1   5
TORSDOF 3
ENDMDL
MODEL 2
REMARK VINA RESULT:      -7.4      1.889      2.343
REMARK SMILES CC(=O)CCc1ccc2c(c1)OCO2
REMARK SMILES IDX 4 1 2 2 1 3 3 4 5 5 6 6 7 7 11 8 8 9 10 10 9 11 12 12 14 13
REMARK SMILES IDX 13 14
REMARK H PARENT
REMARK Flexibility Score: inf
ROOT
ATOM      1  C   UNL     1       5.767   1.403  -0.262  1.00  0.00     0.080 C 
ENDROOT
BRANCH   1   2
ATOM      2  C   UNL     1       5.160   1.270   1.092  1.00  0.00     0.130 C 
ATOM      3  C   UNL     1       5.395   0.070   1.939  1.00  0.00     0.087 C 
ATOM      4  O   UNL     1       4.447   2.150   1.548  1.00  0.00    -0.300 OA
ENDBRANCH   1   2
BRANCH   1   5
ATOM      5  C   UNL     1       7.262   1.152  -0.222  1.00  0.00     0.043 C 
BRANCH   5   6
ATOM      6  C   UNL     1       7.617  -0.133  -0.849  1.00  0.00    -0.044 A 
ATOM      7  C   UNL     1       7.640  -0.289  -2.240  1.00  0.00     0.008 A 
ATOM      8  C   UNL     1       7.939  -1.212  -0.057  1.00  0.00     0.054 A 
ATOM      9  C   UNL     1       7.982  -1.519  -2.771  1.00  0.00     0.051 A 
ATOM     10  C   UNL     1       8.285  -2.453  -0.600  1.00  0.00     0.166 A 
ATOM     11  C   UNL     1       8.307  -2.608  -1.968  1.00  0.00     0.165 A 
ATOM     12  O   UNL     1       8.639  -3.660  -0.035  1.00  0.00    -0.454 OA
ATOM     13  O   UNL     1       8.678  -3.920  -2.217  1.00  0.00    -0.454 OA
ATOM     14  C   UNL     1       8.987  -4.597  -1.022  1.00  0.00     0.468 C 
ENDBRANCH   5   6
ENDBRANCH   1   5
TORSDOF 3
ENDMDL
MODEL 3
REMARK VINA RESULT:      -7.2      2.058      2.630
REMARK SMILES CC(=O)CCc1ccc2c(c1)OCO2
REMARK SMILES IDX 4 1 2 2 1 3 3 4 5 5 6 6 7 7 11 8 8 9 10 10 9 11 12 12 14 13
REMARK SMILES IDX 13 14
REMARK H PARENT
REMARK Flexibility Score: inf
ROOT
ATOM      1  C   UNL     1       5.403  -0.063   2.010  1.00  0.00     0.080 C 
ENDROOT
BRANCH   1   2
ATOM      2  C   UNL     1       4.566   1.145   1.773  1.00  0.00     0.130 C 
ATOM      3  C   UNL     1       4.916   2.146   0.730  1.00  0.00     0.087 C 
ATOM      4  O   UNL     1       3.561   1.351   2.434  1.00  0.00    -0.300 OA
ENDBRANCH   1   2
BRANCH   1   5
ATOM      5  C   UNL     1       6.845   0.179   1.609  1.00  0.00     0.043 C 
BRANCH   5   6
ATOM      6  C   UNL     1       7.278  -0.744   0.544  1.00  0.00    -0.044 A 
ATOM      7  C   UNL     1       7.157  -0.410  -0.809  1.00  0.00     0.008 A 
ATOM      8  C   UNL     1       7.819  -1.965   0.878  1.00  0.00     0.054 A 
ATOM      9  C   UNL     1       7.581  -1.316  -1.765  1.00  0.00     0.051 A 
ATOM     10  C   UNL     1       8.248  -2.877  -0.091  1.00  0.00     0.166 A 
ATOM     11  C   UNL     1       8.127  -2.549  -1.424  1.00  0.00     0.165 A 
ATOM     12  O   UNL     1       8.809  -4.134  -0.016  1.00  0.00    -0.454 OA
ATOM     13  O   UNL     1       8.623  -3.623  -2.146  1.00  0.00    -0.454 OA
ATOM     14  C   UNL     1       9.149  -4.611  -1.293  1.00  0.00     0.468 C 
ENDBRANCH   5   6
ENDBRANCH   1   5
TORSDOF 3
ENDMDL
MODEL 4
REMARK VINA RESULT:      -7.1      1.239      1.437
REMARK SMILES CC(=O)CCc1ccc2c(c1)OCO2
REMARK SMILES IDX 4 1 2 2 1 3 3 4 5 5 6 6 7 7 11 8 8 9 10 10 9 11 12 12 14 13
REMARK SMILES IDX 13 14
REMARK H PARENT
REMARK Flexibility Score: inf
ROOT
ATOM      1  C   UNL     1       6.363   1.229   0.925  1.00  0.00     0.080 C 
ENDROOT
BRANCH   1   2
ATOM      2  C   UNL     1       5.665   0.394   1.942  1.00  0.00     0.130 C 
ATOM      3  C   UNL     1       6.294  -0.827   2.515  1.00  0.00     0.087 C 
ATOM      4  O   UNL     1       4.549   0.689   2.337  1.00  0.00    -0.300 OA
ENDBRANCH   1   2
BRANCH   1   5
ATOM      5  C   UNL     1       5.848   0.940  -0.471  1.00  0.00     0.043 C 
BRANCH   5   6
ATOM      6  C   UNL     1       6.797   0.118  -1.244  1.00  0.00    -0.044 A 
ATOM      7  C   UNL     1       7.482   0.634  -2.350  1.00  0.00     0.008 A 
ATOM      8  C   UNL     1       7.023  -1.189  -0.877  1.00  0.00     0.054 A 
ATOM      9  C   UNL     1       8.361  -0.184  -3.036  1.00  0.00     0.051 A 
ATOM     10  C   UNL     1       7.913  -2.012  -1.573  1.00  0.00     0.166 A 
ATOM     11  C   UNL     1       8.587  -1.505  -2.662  1.00  0.00     0.165 A 
ATOM     12  O   UNL     1       8.304  -3.324  -1.410  1.00  0.00    -0.454 OA
ATOM     13  O   UNL     1       9.387  -2.527  -3.149  1.00  0.00    -0.454 OA
ATOM     14  C   UNL     1       9.307  -3.670  -2.330  1.00  0.00     0.468 C 
ENDBRANCH   5   6
ENDBRANCH   1   5
TORSDOF 3
ENDMDL
MODEL 5
REMARK VINA RESULT:      -6.8      2.013      2.665
REMARK SMILES CC(=O)CCc1ccc2c(c1)OCO2
REMARK SMILES IDX 4 1 2 2 1 3 3 4 5 5 6 6 7 7 11 8 8 9 10 10 9 11 12 12 14 13
REMARK SMILES IDX 13 14
REMARK H PARENT
REMARK Flexibility Score: inf
ROOT
ATOM      1  C   UNL     1       6.589   0.355   1.093  1.00  0.00     0.080 C 
ENDROOT
BRANCH   1   2
ATOM      2  C   UNL     1       5.303   1.030   1.423  1.00  0.00     0.130 C 
ATOM      3  C   UNL     1       4.774   2.149   0.597  1.00  0.00     0.087 C 
ATOM      4  O   UNL     1       4.641   0.682   2.387  1.00  0.00    -0.300 OA
ENDBRANCH   1   2
BRANCH   1   5
ATOM      5  C   UNL     1       6.957   0.553  -0.364  1.00  0.00     0.043 C 
BRANCH   5   6
ATOM      6  C   UNL     1       7.530  -0.670  -0.954  1.00  0.00    -0.044 A 
ATOM      7  C   UNL     1       7.807  -0.763  -2.323  1.00  0.00     0.008 A 
ATOM      8  C   UNL     1       7.804  -1.752  -0.149  1.00  0.00     0.054 A 
ATOM      9  C   UNL     1       8.345  -1.936  -2.821  1.00  0.00     0.051 A 
ATOM     10  C   UNL     1       8.348  -2.936  -0.657  1.00  0.00     0.166 A 
ATOM     11  C   UNL     1       8.620  -3.028  -2.004  1.00  0.00     0.165 A 
ATOM     12  O   UNL     1       8.705  -4.133  -0.073  1.00  0.00    -0.454 OA
ATOM     13  O   UNL     1       9.145  -4.293  -2.221  1.00  0.00    -0.454 OA
ATOM     14  C   UNL     1       9.301  -4.993  -1.010  1.00  0.00     0.468 C 
ENDBRANCH   5   6
ENDBRANCH   1   5
TORSDOF 3
ENDMDL
