@<TRIPOS>MOLECULE
/home/cewinharhar/GITHUB/reincatalyze/data/processed/docking_pred/2023-May-31-1438_sub9_nm5_bs15_s42_ex16_mel10_mts1000_k50_ec05_g099_lra9e-4_lrc3e-3/cdc825ac9d1cfd0e1f917a20457d8153cb4f8d56_ligand_9.pdbqt
 14 15 0 0 0
SMALL
GASTEIGER

@<TRIPOS>ATOM
      1  C          5.4030   -0.0630    2.0100 C.3     1  UNL1        0.0800
      2  C          4.5660    1.1450    1.7730 C.2     1  UNL1        0.1300
      3  C          4.9160    2.1460    0.7300 C.3     1  UNL1        0.0870
      4  O          3.5610    1.3510    2.4340 O.2     1  UNL1       -0.3000
      5  C          6.8450    0.1790    1.6090 C.3     1  UNL1        0.0430
      6  C          7.2780   -0.7440    0.5440 C.2     1  UNL1       -0.0440
      7  C          7.1570   -0.4100   -0.8090 C.2     1  UNL1        0.0080
      8  C          7.8190   -1.9650    0.8780 C.2     1  UNL1        0.0540
      9  C          7.5810   -1.3160   -1.7650 C.2     1  UNL1        0.0510
     10  C          8.2480   -2.8770   -0.0910 C.2     1  UNL1        0.1660
     11  C          8.1270   -2.5490   -1.4240 C.2     1  UNL1        0.1650
     12  O          8.8090   -4.1340   -0.0160 O.2     1  UNL1       -0.4540
     13  O          8.6230   -3.6230   -2.1460 O.2     1  UNL1       -0.4540
     14  C          9.1490   -4.6110   -1.2930 C.3     1  UNL1        0.4680
@<TRIPOS>BOND
     1    13    11    1
     2    13    14    1
     3     9    11    2
     4     9     7    1
     5    11    10    1
     6    14    12    1
     7     7     6    2
     8    10    12    1
     9    10     8    2
    10     6     8    1
    11     6     5    1
    12     3     2    1
    13     5     1    1
    14     2     1    1
    15     2     4    2
