@<TRIPOS>MOLECULE
/home/cewinharhar/GITHUB/reincatalyze/data/processed/docking_pred/2023-May-31-1438_sub9_nm5_bs15_s42_ex16_mel10_mts1000_k50_ec05_g099_lra9e-4_lrc3e-3/cf36f354a35629e8f67fe5763b2daf9f978d0e2b_ligand_9.pdbqt
 14 15 0 0 0
SMALL
GASTEIGER

@<TRIPOS>ATOM
      1  C          5.7020    1.2640   -0.4100 C.3     1  UNL1        0.0800
      2  C          5.0870    1.2640    0.9470 C.2     1  UNL1        0.1300
      3  C          5.3800    0.1940    1.9370 C.3     1  UNL1        0.0870
      4  O          4.3200    2.1500    1.2870 O.2     1  UNL1       -0.3000
      5  C          7.1980    1.0320   -0.3370 C.3     1  UNL1        0.0430
      6  C          7.5780   -0.2680   -0.9180 C.2     1  UNL1       -0.0440
      7  C          7.5990   -0.4750   -2.3020 C.2     1  UNL1        0.0080
      8  C          7.9260   -1.3100   -0.0880 C.2     1  UNL1        0.0540
      9  C          7.9650   -1.7160   -2.7890 C.2     1  UNL1        0.0510
     10  C          8.2960   -2.5630   -0.5860 C.2     1  UNL1        0.1660
     11  C          8.3150   -2.7680   -1.9480 C.2     1  UNL1        0.1650
     12  O          8.6770   -3.7410    0.0220 O.2     1  UNL1       -0.4540
     13  O          8.7130   -4.0800   -2.1500 O.2     1  UNL1       -0.4540
     14  C          9.0400   -4.7060   -0.9320 C.3     1  UNL1        0.4680
@<TRIPOS>BOND
     1     9     7    1
     2     9    11    2
     3     7     6    2
     4    13    11    1
     5    13    14    1
     6    11    10    1
     7    14    12    1
     8     6     5    1
     9     6     8    1
    10    10     8    2
    11    10    12    1
    12     1     5    1
    13     1     2    1
    14     2     4    2
    15     2     3    1
