@<TRIPOS>MOLECULE
/home/cewinharhar/GITHUB/reincatalyze/data/processed/docking_pred/2023-May-31-1438_sub9_nm5_bs15_s42_ex16_mel10_mts1000_k50_ec05_g099_lra9e-4_lrc3e-3/cf36f354a35629e8f67fe5763b2daf9f978d0e2b_ligand_9.pdbqt
 14 15 0 0 0
SMALL
GASTEIGER

@<TRIPOS>ATOM
      1  C          6.3740    1.2270    0.9180 C.3     1  UNL1        0.0800
      2  C          5.6500    0.4090    1.9310 C.2     1  UNL1        0.1300
      3  C          6.2590   -0.8090    2.5300 C.3     1  UNL1        0.0870
      4  O          4.5290    0.7170    2.3010 O.2     1  UNL1       -0.3000
      5  C          5.8690    0.9410   -0.4830 C.3     1  UNL1        0.0430
      6  C          6.8180    0.1110   -1.2460 C.2     1  UNL1       -0.0440
      7  C          7.5090    0.6170   -2.3530 C.2     1  UNL1        0.0080
      8  C          7.0400   -1.1940   -0.8690 C.2     1  UNL1        0.0540
      9  C          8.3880   -0.2080   -3.0310 C.2     1  UNL1        0.0510
     10  C          7.9300   -2.0240   -1.5570 C.2     1  UNL1        0.1660
     11  C          8.6090   -1.5270   -2.6470 C.2     1  UNL1        0.1650
     12  O          8.3170   -3.3360   -1.3830 O.2     1  UNL1       -0.4540
     13  O          9.4080   -2.5540   -3.1240 O.2     1  UNL1       -0.4540
     14  C          9.3220   -3.6910   -2.2970 C.3     1  UNL1        0.4680
@<TRIPOS>BOND
     1    13    11    1
     2    13    14    1
     3     9    11    2
     4     9     7    1
     5    11    10    1
     6     7     6    2
     7    14    12    1
     8    10    12    1
     9    10     8    2
    10     6     8    1
    11     6     5    1
    12     5     1    1
    13     1     2    1
    14     2     4    2
    15     2     3    1
