MODEL 1
REMARK VINA RESULT:      -7.6      0.000      0.000
REMARK SMILES CC(=O)CCc1ccc2c(c1)OCO2
REMARK SMILES IDX 4 1 2 2 1 3 3 4 5 5 6 6 7 7 11 8 8 9 10 10 9 11 12 12 14 13
REMARK SMILES IDX 13 14
REMARK H PARENT
REMARK Flexibility Score: inf
ROOT
ATOM      1  C   UNL     1       5.526   1.916   1.265  1.00  0.00     0.080 C 
ENDROOT
BRANCH   1   2
ATOM      2  C   UNL     1       5.089   0.698   2.002  1.00  0.00     0.130 C 
ATOM      3  C   UNL     1       5.988  -0.475   2.175  1.00  0.00     0.087 C 
ATOM      4  O   UNL     1       3.972   0.627   2.489  1.00  0.00    -0.300 OA
ENDBRANCH   1   2
BRANCH   1   5
ATOM      5  C   UNL     1       5.399   1.728  -0.234  1.00  0.00     0.043 C 
BRANCH   5   6
ATOM      6  C   UNL     1       6.568   1.029  -0.797  1.00  0.00    -0.044 A 
ATOM      7  C   UNL     1       7.874   1.470  -0.554  1.00  0.00     0.008 A 
ATOM      8  C   UNL     1       6.383  -0.087  -1.582  1.00  0.00     0.054 A 
ATOM      9  C   UNL     1       8.932   0.774  -1.109  1.00  0.00     0.051 A 
ATOM     10  C   UNL     1       7.456  -0.788  -2.140  1.00  0.00     0.166 A 
ATOM     11  C   UNL     1       8.741  -0.354  -1.902  1.00  0.00     0.165 A 
ATOM     12  O   UNL     1       7.532  -1.907  -2.942  1.00  0.00    -0.454 OA
ATOM     13  O   UNL     1       9.589  -1.225  -2.568  1.00  0.00    -0.454 OA
ATOM     14  C   UNL     1       8.869  -2.277  -3.166  1.00  0.00     0.468 C 
ENDBRANCH   5   6
ENDBRANCH   1   5
TORSDOF 3
ENDMDL
MODEL 2
REMARK VINA RESULT:      -7.5      1.904      2.362
REMARK SMILES CC(=O)CCc1ccc2c(c1)OCO2
REMARK SMILES IDX 4 1 2 2 1 3 3 4 5 5 6 6 7 7 11 8 8 9 10 10 9 11 12 12 14 13
REMARK SMILES IDX 13 14
REMARK H PARENT
REMARK Flexibility Score: inf
ROOT
ATOM      1  C   UNL     1       5.745   1.379  -0.298  1.00  0.00     0.080 C 
ENDROOT
BRANCH   1   2
ATOM      2  C   UNL     1       5.104   1.284   1.043  1.00  0.00     0.130 C 
ATOM      3  C   UNL     1       5.376   0.144   1.960  1.00  0.00     0.087 C 
ATOM      4  O   UNL     1       4.330   2.144   1.431  1.00  0.00    -0.300 OA
ENDBRANCH   1   2
BRANCH   1   5
ATOM      5  C   UNL     1       7.237   1.122  -0.214  1.00  0.00     0.043 C 
BRANCH   5   6
ATOM      6  C   UNL     1       7.606  -0.160  -0.840  1.00  0.00    -0.044 A 
ATOM      7  C   UNL     1       7.676  -0.304  -2.230  1.00  0.00     0.008 A 
ATOM      8  C   UNL     1       7.894  -1.248  -0.047  1.00  0.00     0.054 A 
ATOM      9  C   UNL     1       8.029  -1.531  -2.761  1.00  0.00     0.051 A 
ATOM     10  C   UNL     1       8.251  -2.487  -0.589  1.00  0.00     0.166 A 
ATOM     11  C   UNL     1       8.319  -2.630  -1.957  1.00  0.00     0.165 A 
ATOM     12  O   UNL     1       8.578  -3.701  -0.023  1.00  0.00    -0.454 OA
ATOM     13  O   UNL     1       8.691  -3.942  -2.205  1.00  0.00    -0.454 OA
ATOM     14  C   UNL     1       8.954  -4.631  -1.006  1.00  0.00     0.468 C 
ENDBRANCH   5   6
ENDBRANCH   1   5
TORSDOF 3
ENDMDL
MODEL 3
REMARK VINA RESULT:      -7.2      2.050      2.637
REMARK SMILES CC(=O)CCc1ccc2c(c1)OCO2
REMARK SMILES IDX 4 1 2 2 1 3 3 4 5 5 6 6 7 7 11 8 8 9 10 10 9 11 12 12 14 13
REMARK SMILES IDX 13 14
REMARK H PARENT
REMARK Flexibility Score: inf
ROOT
ATOM      1  C   UNL     1       5.381  -0.086   2.026  1.00  0.00     0.080 C 
ENDROOT
BRANCH   1   2
ATOM      2  C   UNL     1       4.540   1.117   1.777  1.00  0.00     0.130 C 
ATOM      3  C   UNL     1       4.892   2.113   0.730  1.00  0.00     0.087 C 
ATOM      4  O   UNL     1       3.530   1.322   2.430  1.00  0.00    -0.300 OA
ENDBRANCH   1   2
BRANCH   1   5
ATOM      5  C   UNL     1       6.823   0.159   1.630  1.00  0.00     0.043 C 
BRANCH   5   6
ATOM      6  C   UNL     1       7.259  -0.756   0.560  1.00  0.00    -0.044 A 
ATOM      7  C   UNL     1       7.130  -0.418  -0.792  1.00  0.00     0.008 A 
ATOM      8  C   UNL     1       7.810  -1.975   0.886  1.00  0.00     0.054 A 
ATOM      9  C   UNL     1       7.558  -1.316  -1.753  1.00  0.00     0.051 A 
ATOM     10  C   UNL     1       8.241  -2.879  -0.088  1.00  0.00     0.166 A 
ATOM     11  C   UNL     1       8.113  -2.548  -1.419  1.00  0.00     0.165 A 
ATOM     12  O   UNL     1       8.812  -4.133  -0.021  1.00  0.00    -0.454 OA
ATOM     13  O   UNL     1       8.614  -3.615  -2.148  1.00  0.00    -0.454 OA
ATOM     14  C   UNL     1       9.151  -4.602  -1.300  1.00  0.00     0.468 C 
ENDBRANCH   5   6
ENDBRANCH   1   5
TORSDOF 3
ENDMDL
MODEL 4
REMARK VINA RESULT:      -7.1      1.247      1.451
REMARK SMILES CC(=O)CCc1ccc2c(c1)OCO2
REMARK SMILES IDX 4 1 2 2 1 3 3 4 5 5 6 6 7 7 11 8 8 9 10 10 9 11 12 12 14 13
REMARK SMILES IDX 13 14
REMARK H PARENT
REMARK Flexibility Score: inf
ROOT
ATOM      1  C   UNL     1       6.369   1.234   0.921  1.00  0.00     0.080 C 
ENDROOT
BRANCH   1   2
ATOM      2  C   UNL     1       5.659   0.401   1.932  1.00  0.00     0.130 C 
ATOM      3  C   UNL     1       6.284  -0.814   2.520  1.00  0.00     0.087 C 
ATOM      4  O   UNL     1       4.536   0.694   2.308  1.00  0.00    -0.300 OA
ENDBRANCH   1   2
BRANCH   1   5
ATOM      5  C   UNL     1       5.865   0.948  -0.480  1.00  0.00     0.043 C 
BRANCH   5   6
ATOM      6  C   UNL     1       6.815   0.119  -1.244  1.00  0.00    -0.044 A 
ATOM      7  C   UNL     1       7.510   0.628  -2.346  1.00  0.00     0.008 A 
ATOM      8  C   UNL     1       7.033  -1.188  -0.871  1.00  0.00     0.054 A 
ATOM      9  C   UNL     1       8.389  -0.196  -3.024  1.00  0.00     0.051 A 
ATOM     10  C   UNL     1       7.924  -2.017  -1.559  1.00  0.00     0.166 A 
ATOM     11  C   UNL     1       8.607  -1.517  -2.645  1.00  0.00     0.165 A 
ATOM     12  O   UNL     1       8.309  -3.330  -1.389  1.00  0.00    -0.454 OA
ATOM     13  O   UNL     1       9.407  -2.543  -3.123  1.00  0.00    -0.454 OA
ATOM     14  C   UNL     1       9.316  -3.683  -2.301  1.00  0.00     0.468 C 
ENDBRANCH   5   6
ENDBRANCH   1   5
TORSDOF 3
ENDMDL
MODEL 5
REMARK VINA RESULT:      -6.8      1.186      5.172
REMARK SMILES CC(=O)CCc1ccc2c(c1)OCO2
REMARK SMILES IDX 4 1 2 2 1 3 3 4 5 5 6 6 7 7 11 8 8 9 10 10 9 11 12 12 14 13
REMARK SMILES IDX 13 14
REMARK H PARENT
REMARK Flexibility Score: inf
ROOT
ATOM      1  C   UNL     1       8.324   0.200  -2.665  1.00  0.00     0.080 C 
ENDROOT
BRANCH   1   2
ATOM      2  C   UNL     1       8.051  -1.261  -2.759  1.00  0.00     0.130 C 
ATOM      3  C   UNL     1       9.133  -2.242  -3.039  1.00  0.00     0.087 C 
ATOM      4  O   UNL     1       6.921  -1.698  -2.608  1.00  0.00    -0.300 OA
ENDBRANCH   1   2
BRANCH   1   5
ATOM      5  C   UNL     1       8.850   0.575  -1.293  1.00  0.00     0.043 C 
BRANCH   5   6
ATOM      6  C   UNL     1       7.817   0.426  -0.253  1.00  0.00    -0.044 A 
ATOM      7  C   UNL     1       7.924  -0.541   0.753  1.00  0.00     0.008 A 
ATOM      8  C   UNL     1       6.718   1.255  -0.260  1.00  0.00     0.054 A 
ATOM      9  C   UNL     1       6.923  -0.633   1.704  1.00  0.00     0.051 A 
ATOM     10  C   UNL     1       5.710   1.158   0.704  1.00  0.00     0.166 A 
ATOM     11  C   UNL     1       5.813   0.206   1.694  1.00  0.00     0.165 A 
ATOM     12  O   UNL     1       4.536   1.852   0.910  1.00  0.00    -0.454 OA
ATOM     13  O   UNL     1       4.690   0.337   2.496  1.00  0.00    -0.454 OA
ATOM     14  C   UNL     1       3.900   1.429   2.088  1.00  0.00     0.468 C 
ENDBRANCH   5   6
ENDBRANCH   1   5
TORSDOF 3
ENDMDL
