@<TRIPOS>MOLECULE
/home/cewinharhar/GITHUB/reincatalyze/data/processed/docking_pred/2023-May-31-1438_sub9_nm5_bs15_s42_ex16_mel10_mts1000_k50_ec05_g099_lra9e-4_lrc3e-3/d29de17412cd01c0ee6022e9d720ef028927a1a9_ligand_9.pdbqt
 14 15 0 0 0
SMALL
GASTEIGER

@<TRIPOS>ATOM
      1  C          6.3770    1.2140    0.8800 C.3     1  UNL1        0.0800
      2  C          5.6840    0.4060    1.9220 C.2     1  UNL1        0.1300
      3  C          6.3050   -0.8120    2.5070 C.3     1  UNL1        0.0870
      4  O          4.5780    0.7230    2.3280 O.2     1  UNL1       -0.3000
      5  C          5.8560    0.8890   -0.5060 C.3     1  UNL1        0.0430
      6  C          6.8140    0.0740   -1.2730 C.2     1  UNL1       -0.0440
      7  C          7.5100    0.5990   -2.3680 C.2     1  UNL1        0.0080
      8  C          7.0400   -1.2340   -0.9110 C.2     1  UNL1        0.0540
      9  C          8.3980   -0.2130   -3.0500 C.2     1  UNL1        0.0510
     10  C          7.9400   -2.0510   -1.6030 C.2     1  UNL1        0.1660
     11  C          8.6240   -1.5360   -2.6820 C.2     1  UNL1        0.1650
     12  O          8.3330   -3.3630   -1.4430 O.2     1  UNL1       -0.4540
     13  O          9.4320   -2.5530   -3.1660 O.2     1  UNL1       -0.4540
     14  C          9.3460   -3.7000   -2.3550 C.3     1  UNL1        0.4680
@<TRIPOS>BOND
     1    13    11    1
     2    13    14    1
     3     9    11    2
     4     9     7    1
     5    11    10    1
     6     7     6    2
     7    14    12    1
     8    10    12    1
     9    10     8    2
    10     6     8    1
    11     6     5    1
    12     5     1    1
    13     1     2    1
    14     2     4    2
    15     2     3    1
