@<TRIPOS>MOLECULE
/home/cewinharhar/GITHUB/reincatalyze/data/processed/docking_pred/2023-May-31-1438_sub9_nm5_bs15_s42_ex16_mel10_mts1000_k50_ec05_g099_lra9e-4_lrc3e-3/d32515ef85c53a65d829162c3cbbbf13c46f52f9_ligand_9.pdbqt
 14 15 0 0 0
SMALL
GASTEIGER

@<TRIPOS>ATOM
      1  C         11.9400   -1.2390    1.2100 C.3     1  UNL1        0.0800
      2  C         10.7900   -0.6380    0.4800 C.2     1  UNL1        0.1300
      3  C         10.9900    0.2860   -0.6690 C.3     1  UNL1        0.0870
      4  O          9.6410   -0.8870    0.8070 O.2     1  UNL1       -0.3000
      5  C         12.8380   -2.0230    0.2740 C.3     1  UNL1        0.0430
      6  C         12.0780   -3.0160   -0.5060 C.2     1  UNL1       -0.0440
      7  C         12.5550   -3.5110   -1.7260 C.2     1  UNL1        0.0080
      8  C         10.8710   -3.4780   -0.0330 C.2     1  UNL1        0.0540
      9  C         11.7990   -4.4430   -2.4140 C.2     1  UNL1        0.0510
     10  C         10.1110   -4.4200   -0.7320 C.2     1  UNL1        0.1660
     11  C         10.5790   -4.9060   -1.9320 C.2     1  UNL1        0.1650
     12  O          8.8990   -5.0260   -0.4760 O.2     1  UNL1       -0.4540
     13  O          9.6360   -5.8110   -2.3930 O.2     1  UNL1       -0.4540
     14  C          8.5990   -5.9850   -1.4580 C.3     1  UNL1        0.4680
@<TRIPOS>BOND
     1     9    11    2
     2     9     7    1
     3    13    11    1
     4    13    14    1
     5    11    10    1
     6     7     6    2
     7    14    12    1
     8    10    12    1
     9    10     8    2
    10     3     2    1
    11     6     8    1
    12     6     5    1
    13     5     1    1
    14     2     4    2
    15     2     1    1
