MODEL 1
REMARK VINA RESULT:      -4.1      0.000      0.000
REMARK SMILES CC(=O)CCc1ccc2c(c1)OCO2
REMARK SMILES IDX 4 1 2 2 1 3 3 4 5 5 6 6 7 7 11 8 8 9 10 10 9 11 12 12 14 13
REMARK SMILES IDX 13 14
REMARK H PARENT
REMARK Flexibility Score: inf
ROOT
ATOM      1  C   UNL     1      12.279  -3.747  -1.843  1.00  0.00     0.080 C 
ENDROOT
BRANCH   1   2
ATOM      2  C   UNL     1      10.977  -4.065  -2.495  1.00  0.00     0.130 C 
ATOM      3  C   UNL     1      10.329  -5.394  -2.337  1.00  0.00     0.087 C 
ATOM      4  O   UNL     1      10.403  -3.236  -3.183  1.00  0.00    -0.300 OA
ENDBRANCH   1   2
BRANCH   1   5
ATOM      5  C   UNL     1      12.178  -3.853  -0.334  1.00  0.00     0.043 C 
BRANCH   5   6
ATOM      6  C   UNL     1      11.143  -2.956   0.210  1.00  0.00    -0.044 A 
ATOM      7  C   UNL     1      11.373  -1.585   0.372  1.00  0.00     0.008 A 
ATOM      8  C   UNL     1       9.916  -3.467   0.566  1.00  0.00     0.054 A 
ATOM      9  C   UNL     1      10.363  -0.792   0.886  1.00  0.00     0.051 A 
ATOM     10  C   UNL     1       8.898  -2.661   1.085  1.00  0.00     0.166 A 
ATOM     11  C   UNL     1       9.124  -1.312   1.247  1.00  0.00     0.165 A 
ATOM     12  O   UNL     1       7.613  -2.926   1.508  1.00  0.00    -0.454 OA
ATOM     13  O   UNL     1       7.961  -0.771   1.771  1.00  0.00    -0.454 OA
ATOM     14  C   UNL     1       6.947  -1.743   1.867  1.00  0.00     0.468 C 
ENDBRANCH   5   6
ENDBRANCH   1   5
TORSDOF 3
ENDMDL
MODEL 2
REMARK VINA RESULT:      -3.9      1.951      4.283
REMARK SMILES CC(=O)CCc1ccc2c(c1)OCO2
REMARK SMILES IDX 4 1 2 2 1 3 3 4 5 5 6 6 7 7 11 8 8 9 10 10 9 11 12 12 14 13
REMARK SMILES IDX 13 14
REMARK H PARENT
REMARK Flexibility Score: inf
ROOT
ATOM      1  C   UNL     1      11.940  -1.239   1.210  1.00  0.00     0.080 C 
ENDROOT
BRANCH   1   2
ATOM      2  C   UNL     1      10.790  -0.638   0.480  1.00  0.00     0.130 C 
ATOM      3  C   UNL     1      10.990   0.286  -0.669  1.00  0.00     0.087 C 
ATOM      4  O   UNL     1       9.641  -0.887   0.807  1.00  0.00    -0.300 OA
ENDBRANCH   1   2
BRANCH   1   5
ATOM      5  C   UNL     1      12.838  -2.023   0.274  1.00  0.00     0.043 C 
BRANCH   5   6
ATOM      6  C   UNL     1      12.078  -3.016  -0.506  1.00  0.00    -0.044 A 
ATOM      7  C   UNL     1      12.555  -3.511  -1.726  1.00  0.00     0.008 A 
ATOM      8  C   UNL     1      10.871  -3.478  -0.033  1.00  0.00     0.054 A 
ATOM      9  C   UNL     1      11.799  -4.443  -2.414  1.00  0.00     0.051 A 
ATOM     10  C   UNL     1      10.111  -4.420  -0.732  1.00  0.00     0.166 A 
ATOM     11  C   UNL     1      10.579  -4.906  -1.932  1.00  0.00     0.165 A 
ATOM     12  O   UNL     1       8.899  -5.026  -0.476  1.00  0.00    -0.454 OA
ATOM     13  O   UNL     1       9.636  -5.811  -2.393  1.00  0.00    -0.454 OA
ATOM     14  C   UNL     1       8.599  -5.985  -1.458  1.00  0.00     0.468 C 
ENDBRANCH   5   6
ENDBRANCH   1   5
TORSDOF 3
ENDMDL
MODEL 3
REMARK VINA RESULT:      -3.9      2.092      5.705
REMARK SMILES CC(=O)CCc1ccc2c(c1)OCO2
REMARK SMILES IDX 4 1 2 2 1 3 3 4 5 5 6 6 7 7 11 8 8 9 10 10 9 11 12 12 14 13
REMARK SMILES IDX 13 14
REMARK H PARENT
REMARK Flexibility Score: inf
ROOT
ATOM      1  C   UNL     1       6.737  -0.960   1.992  1.00  0.00     0.080 C 
ENDROOT
BRANCH   1   2
ATOM      2  C   UNL     1       5.801   0.199   2.009  1.00  0.00     0.130 C 
ATOM      3  C   UNL     1       6.194   1.529   1.473  1.00  0.00     0.087 C 
ATOM      4  O   UNL     1       4.675   0.088   2.468  1.00  0.00    -0.300 OA
ENDBRANCH   1   2
BRANCH   1   5
ATOM      5  C   UNL     1       8.181  -0.500   1.989  1.00  0.00     0.043 C 
BRANCH   5   6
ATOM      6  C   UNL     1       9.063  -1.471   1.317  1.00  0.00    -0.044 A 
ATOM      7  C   UNL     1       8.706  -2.818   1.187  1.00  0.00     0.008 A 
ATOM      8  C   UNL     1      10.267  -1.053   0.797  1.00  0.00     0.054 A 
ATOM      9  C   UNL     1       9.573  -3.683   0.545  1.00  0.00     0.051 A 
ATOM     10  C   UNL     1      11.140  -1.932   0.148  1.00  0.00     0.166 A 
ATOM     11  C   UNL     1      10.790  -3.258   0.022  1.00  0.00     0.165 A 
ATOM     12  O   UNL     1      12.374  -1.765  -0.443  1.00  0.00    -0.454 OA
ATOM     13  O   UNL     1      11.826  -3.883  -0.653  1.00  0.00    -0.454 OA
ATOM     14  C   UNL     1      12.810  -2.956  -1.046  1.00  0.00     0.468 C 
ENDBRANCH   5   6
ENDBRANCH   1   5
TORSDOF 3
ENDMDL
MODEL 4
REMARK VINA RESULT:      -3.8      1.709      5.244
REMARK SMILES CC(=O)CCc1ccc2c(c1)OCO2
REMARK SMILES IDX 4 1 2 2 1 3 3 4 5 5 6 6 7 7 11 8 8 9 10 10 9 11 12 12 14 13
REMARK SMILES IDX 13 14
REMARK H PARENT
REMARK Flexibility Score: inf
ROOT
ATOM      1  C   UNL     1       7.565  -0.737   1.995  1.00  0.00     0.080 C 
ENDROOT
BRANCH   1   2
ATOM      2  C   UNL     1       6.118  -0.605   1.667  1.00  0.00     0.130 C 
ATOM      3  C   UNL     1       5.365   0.648   1.944  1.00  0.00     0.087 C 
ATOM      4  O   UNL     1       5.504  -1.528   1.157  1.00  0.00    -0.300 OA
ENDBRANCH   1   2
BRANCH   1   5
ATOM      5  C   UNL     1       8.057  -2.150   1.755  1.00  0.00     0.043 C 
BRANCH   5   6
ATOM      6  C   UNL     1       9.337  -2.167   1.024  1.00  0.00    -0.044 A 
ATOM      7  C   UNL     1      10.149  -1.030   0.944  1.00  0.00     0.008 A 
ATOM      8  C   UNL     1       9.754  -3.323   0.404  1.00  0.00     0.054 A 
ATOM      9  C   UNL     1      11.340  -1.105   0.244  1.00  0.00     0.051 A 
ATOM     10  C   UNL     1      10.959  -3.393  -0.301  1.00  0.00     0.166 A 
ATOM     11  C   UNL     1      11.758  -2.275  -0.382  1.00  0.00     0.165 A 
ATOM     12  O   UNL     1      11.584  -4.408  -0.993  1.00  0.00    -0.454 OA
ATOM     13  O   UNL     1      12.870  -2.631  -1.128  1.00  0.00    -0.454 OA
ATOM     14  C   UNL     1      12.844  -3.999  -1.459  1.00  0.00     0.468 C 
ENDBRANCH   5   6
ENDBRANCH   1   5
TORSDOF 3
ENDMDL
MODEL 5
REMARK VINA RESULT:      -3.8      2.662      3.332
REMARK SMILES CC(=O)CCc1ccc2c(c1)OCO2
REMARK SMILES IDX 4 1 2 2 1 3 3 4 5 5 6 6 7 7 11 8 8 9 10 10 9 11 12 12 14 13
REMARK SMILES IDX 13 14
REMARK H PARENT
REMARK Flexibility Score: inf
ROOT
ATOM      1  C   UNL     1       9.969  -5.335  -2.523  1.00  0.00     0.080 C 
ENDROOT
BRANCH   1   2
ATOM      2  C   UNL     1       9.100  -5.791  -1.403  1.00  0.00     0.130 C 
ATOM      3  C   UNL     1       8.764  -7.227  -1.211  1.00  0.00     0.087 C 
ATOM      4  O   UNL     1       8.637  -4.993  -0.604  1.00  0.00    -0.300 OA
ENDBRANCH   1   2
BRANCH   1   5
ATOM      5  C   UNL     1      11.407  -5.168  -2.073  1.00  0.00     0.043 C 
BRANCH   5   6
ATOM      6  C   UNL     1      11.614  -3.890  -1.369  1.00  0.00    -0.044 A 
ATOM      7  C   UNL     1      12.548  -3.766  -0.334  1.00  0.00     0.008 A 
ATOM      8  C   UNL     1      10.879  -2.784  -1.731  1.00  0.00     0.054 A 
ATOM      9  C   UNL     1      12.700  -2.542   0.290  1.00  0.00     0.051 A 
ATOM     10  C   UNL     1      11.037  -1.548  -1.098  1.00  0.00     0.166 A 
ATOM     11  C   UNL     1      11.955  -1.426  -0.079  1.00  0.00     0.165 A 
ATOM     12  O   UNL     1      10.436  -0.320  -1.272  1.00  0.00    -0.454 OA
ATOM     13  O   UNL     1      11.898  -0.111   0.356  1.00  0.00    -0.454 OA
ATOM     14  C   UNL     1      11.013   0.648  -0.433  1.00  0.00     0.468 C 
ENDBRANCH   5   6
ENDBRANCH   1   5
TORSDOF 3
ENDMDL
