@<TRIPOS>MOLECULE
/home/cewinharhar/GITHUB/reincatalyze/data/processed/docking_pred/2023-May-31-1438_sub9_nm5_bs15_s42_ex16_mel10_mts1000_k50_ec05_g099_lra9e-4_lrc3e-3/d32515ef85c53a65d829162c3cbbbf13c46f52f9_ligand_9.pdbqt
 14 15 0 0 0
SMALL
GASTEIGER

@<TRIPOS>ATOM
      1  C          7.5650   -0.7370    1.9950 C.3     1  UNL1        0.0800
      2  C          6.1180   -0.6050    1.6670 C.2     1  UNL1        0.1300
      3  C          5.3650    0.6480    1.9440 C.3     1  UNL1        0.0870
      4  O          5.5040   -1.5280    1.1570 O.2     1  UNL1       -0.3000
      5  C          8.0570   -2.1500    1.7550 C.3     1  UNL1        0.0430
      6  C          9.3370   -2.1670    1.0240 C.2     1  UNL1       -0.0440
      7  C         10.1490   -1.0300    0.9440 C.2     1  UNL1        0.0080
      8  C          9.7540   -3.3230    0.4040 C.2     1  UNL1        0.0540
      9  C         11.3400   -1.1050    0.2440 C.2     1  UNL1        0.0510
     10  C         10.9590   -3.3930   -0.3010 C.2     1  UNL1        0.1660
     11  C         11.7580   -2.2750   -0.3820 C.2     1  UNL1        0.1650
     12  O         11.5840   -4.4080   -0.9930 O.2     1  UNL1       -0.4540
     13  O         12.8700   -2.6310   -1.1280 O.2     1  UNL1       -0.4540
     14  C         12.8440   -3.9990   -1.4590 C.3     1  UNL1        0.4680
@<TRIPOS>BOND
     1    14    13    1
     2    14    12    1
     3    13    11    1
     4    12    10    1
     5    11    10    2
     6    11     9    1
     7    10     8    1
     8     9     7    2
     9     8     6    2
    10     7     6    1
    11     6     5    1
    12     4     2    2
    13     2     3    1
    14     2     1    1
    15     5     1    1
