@<TRIPOS>MOLECULE
/home/cewinharhar/GITHUB/reincatalyze/data/processed/docking_pred/2023-May-31-1438_sub9_nm5_bs15_s42_ex16_mel10_mts1000_k50_ec05_g099_lra9e-4_lrc3e-3/d32515ef85c53a65d829162c3cbbbf13c46f52f9_ligand_9.pdbqt
 14 15 0 0 0
SMALL
GASTEIGER

@<TRIPOS>ATOM
      1  C          6.7370   -0.9600    1.9920 C.3     1  UNL1        0.0800
      2  C          5.8010    0.1990    2.0090 C.2     1  UNL1        0.1300
      3  C          6.1940    1.5290    1.4730 C.3     1  UNL1        0.0870
      4  O          4.6750    0.0880    2.4680 O.2     1  UNL1       -0.3000
      5  C          8.1810   -0.5000    1.9890 C.3     1  UNL1        0.0430
      6  C          9.0630   -1.4710    1.3170 C.2     1  UNL1       -0.0440
      7  C          8.7060   -2.8180    1.1870 C.2     1  UNL1        0.0080
      8  C         10.2670   -1.0530    0.7970 C.2     1  UNL1        0.0540
      9  C          9.5730   -3.6830    0.5450 C.2     1  UNL1        0.0510
     10  C         11.1400   -1.9320    0.1480 C.2     1  UNL1        0.1660
     11  C         10.7900   -3.2580    0.0220 C.2     1  UNL1        0.1650
     12  O         12.3740   -1.7650   -0.4430 O.2     1  UNL1       -0.4540
     13  O         11.8260   -3.8830   -0.6530 O.2     1  UNL1       -0.4540
     14  C         12.8100   -2.9560   -1.0460 C.3     1  UNL1        0.4680
@<TRIPOS>BOND
     1    14    13    1
     2    14    12    1
     3    13    11    1
     4    12    10    1
     5    11    10    2
     6    11     9    1
     7    10     8    1
     8     9     7    2
     9     8     6    2
    10     7     6    1
    11     6     5    1
    12     3     2    1
    13     5     1    1
    14     1     2    1
    15     2     4    2
