@<TRIPOS>MOLECULE
/home/cewinharhar/GITHUB/reincatalyze/data/processed/docking_pred/2023-May-31-1438_sub9_nm5_bs15_s42_ex16_mel10_mts1000_k50_ec05_g099_lra9e-4_lrc3e-3/d32515ef85c53a65d829162c3cbbbf13c46f52f9_ligand_9.pdbqt
 14 15 0 0 0
SMALL
GASTEIGER

@<TRIPOS>ATOM
      1  C         12.2790   -3.7470   -1.8430 C.3     1  UNL1        0.0800
      2  C         10.9770   -4.0650   -2.4950 C.2     1  UNL1        0.1300
      3  C         10.3290   -5.3940   -2.3370 C.3     1  UNL1        0.0870
      4  O         10.4030   -3.2360   -3.1830 O.2     1  UNL1       -0.3000
      5  C         12.1780   -3.8530   -0.3340 C.3     1  UNL1        0.0430
      6  C         11.1430   -2.9560    0.2100 C.2     1  UNL1       -0.0440
      7  C         11.3730   -1.5850    0.3720 C.2     1  UNL1        0.0080
      8  C          9.9160   -3.4670    0.5660 C.2     1  UNL1        0.0540
      9  C         10.3630   -0.7920    0.8860 C.2     1  UNL1        0.0510
     10  C          8.8980   -2.6610    1.0850 C.2     1  UNL1        0.1660
     11  C          9.1240   -1.3120    1.2470 C.2     1  UNL1        0.1650
     12  O          7.6130   -2.9260    1.5080 O.2     1  UNL1       -0.4540
     13  O          7.9610   -0.7710    1.7710 O.2     1  UNL1       -0.4540
     14  C          6.9470   -1.7430    1.8670 C.3     1  UNL1        0.4680
@<TRIPOS>BOND
     1     4     2    2
     2     2     3    1
     3     2     1    1
     4     1     5    1
     5     5     6    1
     6     6     7    2
     7     6     8    1
     8     7     9    1
     9     8    10    2
    10     9    11    2
    11    10    11    1
    12    10    12    1
    13    11    13    1
    14    12    14    1
    15    13    14    1
