@<TRIPOS>MOLECULE
/home/cewinharhar/GITHUB/reincatalyze/data/processed/docking_pred/2023-May-31-1438_sub9_nm5_bs15_s42_ex16_mel10_mts1000_k50_ec05_g099_lra9e-4_lrc3e-3/d3a7bace4d7284fd134c29c8ba069397c7215f06_ligand_9.pdbqt
 14 15 0 0 0
SMALL
GASTEIGER

@<TRIPOS>ATOM
      1  C          5.4110   -0.0460    2.0060 C.3     1  UNL1        0.0800
      2  C          4.5690    1.1580    1.7610 C.2     1  UNL1        0.1300
      3  C          4.9090    2.1470    0.7040 C.3     1  UNL1        0.0870
      4  O          3.5680    1.3680    2.4270 O.2     1  UNL1       -0.3000
      5  C          6.8500    0.1970    1.5980 C.3     1  UNL1        0.0430
      6  C          7.2810   -0.7270    0.5340 C.2     1  UNL1       -0.0440
      7  C          7.1610   -0.3940   -0.8200 C.2     1  UNL1        0.0080
      8  C          7.8170   -1.9500    0.8680 C.2     1  UNL1        0.0540
      9  C          7.5820   -1.3010   -1.7750 C.2     1  UNL1        0.0510
     10  C          8.2420   -2.8640   -0.1000 C.2     1  UNL1        0.1660
     11  C          8.1240   -2.5370   -1.4330 C.2     1  UNL1        0.1650
     12  O          8.7990   -4.1230   -0.0250 O.2     1  UNL1       -0.4540
     13  O          8.6160   -3.6120   -2.1550 O.2     1  UNL1       -0.4540
     14  C          9.1380   -4.6020   -1.3010 C.3     1  UNL1        0.4680
@<TRIPOS>BOND
     1    13    11    1
     2    13    14    1
     3     9    11    2
     4     9     7    1
     5    11    10    1
     6    14    12    1
     7     7     6    2
     8    10    12    1
     9    10     8    2
    10     6     8    1
    11     6     5    1
    12     3     2    1
    13     5     1    1
    14     2     1    1
    15     2     4    2
