MODEL 1
REMARK VINA RESULT:      -7.7      0.000      0.000
REMARK SMILES CC(=O)CCc1ccc2c(c1)OCO2
REMARK SMILES IDX 4 1 2 2 1 3 3 4 5 5 6 6 7 7 11 8 8 9 10 10 9 11 12 12 14 13
REMARK SMILES IDX 13 14
REMARK H PARENT
REMARK Flexibility Score: inf
ROOT
ATOM      1  C   UNL     1       5.509   1.926   1.249  1.00  0.00     0.080 C 
ENDROOT
BRANCH   1   2
ATOM      2  C   UNL     1       5.026   0.727   1.990  1.00  0.00     0.130 C 
ATOM      3  C   UNL     1       5.856  -0.500   2.116  1.00  0.00     0.087 C 
ATOM      4  O   UNL     1       3.925   0.718   2.518  1.00  0.00    -0.300 OA
ENDBRANCH   1   2
BRANCH   1   5
ATOM      5  C   UNL     1       5.390   1.731  -0.249  1.00  0.00     0.043 C 
BRANCH   5   6
ATOM      6  C   UNL     1       6.562   1.030  -0.804  1.00  0.00    -0.044 A 
ATOM      7  C   UNL     1       7.867   1.460  -0.540  1.00  0.00     0.008 A 
ATOM      8  C   UNL     1       6.379  -0.078  -1.600  1.00  0.00     0.054 A 
ATOM      9  C   UNL     1       8.928   0.762  -1.087  1.00  0.00     0.051 A 
ATOM     10  C   UNL     1       7.455  -0.781  -2.151  1.00  0.00     0.166 A 
ATOM     11  C   UNL     1       8.740  -0.358  -1.893  1.00  0.00     0.165 A 
ATOM     12  O   UNL     1       7.534  -1.894  -2.962  1.00  0.00    -0.454 OA
ATOM     13  O   UNL     1       9.590  -1.229  -2.556  1.00  0.00    -0.454 OA
ATOM     14  C   UNL     1       8.871  -2.271  -3.171  1.00  0.00     0.468 C 
ENDBRANCH   5   6
ENDBRANCH   1   5
TORSDOF 3
ENDMDL
MODEL 2
REMARK VINA RESULT:      -7.4      1.958      2.469
REMARK SMILES CC(=O)CCc1ccc2c(c1)OCO2
REMARK SMILES IDX 4 1 2 2 1 3 3 4 5 5 6 6 7 7 11 8 8 9 10 10 9 11 12 12 14 13
REMARK SMILES IDX 13 14
REMARK H PARENT
REMARK Flexibility Score: inf
ROOT
ATOM      1  C   UNL     1       5.767   1.195  -0.352  1.00  0.00     0.080 C 
ENDROOT
BRANCH   1   2
ATOM      2  C   UNL     1       5.238   1.191   1.041  1.00  0.00     0.130 C 
ATOM      3  C   UNL     1       5.436   0.029   1.948  1.00  0.00     0.087 C 
ATOM      4  O   UNL     1       4.623   2.149   1.480  1.00  0.00    -0.300 OA
ENDBRANCH   1   2
BRANCH   1   5
ATOM      5  C   UNL     1       7.270   1.002  -0.370  1.00  0.00     0.043 C 
BRANCH   5   6
ATOM      6  C   UNL     1       7.646  -0.301  -0.949  1.00  0.00    -0.044 A 
ATOM      7  C   UNL     1       7.722  -0.493  -2.334  1.00  0.00     0.008 A 
ATOM      8  C   UNL     1       7.935  -1.359  -0.118  1.00  0.00     0.054 A 
ATOM      9  C   UNL     1       8.081  -1.737  -2.819  1.00  0.00     0.051 A 
ATOM     10  C   UNL     1       8.298  -2.615  -0.614  1.00  0.00     0.166 A 
ATOM     11  C   UNL     1       8.371  -2.805  -1.976  1.00  0.00     0.165 A 
ATOM     12  O   UNL     1       8.626  -3.807  -0.005  1.00  0.00    -0.454 OA
ATOM     13  O   UNL     1       8.749  -4.124  -2.177  1.00  0.00    -0.454 OA
ATOM     14  C   UNL     1       9.009  -4.770  -0.953  1.00  0.00     0.468 C 
ENDBRANCH   5   6
ENDBRANCH   1   5
TORSDOF 3
ENDMDL
MODEL 3
REMARK VINA RESULT:      -7.2      2.061      2.624
REMARK SMILES CC(=O)CCc1ccc2c(c1)OCO2
REMARK SMILES IDX 4 1 2 2 1 3 3 4 5 5 6 6 7 7 11 8 8 9 10 10 9 11 12 12 14 13
REMARK SMILES IDX 13 14
REMARK H PARENT
REMARK Flexibility Score: inf
ROOT
ATOM      1  C   UNL     1       5.411  -0.046   2.006  1.00  0.00     0.080 C 
ENDROOT
BRANCH   1   2
ATOM      2  C   UNL     1       4.569   1.158   1.761  1.00  0.00     0.130 C 
ATOM      3  C   UNL     1       4.909   2.147   0.704  1.00  0.00     0.087 C 
ATOM      4  O   UNL     1       3.568   1.368   2.427  1.00  0.00    -0.300 OA
ENDBRANCH   1   2
BRANCH   1   5
ATOM      5  C   UNL     1       6.850   0.197   1.598  1.00  0.00     0.043 C 
BRANCH   5   6
ATOM      6  C   UNL     1       7.281  -0.727   0.534  1.00  0.00    -0.044 A 
ATOM      7  C   UNL     1       7.161  -0.394  -0.820  1.00  0.00     0.008 A 
ATOM      8  C   UNL     1       7.817  -1.950   0.868  1.00  0.00     0.054 A 
ATOM      9  C   UNL     1       7.582  -1.301  -1.775  1.00  0.00     0.051 A 
ATOM     10  C   UNL     1       8.242  -2.864  -0.100  1.00  0.00     0.166 A 
ATOM     11  C   UNL     1       8.124  -2.537  -1.433  1.00  0.00     0.165 A 
ATOM     12  O   UNL     1       8.799  -4.123  -0.025  1.00  0.00    -0.454 OA
ATOM     13  O   UNL     1       8.616  -3.612  -2.155  1.00  0.00    -0.454 OA
ATOM     14  C   UNL     1       9.138  -4.602  -1.301  1.00  0.00     0.468 C 
ENDBRANCH   5   6
ENDBRANCH   1   5
TORSDOF 3
ENDMDL
MODEL 4
REMARK VINA RESULT:      -7.1      1.269      1.498
REMARK SMILES CC(=O)CCc1ccc2c(c1)OCO2
REMARK SMILES IDX 4 1 2 2 1 3 3 4 5 5 6 6 7 7 11 8 8 9 10 10 9 11 12 12 14 13
REMARK SMILES IDX 13 14
REMARK H PARENT
REMARK Flexibility Score: inf
ROOT
ATOM      1  C   UNL     1       6.364   1.214   0.854  1.00  0.00     0.080 C 
ENDROOT
BRANCH   1   2
ATOM      2  C   UNL     1       5.678   0.424   1.914  1.00  0.00     0.130 C 
ATOM      3  C   UNL     1       6.293  -0.799   2.498  1.00  0.00     0.087 C 
ATOM      4  O   UNL     1       4.583   0.759   2.336  1.00  0.00    -0.300 OA
ENDBRANCH   1   2
BRANCH   1   5
ATOM      5  C   UNL     1       5.844   0.855  -0.524  1.00  0.00     0.043 C 
BRANCH   5   6
ATOM      6  C   UNL     1       6.815   0.044  -1.280  1.00  0.00    -0.044 A 
ATOM      7  C   UNL     1       7.528   0.573  -2.362  1.00  0.00     0.008 A 
ATOM      8  C   UNL     1       7.037  -1.266  -0.920  1.00  0.00     0.054 A 
ATOM      9  C   UNL     1       8.426  -0.236  -3.034  1.00  0.00     0.051 A 
ATOM     10  C   UNL     1       7.947  -2.079  -1.601  1.00  0.00     0.166 A 
ATOM     11  C   UNL     1       8.648  -1.560  -2.667  1.00  0.00     0.165 A 
ATOM     12  O   UNL     1       8.339  -3.392  -1.440  1.00  0.00    -0.454 OA
ATOM     13  O   UNL     1       9.464  -2.574  -3.143  1.00  0.00    -0.454 OA
ATOM     14  C   UNL     1       9.367  -3.725  -2.338  1.00  0.00     0.468 C 
ENDBRANCH   5   6
ENDBRANCH   1   5
TORSDOF 3
ENDMDL
MODEL 5
REMARK VINA RESULT:      -7.1      1.956      2.517
REMARK SMILES CC(=O)CCc1ccc2c(c1)OCO2
REMARK SMILES IDX 4 1 2 2 1 3 3 4 5 5 6 6 7 7 11 8 8 9 10 10 9 11 12 12 14 13
REMARK SMILES IDX 13 14
REMARK H PARENT
REMARK Flexibility Score: inf
ROOT
ATOM      1  C   UNL     1       6.850   0.844   1.315  1.00  0.00     0.080 C 
ENDROOT
BRANCH   1   2
ATOM      2  C   UNL     1       5.400   1.158   1.455  1.00  0.00     0.130 C 
ATOM      3  C   UNL     1       4.728   2.150   0.574  1.00  0.00     0.087 C 
ATOM      4  O   UNL     1       4.719   0.606   2.303  1.00  0.00    -0.300 OA
ENDBRANCH   1   2
BRANCH   1   5
ATOM      5  C   UNL     1       7.321   1.044  -0.112  1.00  0.00     0.043 C 
BRANCH   5   6
ATOM      6  C   UNL     1       7.643  -0.237  -0.766  1.00  0.00    -0.044 A 
ATOM      7  C   UNL     1       7.648  -0.368  -2.159  1.00  0.00     0.008 A 
ATOM      8  C   UNL     1       7.950  -1.336   0.003  1.00  0.00     0.054 A 
ATOM      9  C   UNL     1       7.958  -1.594  -2.717  1.00  0.00     0.051 A 
ATOM     10  C   UNL     1       8.264  -2.575  -0.566  1.00  0.00     0.166 A 
ATOM     11  C   UNL     1       8.268  -2.705  -1.937  1.00  0.00     0.165 A 
ATOM     12  O   UNL     1       8.598  -3.799  -0.027  1.00  0.00    -0.454 OA
ATOM     13  O   UNL     1       8.609  -4.019  -2.214  1.00  0.00    -0.454 OA
ATOM     14  C   UNL     1       8.915  -4.724  -1.035  1.00  0.00     0.468 C 
ENDBRANCH   5   6
ENDBRANCH   1   5
TORSDOF 3
ENDMDL
