@<TRIPOS>MOLECULE
/home/cewinharhar/GITHUB/reincatalyze/data/processed/docking_pred/2023-May-31-1438_sub9_nm5_bs15_s42_ex16_mel10_mts1000_k50_ec05_g099_lra9e-4_lrc3e-3/d3a7bace4d7284fd134c29c8ba069397c7215f06_ligand_9.pdbqt
 14 15 0 0 0
SMALL
GASTEIGER

@<TRIPOS>ATOM
      1  C          5.7670    1.1950   -0.3520 C.3     1  UNL1        0.0800
      2  C          5.2380    1.1910    1.0410 C.2     1  UNL1        0.1300
      3  C          5.4360    0.0290    1.9480 C.3     1  UNL1        0.0870
      4  O          4.6230    2.1490    1.4800 O.2     1  UNL1       -0.3000
      5  C          7.2700    1.0020   -0.3700 C.3     1  UNL1        0.0430
      6  C          7.6460   -0.3010   -0.9490 C.2     1  UNL1       -0.0440
      7  C          7.7220   -0.4930   -2.3340 C.2     1  UNL1        0.0080
      8  C          7.9350   -1.3590   -0.1180 C.2     1  UNL1        0.0540
      9  C          8.0810   -1.7370   -2.8190 C.2     1  UNL1        0.0510
     10  C          8.2980   -2.6150   -0.6140 C.2     1  UNL1        0.1660
     11  C          8.3710   -2.8050   -1.9760 C.2     1  UNL1        0.1650
     12  O          8.6260   -3.8070   -0.0050 O.2     1  UNL1       -0.4540
     13  O          8.7490   -4.1240   -2.1770 O.2     1  UNL1       -0.4540
     14  C          9.0090   -4.7700   -0.9530 C.3     1  UNL1        0.4680
@<TRIPOS>BOND
     1     9     7    1
     2     9    11    2
     3     7     6    2
     4    13    11    1
     5    13    14    1
     6    11    10    1
     7    14    12    1
     8     6     5    1
     9     6     8    1
    10    10     8    2
    11    10    12    1
    12     5     1    1
    13     1     2    1
    14     2     4    2
    15     2     3    1
