@<TRIPOS>MOLECULE
/home/cewinharhar/GITHUB/reincatalyze/data/processed/docking_pred/2023-May-31-1438_sub9_nm5_bs15_s42_ex16_mel10_mts1000_k50_ec05_g099_lra9e-4_lrc3e-3/d4292dbdc665c4d20b6271b363b9823f318ec372_ligand_9.pdbqt
 14 15 0 0 0
SMALL
GASTEIGER

@<TRIPOS>ATOM
      1  C          6.7280    0.5570    0.8450 C.3     1  UNL1        0.0800
      2  C          5.4100    1.0870    1.2930 C.2     1  UNL1        0.1300
      3  C          4.6970    2.1500    0.5350 C.3     1  UNL1        0.0870
      4  O          4.8730    0.6610    2.3030 O.2     1  UNL1       -0.3000
      5  C          6.8460    0.5820   -0.6660 C.3     1  UNL1        0.0430
      6  C          7.4770   -0.6450   -1.1850 C.2     1  UNL1       -0.0440
      7  C          7.8590   -0.7620   -2.5260 C.2     1  UNL1        0.0080
      8  C          7.7020   -1.7060   -0.3380 C.2     1  UNL1        0.0540
      9  C          8.4470   -1.9370   -2.9560 C.2     1  UNL1        0.0510
     10  C          8.2980   -2.8920   -0.7780 C.2     1  UNL1        0.1660
     11  C          8.6730   -3.0090   -2.0980 C.2     1  UNL1        0.1650
     12  O          8.6240   -4.0720   -0.1430 O.2     1  UNL1       -0.4540
     13  O          9.2280   -4.2700   -2.2470 O.2     1  UNL1       -0.4540
     14  C          9.2990   -4.9430   -1.0130 C.3     1  UNL1        0.4680
@<TRIPOS>BOND
     1     9     7    1
     2     9    11    2
     3     7     6    2
     4    13    11    1
     5    13    14    1
     6    11    10    1
     7     6     5    1
     8     6     8    1
     9    14    12    1
    10    10     8    2
    11    10    12    1
    12     5     1    1
    13     3     2    1
    14     1     2    1
    15     2     4    2
