MODEL 1
REMARK VINA RESULT:      -7.7      0.000      0.000
REMARK SMILES CC(=O)CCc1ccc2c(c1)OCO2
REMARK SMILES IDX 4 1 2 2 1 3 3 4 5 5 6 6 7 7 11 8 8 9 10 10 9 11 12 12 14 13
REMARK SMILES IDX 13 14
REMARK H PARENT
REMARK Flexibility Score: inf
ROOT
ATOM      1  C   UNL     1       5.535   1.914   1.280  1.00  0.00     0.080 C 
ENDROOT
BRANCH   1   2
ATOM      2  C   UNL     1       5.124   0.689   2.022  1.00  0.00     0.130 C 
ATOM      3  C   UNL     1       6.041  -0.470   2.185  1.00  0.00     0.087 C 
ATOM      4  O   UNL     1       4.013   0.602   2.519  1.00  0.00    -0.300 OA
ENDBRANCH   1   2
BRANCH   1   5
ATOM      5  C   UNL     1       5.403   1.721  -0.217  1.00  0.00     0.043 C 
BRANCH   5   6
ATOM      6  C   UNL     1       6.571   1.023  -0.784  1.00  0.00    -0.044 A 
ATOM      7  C   UNL     1       7.878   1.453  -0.526  1.00  0.00     0.008 A 
ATOM      8  C   UNL     1       6.384  -0.081  -1.584  1.00  0.00     0.054 A 
ATOM      9  C   UNL     1       8.935   0.757  -1.084  1.00  0.00     0.051 A 
ATOM     10  C   UNL     1       7.456  -0.781  -2.146  1.00  0.00     0.166 A 
ATOM     11  C   UNL     1       8.742  -0.358  -1.894  1.00  0.00     0.165 A 
ATOM     12  O   UNL     1       7.530  -1.889  -2.963  1.00  0.00    -0.454 OA
ATOM     13  O   UNL     1       9.588  -1.225  -2.567  1.00  0.00    -0.454 OA
ATOM     14  C   UNL     1       8.866  -2.264  -3.183  1.00  0.00     0.468 C 
ENDBRANCH   5   6
ENDBRANCH   1   5
TORSDOF 3
ENDMDL
MODEL 2
REMARK VINA RESULT:      -7.4      1.800      2.218
REMARK SMILES CC(=O)CCc1ccc2c(c1)OCO2
REMARK SMILES IDX 4 1 2 2 1 3 3 4 5 5 6 6 7 7 11 8 8 9 10 10 9 11 12 12 14 13
REMARK SMILES IDX 13 14
REMARK H PARENT
REMARK Flexibility Score: inf
ROOT
ATOM      1  C   UNL     1       5.611   1.496  -0.154  1.00  0.00     0.080 C 
ENDROOT
BRANCH   1   2
ATOM      2  C   UNL     1       4.971   1.253   1.169  1.00  0.00     0.130 C 
ATOM      3  C   UNL     1       5.379   0.115   2.036  1.00  0.00     0.087 C 
ATOM      4  O   UNL     1       4.087   1.986   1.582  1.00  0.00    -0.300 OA
ENDBRANCH   1   2
BRANCH   1   5
ATOM      5  C   UNL     1       7.105   1.247  -0.096  1.00  0.00     0.043 C 
BRANCH   5   6
ATOM      6  C   UNL     1       7.477  -0.005  -0.779  1.00  0.00    -0.044 A 
ATOM      7  C   UNL     1       7.466  -0.110  -2.175  1.00  0.00     0.008 A 
ATOM      8  C   UNL     1       7.847  -1.103  -0.036  1.00  0.00     0.054 A 
ATOM      9  C   UNL     1       7.825  -1.311  -2.760  1.00  0.00     0.051 A 
ATOM     10  C   UNL     1       8.210  -2.315  -0.633  1.00  0.00     0.166 A 
ATOM     11  C   UNL     1       8.199  -2.419  -2.006  1.00  0.00     0.165 A 
ATOM     12  O   UNL     1       8.610  -3.531  -0.122  1.00  0.00    -0.454 OA
ATOM     13  O   UNL     1       8.597  -3.711  -2.313  1.00  0.00    -0.454 OA
ATOM     14  C   UNL     1       8.954  -4.422  -1.152  1.00  0.00     0.468 C 
ENDBRANCH   5   6
ENDBRANCH   1   5
TORSDOF 3
ENDMDL
MODEL 3
REMARK VINA RESULT:      -7.2      2.084      2.629
REMARK SMILES CC(=O)CCc1ccc2c(c1)OCO2
REMARK SMILES IDX 4 1 2 2 1 3 3 4 5 5 6 6 7 7 11 8 8 9 10 10 9 11 12 12 14 13
REMARK SMILES IDX 13 14
REMARK H PARENT
REMARK Flexibility Score: inf
ROOT
ATOM      1  C   UNL     1       5.506   0.032   1.953  1.00  0.00     0.080 C 
ENDROOT
BRANCH   1   2
ATOM      2  C   UNL     1       4.645   1.206   1.636  1.00  0.00     0.130 C 
ATOM      3  C   UNL     1       4.975   2.138   0.525  1.00  0.00     0.087 C 
ATOM      4  O   UNL     1       3.638   1.438   2.285  1.00  0.00    -0.300 OA
ENDBRANCH   1   2
BRANCH   1   5
ATOM      5  C   UNL     1       6.937   0.264   1.512  1.00  0.00     0.043 C 
BRANCH   5   6
ATOM      6  C   UNL     1       7.349  -0.692   0.469  1.00  0.00    -0.044 A 
ATOM      7  C   UNL     1       7.242  -0.382  -0.892  1.00  0.00     0.008 A 
ATOM      8  C   UNL     1       7.855  -1.920   0.830  1.00  0.00     0.054 A 
ATOM      9  C   UNL     1       7.646  -1.319  -1.826  1.00  0.00     0.051 A 
ATOM     10  C   UNL     1       8.262  -2.862  -0.119  1.00  0.00     0.166 A 
ATOM     11  C   UNL     1       8.156  -2.559  -1.458  1.00  0.00     0.165 A 
ATOM     12  O   UNL     1       8.789  -4.132  -0.015  1.00  0.00    -0.454 OA
ATOM     13  O   UNL     1       8.626  -3.661  -2.156  1.00  0.00    -0.454 OA
ATOM     14  C   UNL     1       9.121  -4.645  -1.280  1.00  0.00     0.468 C 
ENDBRANCH   5   6
ENDBRANCH   1   5
TORSDOF 3
ENDMDL
MODEL 4
REMARK VINA RESULT:      -7.1      1.973      2.556
REMARK SMILES CC(=O)CCc1ccc2c(c1)OCO2
REMARK SMILES IDX 4 1 2 2 1 3 3 4 5 5 6 6 7 7 11 8 8 9 10 10 9 11 12 12 14 13
REMARK SMILES IDX 13 14
REMARK H PARENT
REMARK Flexibility Score: inf
ROOT
ATOM      1  C   UNL     1       6.844   0.800   1.216  1.00  0.00     0.080 C 
ENDROOT
BRANCH   1   2
ATOM      2  C   UNL     1       5.424   1.224   1.368  1.00  0.00     0.130 C 
ATOM      3  C   UNL     1       4.777   2.150   0.401  1.00  0.00     0.087 C 
ATOM      4  O   UNL     1       4.746   0.820   2.300  1.00  0.00    -0.300 OA
ENDBRANCH   1   2
BRANCH   1   5
ATOM      5  C   UNL     1       7.325   0.991  -0.209  1.00  0.00     0.043 C 
BRANCH   5   6
ATOM      6  C   UNL     1       7.709  -0.288  -0.832  1.00  0.00    -0.044 A 
ATOM      7  C   UNL     1       7.819  -0.423  -2.220  1.00  0.00     0.008 A 
ATOM      8  C   UNL     1       7.972  -1.382  -0.038  1.00  0.00     0.054 A 
ATOM      9  C   UNL     1       8.184  -1.648  -2.749  1.00  0.00     0.051 A 
ATOM     10  C   UNL     1       8.341  -2.618  -0.577  1.00  0.00     0.166 A 
ATOM     11  C   UNL     1       8.447  -2.752  -1.944  1.00  0.00     0.165 A 
ATOM     12  O   UNL     1       8.648  -3.836  -0.010  1.00  0.00    -0.454 OA
ATOM     13  O   UNL     1       8.823  -4.063  -2.190  1.00  0.00    -0.454 OA
ATOM     14  C   UNL     1       9.049  -4.761  -0.988  1.00  0.00     0.468 C 
ENDBRANCH   5   6
ENDBRANCH   1   5
TORSDOF 3
ENDMDL
MODEL 5
REMARK VINA RESULT:      -7.1      1.256      1.471
REMARK SMILES CC(=O)CCc1ccc2c(c1)OCO2
REMARK SMILES IDX 4 1 2 2 1 3 3 4 5 5 6 6 7 7 11 8 8 9 10 10 9 11 12 12 14 13
REMARK SMILES IDX 13 14
REMARK H PARENT
REMARK Flexibility Score: inf
ROOT
ATOM      1  C   UNL     1       6.405   1.201   0.939  1.00  0.00     0.080 C 
ENDROOT
BRANCH   1   2
ATOM      2  C   UNL     1       5.669   0.366   1.930  1.00  0.00     0.130 C 
ATOM      3  C   UNL     1       6.264  -0.871   2.503  1.00  0.00     0.087 C 
ATOM      4  O   UNL     1       4.549   0.676   2.301  1.00  0.00    -0.300 OA
ENDBRANCH   1   2
BRANCH   1   5
ATOM      5  C   UNL     1       5.902   0.954  -0.469  1.00  0.00     0.043 C 
BRANCH   5   6
ATOM      6  C   UNL     1       6.837   0.117  -1.244  1.00  0.00    -0.044 A 
ATOM      7  C   UNL     1       7.522   0.621  -2.355  1.00  0.00     0.008 A 
ATOM      8  C   UNL     1       7.049  -1.191  -0.873  1.00  0.00     0.054 A 
ATOM      9  C   UNL     1       8.387  -0.210  -3.043  1.00  0.00     0.051 A 
ATOM     10  C   UNL     1       7.925  -2.027  -1.572  1.00  0.00     0.166 A 
ATOM     11  C   UNL     1       8.600  -1.533  -2.666  1.00  0.00     0.165 A 
ATOM     12  O   UNL     1       8.302  -3.343  -1.405  1.00  0.00    -0.454 OA
ATOM     13  O   UNL     1       9.385  -2.566  -3.153  1.00  0.00    -0.454 OA
ATOM     14  C   UNL     1       9.296  -3.704  -2.330  1.00  0.00     0.468 C 
ENDBRANCH   5   6
ENDBRANCH   1   5
TORSDOF 3
ENDMDL
