@<TRIPOS>MOLECULE
/home/cewinharhar/GITHUB/reincatalyze/data/processed/docking_pred/2023-May-31-1438_sub9_nm5_bs15_s42_ex16_mel10_mts1000_k50_ec05_g099_lra9e-4_lrc3e-3/d475abeaf77d1f7cad9c775310647ad941a1fd31_ligand_9.pdbqt
 14 15 0 0 0
SMALL
GASTEIGER

@<TRIPOS>ATOM
      1  C          5.5060    0.0320    1.9530 C.3     1  UNL1        0.0800
      2  C          4.6450    1.2060    1.6360 C.2     1  UNL1        0.1300
      3  C          4.9750    2.1380    0.5250 C.3     1  UNL1        0.0870
      4  O          3.6380    1.4380    2.2850 O.2     1  UNL1       -0.3000
      5  C          6.9370    0.2640    1.5120 C.3     1  UNL1        0.0430
      6  C          7.3490   -0.6920    0.4690 C.2     1  UNL1       -0.0440
      7  C          7.2420   -0.3820   -0.8920 C.2     1  UNL1        0.0080
      8  C          7.8550   -1.9200    0.8300 C.2     1  UNL1        0.0540
      9  C          7.6460   -1.3190   -1.8260 C.2     1  UNL1        0.0510
     10  C          8.2620   -2.8620   -0.1190 C.2     1  UNL1        0.1660
     11  C          8.1560   -2.5590   -1.4580 C.2     1  UNL1        0.1650
     12  O          8.7890   -4.1320   -0.0150 O.2     1  UNL1       -0.4540
     13  O          8.6260   -3.6610   -2.1560 O.2     1  UNL1       -0.4540
     14  C          9.1210   -4.6450   -1.2800 C.3     1  UNL1        0.4680
@<TRIPOS>BOND
     1    13    11    1
     2    13    14    1
     3     9    11    2
     4     9     7    1
     5    11    10    1
     6    14    12    1
     7     7     6    2
     8    10    12    1
     9    10     8    2
    10     6     8    1
    11     6     5    1
    12     3     2    1
    13     5     1    1
    14     2     1    1
    15     2     4    2
