@<TRIPOS>MOLECULE
/home/cewinharhar/GITHUB/reincatalyze/data/processed/docking_pred/2023-May-31-1438_sub9_nm5_bs15_s42_ex16_mel10_mts1000_k50_ec05_g099_lra9e-4_lrc3e-3/d68da6ca94917019a71bc3feefe4e6b6d631e6ad_ligand_9.pdbqt
 14 15 0 0 0
SMALL
GASTEIGER

@<TRIPOS>ATOM
      1  C          6.3260    1.2160    0.9220 C.3     1  UNL1        0.0800
      2  C          5.6460    0.3700    1.9420 C.2     1  UNL1        0.1300
      3  C          6.2860   -0.8540    2.4950 C.3     1  UNL1        0.0870
      4  O          4.5340    0.6580    2.3550 O.2     1  UNL1       -0.3000
      5  C          5.8160    0.9150   -0.4730 C.3     1  UNL1        0.0430
      6  C          6.7820    0.1150   -1.2470 C.2     1  UNL1       -0.0440
      7  C          7.4840    0.6590   -2.3290 C.2     1  UNL1        0.0080
      8  C          7.0080   -1.1990   -0.9060 C.2     1  UNL1        0.0540
      9  C          8.3780   -0.1400   -3.0180 C.2     1  UNL1        0.0510
     10  C          7.9140   -2.0020   -1.6050 C.2     1  UNL1        0.1660
     11  C          8.6040   -1.4680   -2.6710 C.2     1  UNL1        0.1650
     12  O          8.3080   -3.3160   -1.4650 O.2     1  UNL1       -0.4540
     13  O          9.4180   -2.4750   -3.1660 O.2     1  UNL1       -0.4540
     14  C          9.3290   -3.6360   -2.3750 C.3     1  UNL1        0.4680
@<TRIPOS>BOND
     1    13    11    1
     2    13    14    1
     3     9    11    2
     4     9     7    1
     5    11    10    1
     6    14    12    1
     7     7     6    2
     8    10    12    1
     9    10     8    2
    10     6     8    1
    11     6     5    1
    12     5     1    1
    13     1     2    1
    14     2     4    2
    15     2     3    1
