@<TRIPOS>MOLECULE
/home/cewinharhar/GITHUB/reincatalyze/data/processed/docking_pred/2023-May-31-1438_sub9_nm5_bs15_s42_ex16_mel10_mts1000_k50_ec05_g099_lra9e-4_lrc3e-3/d68da6ca94917019a71bc3feefe4e6b6d631e6ad_ligand_9.pdbqt
 14 15 0 0 0
SMALL
GASTEIGER

@<TRIPOS>ATOM
      1  C          5.5220    1.9120    1.2520 C.3     1  UNL1        0.0800
      2  C          5.0570    0.7050    1.9920 C.2     1  UNL1        0.1300
      3  C          5.9180   -0.4980    2.1430 C.3     1  UNL1        0.0870
      4  O          3.9470    0.6700    2.4980 O.2     1  UNL1       -0.3000
      5  C          5.3970    1.7200   -0.2470 C.3     1  UNL1        0.0430
      6  C          6.5660    1.0190   -0.8070 C.2     1  UNL1       -0.0440
      7  C          7.8720    1.4530   -0.5530 C.2     1  UNL1        0.0080
      8  C          6.3800   -0.0920   -1.5980 C.2     1  UNL1        0.0540
      9  C          8.9300    0.7540   -1.1050 C.2     1  UNL1        0.0510
     10  C          7.4540   -0.7950   -2.1530 C.2     1  UNL1        0.1660
     11  C          8.7390   -0.3680   -1.9050 C.2     1  UNL1        0.1650
     12  O          7.5300   -1.9110   -2.9600 O.2     1  UNL1       -0.4540
     13  O          9.5870   -1.2400   -2.5710 O.2     1  UNL1       -0.4540
     14  C          8.8660   -2.2860   -3.1780 C.3     1  UNL1        0.4680
@<TRIPOS>BOND
     1    14    12    1
     2    14    13    1
     3    12    10    1
     4    13    11    1
     5    10    11    2
     6    10     8    1
     7    11     9    1
     8     8     6    2
     9     9     7    2
    10     6     7    1
    11     6     5    1
    12     5     1    1
    13     1     2    1
    14     2     3    1
    15     2     4    2
