MODEL 1
REMARK VINA RESULT:      -7.6      0.000      0.000
REMARK SMILES CC(=O)CCc1ccc2c(c1)OCO2
REMARK SMILES IDX 4 1 2 2 1 3 3 4 5 5 6 6 7 7 11 8 8 9 10 10 9 11 12 12 14 13
REMARK SMILES IDX 13 14
REMARK H PARENT
REMARK Flexibility Score: inf
ROOT
ATOM      1  C   UNL     1       5.522   1.912   1.252  1.00  0.00     0.080 C 
ENDROOT
BRANCH   1   2
ATOM      2  C   UNL     1       5.057   0.705   1.992  1.00  0.00     0.130 C 
ATOM      3  C   UNL     1       5.918  -0.498   2.143  1.00  0.00     0.087 C 
ATOM      4  O   UNL     1       3.947   0.670   2.498  1.00  0.00    -0.300 OA
ENDBRANCH   1   2
BRANCH   1   5
ATOM      5  C   UNL     1       5.397   1.720  -0.247  1.00  0.00     0.043 C 
BRANCH   5   6
ATOM      6  C   UNL     1       6.566   1.019  -0.807  1.00  0.00    -0.044 A 
ATOM      7  C   UNL     1       7.872   1.453  -0.553  1.00  0.00     0.008 A 
ATOM      8  C   UNL     1       6.380  -0.092  -1.598  1.00  0.00     0.054 A 
ATOM      9  C   UNL     1       8.930   0.754  -1.105  1.00  0.00     0.051 A 
ATOM     10  C   UNL     1       7.454  -0.795  -2.153  1.00  0.00     0.166 A 
ATOM     11  C   UNL     1       8.739  -0.368  -1.905  1.00  0.00     0.165 A 
ATOM     12  O   UNL     1       7.530  -1.911  -2.960  1.00  0.00    -0.454 OA
ATOM     13  O   UNL     1       9.587  -1.240  -2.571  1.00  0.00    -0.454 OA
ATOM     14  C   UNL     1       8.866  -2.286  -3.178  1.00  0.00     0.468 C 
ENDBRANCH   5   6
ENDBRANCH   1   5
TORSDOF 3
ENDMDL
MODEL 2
REMARK VINA RESULT:      -7.2      1.813      2.248
REMARK SMILES CC(=O)CCc1ccc2c(c1)OCO2
REMARK SMILES IDX 4 1 2 2 1 3 3 4 5 5 6 6 7 7 11 8 8 9 10 10 9 11 12 12 14 13
REMARK SMILES IDX 13 14
REMARK H PARENT
REMARK Flexibility Score: inf
ROOT
ATOM      1  C   UNL     1       5.732   1.496  -0.237  1.00  0.00     0.080 C 
ENDROOT
BRANCH   1   2
ATOM      2  C   UNL     1       5.072   1.287   1.082  1.00  0.00     0.130 C 
ATOM      3  C   UNL     1       5.415   0.130   1.952  1.00  0.00     0.087 C 
ATOM      4  O   UNL     1       4.225   2.065   1.489  1.00  0.00    -0.300 OA
ENDBRANCH   1   2
BRANCH   1   5
ATOM      5  C   UNL     1       7.221   1.220  -0.158  1.00  0.00     0.043 C 
BRANCH   5   6
ATOM      6  C   UNL     1       7.579  -0.042  -0.830  1.00  0.00    -0.044 A 
ATOM      7  C   UNL     1       7.606  -0.146  -2.226  1.00  0.00     0.008 A 
ATOM      8  C   UNL     1       7.900  -1.149  -0.078  1.00  0.00     0.054 A 
ATOM      9  C   UNL     1       7.951  -1.356  -2.801  1.00  0.00     0.051 A 
ATOM     10  C   UNL     1       8.249  -2.369  -0.665  1.00  0.00     0.166 A 
ATOM     11  C   UNL     1       8.274  -2.473  -2.038  1.00  0.00     0.165 A 
ATOM     12  O   UNL     1       8.602  -3.595  -0.143  1.00  0.00    -0.454 OA
ATOM     13  O   UNL     1       8.647  -3.775  -2.334  1.00  0.00    -0.454 OA
ATOM     14  C   UNL     1       8.953  -4.495  -1.164  1.00  0.00     0.468 C 
ENDBRANCH   5   6
ENDBRANCH   1   5
TORSDOF 3
ENDMDL
MODEL 3
REMARK VINA RESULT:      -7.0      1.241      1.424
REMARK SMILES CC(=O)CCc1ccc2c(c1)OCO2
REMARK SMILES IDX 4 1 2 2 1 3 3 4 5 5 6 6 7 7 11 8 8 9 10 10 9 11 12 12 14 13
REMARK SMILES IDX 13 14
REMARK H PARENT
REMARK Flexibility Score: inf
ROOT
ATOM      1  C   UNL     1       6.326   1.216   0.922  1.00  0.00     0.080 C 
ENDROOT
BRANCH   1   2
ATOM      2  C   UNL     1       5.646   0.370   1.942  1.00  0.00     0.130 C 
ATOM      3  C   UNL     1       6.286  -0.854   2.495  1.00  0.00     0.087 C 
ATOM      4  O   UNL     1       4.534   0.658   2.355  1.00  0.00    -0.300 OA
ENDBRANCH   1   2
BRANCH   1   5
ATOM      5  C   UNL     1       5.816   0.915  -0.473  1.00  0.00     0.043 C 
BRANCH   5   6
ATOM      6  C   UNL     1       6.782   0.115  -1.247  1.00  0.00    -0.044 A 
ATOM      7  C   UNL     1       7.484   0.659  -2.329  1.00  0.00     0.008 A 
ATOM      8  C   UNL     1       7.008  -1.199  -0.906  1.00  0.00     0.054 A 
ATOM      9  C   UNL     1       8.378  -0.140  -3.018  1.00  0.00     0.051 A 
ATOM     10  C   UNL     1       7.914  -2.002  -1.605  1.00  0.00     0.166 A 
ATOM     11  C   UNL     1       8.604  -1.468  -2.671  1.00  0.00     0.165 A 
ATOM     12  O   UNL     1       8.308  -3.316  -1.465  1.00  0.00    -0.454 OA
ATOM     13  O   UNL     1       9.418  -2.475  -3.166  1.00  0.00    -0.454 OA
ATOM     14  C   UNL     1       9.329  -3.636  -2.375  1.00  0.00     0.468 C 
ENDBRANCH   5   6
ENDBRANCH   1   5
TORSDOF 3
ENDMDL
MODEL 4
REMARK VINA RESULT:      -7.0      2.027      2.601
REMARK SMILES CC(=O)CCc1ccc2c(c1)OCO2
REMARK SMILES IDX 4 1 2 2 1 3 3 4 5 5 6 6 7 7 11 8 8 9 10 10 9 11 12 12 14 13
REMARK SMILES IDX 13 14
REMARK H PARENT
REMARK Flexibility Score: inf
ROOT
ATOM      1  C   UNL     1       5.405  -0.071   2.003  1.00  0.00     0.080 C 
ENDROOT
BRANCH   1   2
ATOM      2  C   UNL     1       4.569   1.139   1.764  1.00  0.00     0.130 C 
ATOM      3  C   UNL     1       4.914   2.130   0.709  1.00  0.00     0.087 C 
ATOM      4  O   UNL     1       3.571   1.354   2.433  1.00  0.00    -0.300 OA
ENDBRANCH   1   2
BRANCH   1   5
ATOM      5  C   UNL     1       6.848   0.169   1.604  1.00  0.00     0.043 C 
BRANCH   5   6
ATOM      6  C   UNL     1       7.273  -0.737   0.523  1.00  0.00    -0.044 A 
ATOM      7  C   UNL     1       7.121  -0.393  -0.825  1.00  0.00     0.008 A 
ATOM      8  C   UNL     1       7.838  -1.953   0.835  1.00  0.00     0.054 A 
ATOM      9  C   UNL     1       7.540  -1.283  -1.797  1.00  0.00     0.051 A 
ATOM     10  C   UNL     1       8.261  -2.850  -0.151  1.00  0.00     0.166 A 
ATOM     11  C   UNL     1       8.110  -2.512  -1.478  1.00  0.00     0.165 A 
ATOM     12  O   UNL     1       8.841  -4.099  -0.099  1.00  0.00    -0.454 OA
ATOM     13  O   UNL     1       8.607  -3.572  -2.220  1.00  0.00    -0.454 OA
ATOM     14  C   UNL     1       9.164  -4.560  -1.386  1.00  0.00     0.468 C 
ENDBRANCH   5   6
ENDBRANCH   1   5
TORSDOF 3
ENDMDL
MODEL 5
REMARK VINA RESULT:      -6.8      1.811      2.486
REMARK SMILES CC(=O)CCc1ccc2c(c1)OCO2
REMARK SMILES IDX 4 1 2 2 1 3 3 4 5 5 6 6 7 7 11 8 8 9 10 10 9 11 12 12 14 13
REMARK SMILES IDX 13 14
REMARK H PARENT
REMARK Flexibility Score: inf
ROOT
ATOM      1  C   UNL     1       6.612   1.146   1.134  1.00  0.00     0.080 C 
ENDROOT
BRANCH   1   2
ATOM      2  C   UNL     1       5.282   1.739   0.818  1.00  0.00     0.130 C 
ATOM      3  C   UNL     1       4.916   2.143  -0.565  1.00  0.00     0.087 C 
ATOM      4  O   UNL     1       4.450   1.913   1.694  1.00  0.00    -0.300 OA
ENDBRANCH   1   2
BRANCH   1   5
ATOM      5  C   UNL     1       7.576   1.310  -0.024  1.00  0.00     0.043 C 
BRANCH   5   6
ATOM      6  C   UNL     1       7.803   0.037  -0.731  1.00  0.00    -0.044 A 
ATOM      7  C   UNL     1       7.730  -0.050  -2.126  1.00  0.00     0.008 A 
ATOM      8  C   UNL     1       8.097  -1.100  -0.012  1.00  0.00     0.054 A 
ATOM      9  C   UNL     1       7.953  -1.272  -2.735  1.00  0.00     0.051 A 
ATOM     10  C   UNL     1       8.322  -2.333  -0.632  1.00  0.00     0.166 A 
ATOM     11  C   UNL     1       8.250  -2.419  -2.005  1.00  0.00     0.165 A 
ATOM     12  O   UNL     1       8.625  -3.587  -0.147  1.00  0.00    -0.454 OA
ATOM     13  O   UNL     1       8.513  -3.739  -2.338  1.00  0.00    -0.454 OA
ATOM     14  C   UNL     1       8.846  -4.494  -1.197  1.00  0.00     0.468 C 
ENDBRANCH   5   6
ENDBRANCH   1   5
TORSDOF 3
ENDMDL
