@<TRIPOS>MOLECULE
/home/cewinharhar/GITHUB/reincatalyze/data/processed/docking_pred/2023-May-31-1438_sub9_nm5_bs15_s42_ex16_mel10_mts1000_k50_ec05_g099_lra9e-4_lrc3e-3/d68da6ca94917019a71bc3feefe4e6b6d631e6ad_ligand_9.pdbqt
 14 15 0 0 0
SMALL
GASTEIGER

@<TRIPOS>ATOM
      1  C          6.6120    1.1460    1.1340 C.3     1  UNL1        0.0800
      2  C          5.2820    1.7390    0.8180 C.2     1  UNL1        0.1300
      3  C          4.9160    2.1430   -0.5650 C.3     1  UNL1        0.0870
      4  O          4.4500    1.9130    1.6940 O.2     1  UNL1       -0.3000
      5  C          7.5760    1.3100   -0.0240 C.3     1  UNL1        0.0430
      6  C          7.8030    0.0370   -0.7310 C.2     1  UNL1       -0.0440
      7  C          7.7300   -0.0500   -2.1260 C.2     1  UNL1        0.0080
      8  C          8.0970   -1.1000   -0.0120 C.2     1  UNL1        0.0540
      9  C          7.9530   -1.2720   -2.7350 C.2     1  UNL1        0.0510
     10  C          8.3220   -2.3330   -0.6320 C.2     1  UNL1        0.1660
     11  C          8.2500   -2.4190   -2.0050 C.2     1  UNL1        0.1650
     12  O          8.6250   -3.5870   -0.1470 O.2     1  UNL1       -0.4540
     13  O          8.5130   -3.7390   -2.3380 O.2     1  UNL1       -0.4540
     14  C          8.8460   -4.4940   -1.1970 C.3     1  UNL1        0.4680
@<TRIPOS>BOND
     1     9     7    1
     2     9    11    2
     3    13    11    1
     4    13    14    1
     5     7     6    2
     6    11    10    1
     7    14    12    1
     8     6     5    1
     9     6     8    1
    10    10    12    1
    11    10     8    2
    12     3     2    1
    13     5     1    1
    14     2     1    1
    15     2     4    2
