@<TRIPOS>MOLECULE
/home/cewinharhar/GITHUB/reincatalyze/data/processed/docking_pred/2023-May-31-1438_sub9_nm5_bs15_s42_ex16_mel10_mts1000_k50_ec05_g099_lra9e-4_lrc3e-3/d68da6ca94917019a71bc3feefe4e6b6d631e6ad_ligand_9.pdbqt
 14 15 0 0 0
SMALL
GASTEIGER

@<TRIPOS>ATOM
      1  C          5.4050   -0.0710    2.0030 C.3     1  UNL1        0.0800
      2  C          4.5690    1.1390    1.7640 C.2     1  UNL1        0.1300
      3  C          4.9140    2.1300    0.7090 C.3     1  UNL1        0.0870
      4  O          3.5710    1.3540    2.4330 O.2     1  UNL1       -0.3000
      5  C          6.8480    0.1690    1.6040 C.3     1  UNL1        0.0430
      6  C          7.2730   -0.7370    0.5230 C.2     1  UNL1       -0.0440
      7  C          7.1210   -0.3930   -0.8250 C.2     1  UNL1        0.0080
      8  C          7.8380   -1.9530    0.8350 C.2     1  UNL1        0.0540
      9  C          7.5400   -1.2830   -1.7970 C.2     1  UNL1        0.0510
     10  C          8.2610   -2.8500   -0.1510 C.2     1  UNL1        0.1660
     11  C          8.1100   -2.5120   -1.4780 C.2     1  UNL1        0.1650
     12  O          8.8410   -4.0990   -0.0990 O.2     1  UNL1       -0.4540
     13  O          8.6070   -3.5720   -2.2200 O.2     1  UNL1       -0.4540
     14  C          9.1640   -4.5600   -1.3860 C.3     1  UNL1        0.4680
@<TRIPOS>BOND
     1    13    11    1
     2    13    14    1
     3     9    11    2
     4     9     7    1
     5    11    10    1
     6    14    12    1
     7     7     6    2
     8    10    12    1
     9    10     8    2
    10     6     8    1
    11     6     5    1
    12     3     2    1
    13     5     1    1
    14     2     1    1
    15     2     4    2
