@<TRIPOS>MOLECULE
/home/cewinharhar/GITHUB/reincatalyze/data/processed/docking_pred/2023-May-31-1438_sub9_nm5_bs15_s42_ex16_mel10_mts1000_k50_ec05_g099_lra9e-4_lrc3e-3/d6fa7c89c21ca11aa73af88b15ecc664e93337c3_ligand_9.pdbqt
 14 15 0 0 0
SMALL
GASTEIGER

@<TRIPOS>ATOM
      1  C          8.3370    0.1900   -2.6770 C.3     1  UNL1        0.0800
      2  C          8.0580   -1.2700   -2.7700 C.2     1  UNL1        0.1300
      3  C          9.1390   -2.2570   -3.0340 C.3     1  UNL1        0.0870
      4  O          6.9240   -1.7010   -2.6310 O.2     1  UNL1       -0.3000
      5  C          8.8660    0.5640   -1.3070 C.3     1  UNL1        0.0430
      6  C          7.8320    0.4250   -0.2660 C.2     1  UNL1       -0.0440
      7  C          7.9390   -0.5300    0.7510 C.2     1  UNL1        0.0080
      8  C          6.7310    1.2510   -0.2830 C.2     1  UNL1        0.0540
      9  C          6.9380   -0.6140    1.7020 C.2     1  UNL1        0.0510
     10  C          5.7220    1.1630    0.6810 C.2     1  UNL1        0.1660
     11  C          5.8260    0.2230    1.6810 C.2     1  UNL1        0.1650
     12  O          4.5480    1.8580    0.8770 O.2     1  UNL1       -0.4540
     13  O          4.7020    0.3610    2.4800 O.2     1  UNL1       -0.4540
     14  C          3.9100    1.4460    2.0600 C.3     1  UNL1        0.4680
@<TRIPOS>BOND
     1     3     2    1
     2     2     1    1
     3     2     4    2
     4     1     5    1
     5     5     6    1
     6     8     6    2
     7     8    10    1
     8     6     7    1
     9    10    12    1
    10    10    11    2
    11     7     9    2
    12    12    14    1
    13    11     9    1
    14    11    13    1
    15    14    13    1
