@<TRIPOS>MOLECULE
/home/cewinharhar/GITHUB/reincatalyze/data/processed/docking_pred/2023-May-31-1438_sub9_nm5_bs15_s42_ex16_mel10_mts1000_k50_ec05_g099_lra9e-4_lrc3e-3/d6fa7c89c21ca11aa73af88b15ecc664e93337c3_ligand_9.pdbqt
 14 15 0 0 0
SMALL
GASTEIGER

@<TRIPOS>ATOM
      1  C          6.4000    1.2050    0.9250 C.3     1  UNL1        0.0800
      2  C          5.6990    0.3650    1.9360 C.2     1  UNL1        0.1300
      3  C          6.3340   -0.8470    2.5200 C.3     1  UNL1        0.0870
      4  O          4.5750    0.6500    2.3170 O.2     1  UNL1       -0.3000
      5  C          5.8840    0.9290   -0.4730 C.3     1  UNL1        0.0430
      6  C          6.8240    0.1000   -1.2480 C.2     1  UNL1       -0.0440
      7  C          7.4990    0.6070   -2.3650 C.2     1  UNL1        0.0080
      8  C          7.0540   -1.2040   -0.8730 C.2     1  UNL1        0.0540
      9  C          8.3700   -0.2180   -3.0540 C.2     1  UNL1        0.0510
     10  C          7.9360   -2.0330   -1.5720 C.2     1  UNL1        0.1660
     11  C          8.5990   -1.5360   -2.6720 C.2     1  UNL1        0.1650
     12  O          8.3280   -3.3440   -1.4020 O.2     1  UNL1       -0.4540
     13  O          9.3940   -2.5620   -3.1580 O.2     1  UNL1       -0.4540
     14  C          9.3220   -3.6980   -2.3300 C.3     1  UNL1        0.4680
@<TRIPOS>BOND
     1    13    11    1
     2    13    14    1
     3     9    11    2
     4     9     7    1
     5    11    10    1
     6     7     6    2
     7    14    12    1
     8    10    12    1
     9    10     8    2
    10     6     8    1
    11     6     5    1
    12     5     1    1
    13     1     2    1
    14     2     4    2
    15     2     3    1
