@<TRIPOS>MOLECULE
/home/cewinharhar/GITHUB/reincatalyze/data/processed/docking_pred/2023-May-31-1438_sub9_nm5_bs15_s42_ex16_mel10_mts1000_k50_ec05_g099_lra9e-4_lrc3e-3/d6fa7c89c21ca11aa73af88b15ecc664e93337c3_ligand_9.pdbqt
 14 15 0 0 0
SMALL
GASTEIGER

@<TRIPOS>ATOM
      1  C          5.5370    1.9390    1.2570 C.3     1  UNL1        0.0800
      2  C          5.1190    0.7180    2.0010 C.2     1  UNL1        0.1300
      3  C          6.0390   -0.4360    2.1870 C.3     1  UNL1        0.0870
      4  O          4.0010    0.6290    2.4830 O.2     1  UNL1       -0.3000
      5  C          5.4110    1.7400   -0.2410 C.3     1  UNL1        0.0430
      6  C          6.5760    1.0300   -0.7980 C.2     1  UNL1       -0.0440
      7  C          7.8850    1.4500   -0.5360 C.2     1  UNL1        0.0080
      8  C          6.3830   -0.0760   -1.5940 C.2     1  UNL1        0.0540
      9  C          8.9390    0.7430   -1.0860 C.2     1  UNL1        0.0510
     10  C          7.4520   -0.7880   -2.1470 C.2     1  UNL1        0.1660
     11  C          8.7410   -0.3740   -1.8910 C.2     1  UNL1        0.1650
     12  O          7.5210   -1.9000   -2.9580 O.2     1  UNL1       -0.4540
     13  O          9.5830   -1.2520   -2.5560 O.2     1  UNL1       -0.4540
     14  C          8.8540   -2.2880   -3.1710 C.3     1  UNL1        0.4680
@<TRIPOS>BOND
     1    14    12    1
     2    14    13    1
     3    12    10    1
     4    13    11    1
     5    10    11    2
     6    10     8    1
     7    11     9    1
     8     8     6    2
     9     9     7    2
    10     6     7    1
    11     6     5    1
    12     5     1    1
    13     1     2    1
    14     2     3    1
    15     2     4    2
