MODEL 1
REMARK VINA RESULT:      -7.6      0.000      0.000
REMARK SMILES CC(=O)CCc1ccc2c(c1)OCO2
REMARK SMILES IDX 4 1 2 2 1 3 3 4 5 5 6 6 7 7 11 8 8 9 10 10 9 11 12 12 14 13
REMARK SMILES IDX 13 14
REMARK H PARENT
REMARK Flexibility Score: inf
ROOT
ATOM      1  C   UNL     1       5.553   1.922   1.271  1.00  0.00     0.080 C 
ENDROOT
BRANCH   1   2
ATOM      2  C   UNL     1       5.114   0.705   2.010  1.00  0.00     0.130 C 
ATOM      3  C   UNL     1       6.016  -0.463   2.195  1.00  0.00     0.087 C 
ATOM      4  O   UNL     1       3.993   0.631   2.487  1.00  0.00    -0.300 OA
ENDBRANCH   1   2
BRANCH   1   5
ATOM      5  C   UNL     1       5.419   1.734  -0.227  1.00  0.00     0.043 C 
BRANCH   5   6
ATOM      6  C   UNL     1       6.582   1.029  -0.795  1.00  0.00    -0.044 A 
ATOM      7  C   UNL     1       7.891   1.460  -0.552  1.00  0.00     0.008 A 
ATOM      8  C   UNL     1       6.387  -0.082  -1.584  1.00  0.00     0.054 A 
ATOM      9  C   UNL     1       8.943   0.758  -1.111  1.00  0.00     0.051 A 
ATOM     10  C   UNL     1       7.455  -0.789  -2.147  1.00  0.00     0.166 A 
ATOM     11  C   UNL     1       8.743  -0.365  -1.908  1.00  0.00     0.165 A 
ATOM     12  O   UNL     1       7.521  -1.905  -2.953  1.00  0.00    -0.454 OA
ATOM     13  O   UNL     1       9.583  -1.240  -2.580  1.00  0.00    -0.454 OA
ATOM     14  C   UNL     1       8.855  -2.284  -3.181  1.00  0.00     0.468 C 
ENDBRANCH   5   6
ENDBRANCH   1   5
TORSDOF 3
ENDMDL
MODEL 2
REMARK VINA RESULT:      -7.5      1.901      2.354
REMARK SMILES CC(=O)CCc1ccc2c(c1)OCO2
REMARK SMILES IDX 4 1 2 2 1 3 3 4 5 5 6 6 7 7 11 8 8 9 10 10 9 11 12 12 14 13
REMARK SMILES IDX 13 14
REMARK H PARENT
REMARK Flexibility Score: inf
ROOT
ATOM      1  C   UNL     1       5.716   1.388  -0.310  1.00  0.00     0.080 C 
ENDROOT
BRANCH   1   2
ATOM      2  C   UNL     1       5.136   1.291   1.058  1.00  0.00     0.130 C 
ATOM      3  C   UNL     1       5.456   0.156   1.964  1.00  0.00     0.087 C 
ATOM      4  O   UNL     1       4.374   2.148   1.478  1.00  0.00    -0.300 OA
ENDBRANCH   1   2
BRANCH   1   5
ATOM      5  C   UNL     1       7.216   1.167  -0.289  1.00  0.00     0.043 C 
BRANCH   5   6
ATOM      6  C   UNL     1       7.586  -0.128  -0.885  1.00  0.00    -0.044 A 
ATOM      7  C   UNL     1       7.670  -0.300  -2.272  1.00  0.00     0.008 A 
ATOM      8  C   UNL     1       7.862  -1.202  -0.069  1.00  0.00     0.054 A 
ATOM      9  C   UNL     1       8.023  -1.539  -2.775  1.00  0.00     0.051 A 
ATOM     10  C   UNL     1       8.219  -2.452  -0.582  1.00  0.00     0.166 A 
ATOM     11  C   UNL     1       8.300  -2.622  -1.946  1.00  0.00     0.165 A 
ATOM     12  O   UNL     1       8.535  -3.656   0.011  1.00  0.00    -0.454 OA
ATOM     13  O   UNL     1       8.669  -3.940  -2.165  1.00  0.00    -0.454 OA
ATOM     14  C   UNL     1       8.917  -4.606  -0.950  1.00  0.00     0.468 C 
ENDBRANCH   5   6
ENDBRANCH   1   5
TORSDOF 3
ENDMDL
MODEL 3
REMARK VINA RESULT:      -7.2      2.075      2.612
REMARK SMILES CC(=O)CCc1ccc2c(c1)OCO2
REMARK SMILES IDX 4 1 2 2 1 3 3 4 5 5 6 6 7 7 11 8 8 9 10 10 9 11 12 12 14 13
REMARK SMILES IDX 13 14
REMARK H PARENT
REMARK Flexibility Score: inf
ROOT
ATOM      1  C   UNL     1       5.547   0.018   1.966  1.00  0.00     0.080 C 
ENDROOT
BRANCH   1   2
ATOM      2  C   UNL     1       4.652   1.165   1.649  1.00  0.00     0.130 C 
ATOM      3  C   UNL     1       4.948   2.101   0.532  1.00  0.00     0.087 C 
ATOM      4  O   UNL     1       3.642   1.371   2.303  1.00  0.00    -0.300 OA
ENDBRANCH   1   2
BRANCH   1   5
ATOM      5  C   UNL     1       6.962   0.275   1.485  1.00  0.00     0.043 C 
BRANCH   5   6
ATOM      6  C   UNL     1       7.367  -0.685   0.442  1.00  0.00    -0.044 A 
ATOM      7  C   UNL     1       7.258  -0.377  -0.919  1.00  0.00     0.008 A 
ATOM      8  C   UNL     1       7.868  -1.915   0.804  1.00  0.00     0.054 A 
ATOM      9  C   UNL     1       7.655  -1.317  -1.853  1.00  0.00     0.051 A 
ATOM     10  C   UNL     1       8.268  -2.861  -0.145  1.00  0.00     0.166 A 
ATOM     11  C   UNL     1       8.160  -2.559  -1.484  1.00  0.00     0.165 A 
ATOM     12  O   UNL     1       8.788  -4.133  -0.041  1.00  0.00    -0.454 OA
ATOM     13  O   UNL     1       8.623  -3.664  -2.182  1.00  0.00    -0.454 OA
ATOM     14  C   UNL     1       9.115  -4.649  -1.305  1.00  0.00     0.468 C 
ENDBRANCH   5   6
ENDBRANCH   1   5
TORSDOF 3
ENDMDL
MODEL 4
REMARK VINA RESULT:      -7.1      1.257      1.483
REMARK SMILES CC(=O)CCc1ccc2c(c1)OCO2
REMARK SMILES IDX 4 1 2 2 1 3 3 4 5 5 6 6 7 7 11 8 8 9 10 10 9 11 12 12 14 13
REMARK SMILES IDX 13 14
REMARK H PARENT
REMARK Flexibility Score: inf
ROOT
ATOM      1  C   UNL     1       6.383   1.204   0.862  1.00  0.00     0.080 C 
ENDROOT
BRANCH   1   2
ATOM      2  C   UNL     1       5.710   0.368   1.896  1.00  0.00     0.130 C 
ATOM      3  C   UNL     1       6.344  -0.864   2.438  1.00  0.00     0.087 C 
ATOM      4  O   UNL     1       4.612   0.674   2.331  1.00  0.00    -0.300 OA
ENDBRANCH   1   2
BRANCH   1   5
ATOM      5  C   UNL     1       5.873   0.876  -0.527  1.00  0.00     0.043 C 
BRANCH   5   6
ATOM      6  C   UNL     1       6.836   0.056  -1.284  1.00  0.00    -0.044 A 
ATOM      7  C   UNL     1       7.553   0.579  -2.366  1.00  0.00     0.008 A 
ATOM      8  C   UNL     1       7.046  -1.256  -0.924  1.00  0.00     0.054 A 
ATOM      9  C   UNL     1       8.445  -0.237  -3.038  1.00  0.00     0.051 A 
ATOM     10  C   UNL     1       7.949  -2.077  -1.606  1.00  0.00     0.166 A 
ATOM     11  C   UNL     1       8.654  -1.563  -2.672  1.00  0.00     0.165 A 
ATOM     12  O   UNL     1       8.328  -3.393  -1.446  1.00  0.00    -0.454 OA
ATOM     13  O   UNL     1       9.461  -2.584  -3.148  1.00  0.00    -0.454 OA
ATOM     14  C   UNL     1       9.353  -3.735  -2.344  1.00  0.00     0.468 C 
ENDBRANCH   5   6
ENDBRANCH   1   5
TORSDOF 3
ENDMDL
MODEL 5
REMARK VINA RESULT:      -6.8      1.974      2.741
REMARK SMILES CC(=O)CCc1ccc2c(c1)OCO2
REMARK SMILES IDX 4 1 2 2 1 3 3 4 5 5 6 6 7 7 11 8 8 9 10 10 9 11 12 12 14 13
REMARK SMILES IDX 13 14
REMARK H PARENT
REMARK Flexibility Score: inf
ROOT
ATOM      1  C   UNL     1       6.746   0.827   0.697  1.00  0.00     0.080 C 
ENDROOT
BRANCH   1   2
ATOM      2  C   UNL     1       5.436   1.536   0.676  1.00  0.00     0.130 C 
ATOM      3  C   UNL     1       4.901   2.150  -0.569  1.00  0.00     0.087 C 
ATOM      4  O   UNL     1       4.760   1.635   1.687  1.00  0.00    -0.300 OA
ENDBRANCH   1   2
BRANCH   1   5
ATOM      5  C   UNL     1       7.452   0.934  -0.640  1.00  0.00     0.043 C 
BRANCH   5   6
ATOM      6  C   UNL     1       7.856  -0.387  -1.152  1.00  0.00    -0.044 A 
ATOM      7  C   UNL     1       8.111  -0.599  -2.512  1.00  0.00     0.008 A 
ATOM      8  C   UNL     1       7.993  -1.444  -0.281  1.00  0.00     0.054 A 
ATOM      9  C   UNL     1       8.488  -1.861  -2.935  1.00  0.00     0.051 A 
ATOM     10  C   UNL     1       8.375  -2.717  -0.713  1.00  0.00     0.166 A 
ATOM     11  C   UNL     1       8.624  -2.928  -2.051  1.00  0.00     0.165 A 
ATOM     12  O   UNL     1       8.576  -3.912  -0.055  1.00  0.00    -0.454 OA
ATOM     13  O   UNL     1       8.978  -4.261  -2.188  1.00  0.00    -0.454 OA
ATOM     14  C   UNL     1       9.048  -4.899  -0.936  1.00  0.00     0.468 C 
ENDBRANCH   5   6
ENDBRANCH   1   5
TORSDOF 3
ENDMDL
