@<TRIPOS>MOLECULE
/home/cewinharhar/GITHUB/reincatalyze/data/processed/docking_pred/2023-May-31-1438_sub9_nm5_bs15_s42_ex16_mel10_mts1000_k50_ec05_g099_lra9e-4_lrc3e-3/d98db6e7330c4682e6208573911aa9edae27e8f4_ligand_9.pdbqt
 14 15 0 0 0
SMALL
GASTEIGER

@<TRIPOS>ATOM
      1  C          5.5350    0.0120    1.9670 C.3     1  UNL1        0.0800
      2  C          4.6470    1.1660    1.6520 C.2     1  UNL1        0.1300
      3  C          4.9530    2.1060    0.5400 C.3     1  UNL1        0.0870
      4  O          3.6360    1.3740    2.3020 O.2     1  UNL1       -0.3000
      5  C          6.9530    0.2640    1.4940 C.3     1  UNL1        0.0430
      6  C          7.3620   -0.6960    0.4540 C.2     1  UNL1       -0.0440
      7  C          7.2560   -0.3900   -0.9080 C.2     1  UNL1        0.0080
      8  C          7.8620   -1.9250    0.8180 C.2     1  UNL1        0.0540
      9  C          7.6560   -1.3310   -1.8400 C.2     1  UNL1        0.0510
     10  C          8.2650   -2.8720   -0.1280 C.2     1  UNL1        0.1660
     11  C          8.1610   -2.5730   -1.4680 C.2     1  UNL1        0.1650
     12  O          8.7860   -4.1440   -0.0210 O.2     1  UNL1       -0.4540
     13  O          8.6260   -3.6780   -2.1630 O.2     1  UNL1       -0.4540
     14  C          9.1170   -4.6620   -1.2840 C.3     1  UNL1        0.4680
@<TRIPOS>BOND
     1    13    11    1
     2    13    14    1
     3     9    11    2
     4     9     7    1
     5    11    10    1
     6    14    12    1
     7     7     6    2
     8    10    12    1
     9    10     8    2
    10     6     8    1
    11     6     5    1
    12     3     2    1
    13     5     1    1
    14     2     1    1
    15     2     4    2
