@<TRIPOS>MOLECULE
/home/cewinharhar/GITHUB/reincatalyze/data/processed/docking_pred/2023-May-31-1438_sub9_nm5_bs15_s42_ex16_mel10_mts1000_k50_ec05_g099_lra9e-4_lrc3e-3/da55d276f49f8aea3f2b333b6115ea57fe53d1b0_ligand_9.pdbqt
 14 15 0 0 0
SMALL
GASTEIGER

@<TRIPOS>ATOM
      1  C          5.3280   -0.0670    1.9770 C.3     1  UNL1        0.0800
      2  C          4.4490    1.1200    1.7850 C.2     1  UNL1        0.1300
      3  C          4.7430    2.1500    0.7530 C.3     1  UNL1        0.0870
      4  O          3.4550    1.2810    2.4740 O.2     1  UNL1       -0.3000
      5  C          6.7930    0.3170    1.9110 C.3     1  UNL1        0.0430
      6  C          7.3930   -0.0390    0.6120 C.2     1  UNL1       -0.0440
      7  C          7.8930    0.9380   -0.2560 C.2     1  UNL1        0.0080
      8  C          7.4700   -1.3600    0.2350 C.2     1  UNL1        0.0540
      9  C          8.4450    0.5450   -1.4620 C.2     1  UNL1        0.0510
     10  C          8.0290   -1.7520   -0.9850 C.2     1  UNL1        0.1660
     11  C          8.5210   -0.7920   -1.8400 C.2     1  UNL1        0.1650
     12  O          8.2180   -2.9820   -1.5800 O.2     1  UNL1       -0.4540
     13  O          9.0080   -1.4580   -2.9540 O.2     1  UNL1       -0.4540
     14  C          8.9180   -2.8530   -2.7910 C.3     1  UNL1        0.4680
@<TRIPOS>BOND
     1    13    14    1
     2    13    11    1
     3    14    12    1
     4    11     9    2
     5    11    10    1
     6    12    10    1
     7     9     7    1
     8    10     8    2
     9     7     6    2
    10     8     6    1
    11     6     5    1
    12     3     2    1
    13     2     1    1
    14     2     4    2
    15     5     1    1
