MODEL 1
REMARK VINA RESULT:      -7.6      0.000      0.000
REMARK SMILES CC(=O)CCc1ccc2c(c1)OCO2
REMARK SMILES IDX 4 1 2 2 1 3 3 4 5 5 6 6 7 7 11 8 8 9 10 10 9 11 12 12 14 13
REMARK SMILES IDX 13 14
REMARK H PARENT
REMARK Flexibility Score: inf
ROOT
ATOM      1  C   UNL     1       5.543   1.900   1.284  1.00  0.00     0.080 C 
ENDROOT
BRANCH   1   2
ATOM      2  C   UNL     1       5.101   0.679   2.014  1.00  0.00     0.130 C 
ATOM      3  C   UNL     1       5.998  -0.496   2.185  1.00  0.00     0.087 C 
ATOM      4  O   UNL     1       3.982   0.606   2.495  1.00  0.00    -0.300 OA
ENDBRANCH   1   2
BRANCH   1   5
ATOM      5  C   UNL     1       5.413   1.722  -0.215  1.00  0.00     0.043 C 
BRANCH   5   6
ATOM      6  C   UNL     1       6.577   1.021  -0.786  1.00  0.00    -0.044 A 
ATOM      7  C   UNL     1       7.886   1.454  -0.540  1.00  0.00     0.008 A 
ATOM      8  C   UNL     1       6.385  -0.088  -1.578  1.00  0.00     0.054 A 
ATOM      9  C   UNL     1       8.939   0.756  -1.101  1.00  0.00     0.051 A 
ATOM     10  C   UNL     1       7.454  -0.790  -2.142  1.00  0.00     0.166 A 
ATOM     11  C   UNL     1       8.742  -0.365  -1.902  1.00  0.00     0.165 A 
ATOM     12  O   UNL     1       7.523  -1.904  -2.952  1.00  0.00    -0.454 OA
ATOM     13  O   UNL     1       9.584  -1.235  -2.576  1.00  0.00    -0.454 OA
ATOM     14  C   UNL     1       8.858  -2.279  -3.181  1.00  0.00     0.468 C 
ENDBRANCH   5   6
ENDBRANCH   1   5
TORSDOF 3
ENDMDL
MODEL 2
REMARK VINA RESULT:      -7.3      1.981      2.450
REMARK SMILES CC(=O)CCc1ccc2c(c1)OCO2
REMARK SMILES IDX 4 1 2 2 1 3 3 4 5 5 6 6 7 7 11 8 8 9 10 10 9 11 12 12 14 13
REMARK SMILES IDX 13 14
REMARK H PARENT
REMARK Flexibility Score: inf
ROOT
ATOM      1  C   UNL     1       5.921   1.339  -0.209  1.00  0.00     0.080 C 
ENDROOT
BRANCH   1   2
ATOM      2  C   UNL     1       5.232   1.235   1.107  1.00  0.00     0.130 C 
ATOM      3  C   UNL     1       5.351   0.019   1.957  1.00  0.00     0.087 C 
ATOM      4  O   UNL     1       4.544   2.150   1.529  1.00  0.00    -0.300 OA
ENDBRANCH   1   2
BRANCH   1   5
ATOM      5  C   UNL     1       7.393   0.998  -0.088  1.00  0.00     0.043 C 
BRANCH   5   6
ATOM      6  C   UNL     1       7.713  -0.283  -0.742  1.00  0.00    -0.044 A 
ATOM      7  C   UNL     1       7.717  -0.414  -2.135  1.00  0.00     0.008 A 
ATOM      8  C   UNL     1       8.019  -1.384   0.026  1.00  0.00     0.054 A 
ATOM      9  C   UNL     1       8.025  -1.642  -2.693  1.00  0.00     0.051 A 
ATOM     10  C   UNL     1       8.331  -2.622  -0.543  1.00  0.00     0.166 A 
ATOM     11  C   UNL     1       8.333  -2.752  -1.914  1.00  0.00     0.165 A 
ATOM     12  O   UNL     1       8.663  -3.847  -0.004  1.00  0.00    -0.454 OA
ATOM     13  O   UNL     1       8.672  -4.067  -2.191  1.00  0.00    -0.454 OA
ATOM     14  C   UNL     1       8.978  -4.773  -1.012  1.00  0.00     0.468 C 
ENDBRANCH   5   6
ENDBRANCH   1   5
TORSDOF 3
ENDMDL
MODEL 3
REMARK VINA RESULT:      -7.2      2.075      2.613
REMARK SMILES CC(=O)CCc1ccc2c(c1)OCO2
REMARK SMILES IDX 4 1 2 2 1 3 3 4 5 5 6 6 7 7 11 8 8 9 10 10 9 11 12 12 14 13
REMARK SMILES IDX 13 14
REMARK H PARENT
REMARK Flexibility Score: inf
ROOT
ATOM      1  C   UNL     1       5.533   0.010   1.961  1.00  0.00     0.080 C 
ENDROOT
BRANCH   1   2
ATOM      2  C   UNL     1       4.649   1.167   1.648  1.00  0.00     0.130 C 
ATOM      3  C   UNL     1       4.974   2.125   0.557  1.00  0.00     0.087 C 
ATOM      4  O   UNL     1       3.626   1.365   2.283  1.00  0.00    -0.300 OA
ENDBRANCH   1   2
BRANCH   1   5
ATOM      5  C   UNL     1       6.953   0.260   1.495  1.00  0.00     0.043 C 
BRANCH   5   6
ATOM      6  C   UNL     1       7.361  -0.695   0.449  1.00  0.00    -0.044 A 
ATOM      7  C   UNL     1       7.249  -0.384  -0.911  1.00  0.00     0.008 A 
ATOM      8  C   UNL     1       7.869  -1.923   0.806  1.00  0.00     0.054 A 
ATOM      9  C   UNL     1       7.648  -1.319  -1.849  1.00  0.00     0.051 A 
ATOM     10  C   UNL     1       8.272  -2.865  -0.146  1.00  0.00     0.166 A 
ATOM     11  C   UNL     1       8.160  -2.560  -1.484  1.00  0.00     0.165 A 
ATOM     12  O   UNL     1       8.799  -4.135  -0.046  1.00  0.00    -0.454 OA
ATOM     13  O   UNL     1       8.627  -3.661  -2.186  1.00  0.00    -0.454 OA
ATOM     14  C   UNL     1       9.126  -4.646  -1.313  1.00  0.00     0.468 C 
ENDBRANCH   5   6
ENDBRANCH   1   5
TORSDOF 3
ENDMDL
MODEL 4
REMARK VINA RESULT:      -7.1      1.233      1.424
REMARK SMILES CC(=O)CCc1ccc2c(c1)OCO2
REMARK SMILES IDX 4 1 2 2 1 3 3 4 5 5 6 6 7 7 11 8 8 9 10 10 9 11 12 12 14 13
REMARK SMILES IDX 13 14
REMARK H PARENT
REMARK Flexibility Score: inf
ROOT
ATOM      1  C   UNL     1       6.333   1.254   0.917  1.00  0.00     0.080 C 
ENDROOT
BRANCH   1   2
ATOM      2  C   UNL     1       5.639   0.416   1.934  1.00  0.00     0.130 C 
ATOM      3  C   UNL     1       6.279  -0.794   2.517  1.00  0.00     0.087 C 
ATOM      4  O   UNL     1       4.517   0.700   2.321  1.00  0.00    -0.300 OA
ENDBRANCH   1   2
BRANCH   1   5
ATOM      5  C   UNL     1       5.826   0.956  -0.480  1.00  0.00     0.043 C 
BRANCH   5   6
ATOM      6  C   UNL     1       6.783   0.139  -1.246  1.00  0.00    -0.044 A 
ATOM      7  C   UNL     1       7.478   0.660  -2.343  1.00  0.00     0.008 A 
ATOM      8  C   UNL     1       7.009  -1.168  -0.881  1.00  0.00     0.054 A 
ATOM      9  C   UNL     1       8.365  -0.154  -3.024  1.00  0.00     0.051 A 
ATOM     10  C   UNL     1       7.908  -1.987  -1.572  1.00  0.00     0.166 A 
ATOM     11  C   UNL     1       8.591  -1.475  -2.652  1.00  0.00     0.165 A 
ATOM     12  O   UNL     1       8.301  -3.299  -1.409  1.00  0.00    -0.454 OA
ATOM     13  O   UNL     1       9.399  -2.494  -3.135  1.00  0.00    -0.454 OA
ATOM     14  C   UNL     1       9.313  -3.639  -2.321  1.00  0.00     0.468 C 
ENDBRANCH   5   6
ENDBRANCH   1   5
TORSDOF 3
ENDMDL
MODEL 5
REMARK VINA RESULT:      -6.8      1.260      1.748
REMARK SMILES CC(=O)CCc1ccc2c(c1)OCO2
REMARK SMILES IDX 4 1 2 2 1 3 3 4 5 5 6 6 7 7 11 8 8 9 10 10 9 11 12 12 14 13
REMARK SMILES IDX 13 14
REMARK H PARENT
REMARK Flexibility Score: inf
ROOT
ATOM      1  C   UNL     1       5.328  -0.067   1.977  1.00  0.00     0.080 C 
ENDROOT
BRANCH   1   2
ATOM      2  C   UNL     1       4.449   1.120   1.785  1.00  0.00     0.130 C 
ATOM      3  C   UNL     1       4.743   2.150   0.753  1.00  0.00     0.087 C 
ATOM      4  O   UNL     1       3.455   1.281   2.474  1.00  0.00    -0.300 OA
ENDBRANCH   1   2
BRANCH   1   5
ATOM      5  C   UNL     1       6.793   0.317   1.911  1.00  0.00     0.043 C 
BRANCH   5   6
ATOM      6  C   UNL     1       7.393  -0.039   0.612  1.00  0.00    -0.044 A 
ATOM      7  C   UNL     1       7.893   0.938  -0.256  1.00  0.00     0.008 A 
ATOM      8  C   UNL     1       7.470  -1.360   0.235  1.00  0.00     0.054 A 
ATOM      9  C   UNL     1       8.445   0.545  -1.462  1.00  0.00     0.051 A 
ATOM     10  C   UNL     1       8.029  -1.752  -0.985  1.00  0.00     0.166 A 
ATOM     11  C   UNL     1       8.521  -0.792  -1.840  1.00  0.00     0.165 A 
ATOM     12  O   UNL     1       8.218  -2.982  -1.580  1.00  0.00    -0.454 OA
ATOM     13  O   UNL     1       9.008  -1.458  -2.954  1.00  0.00    -0.454 OA
ATOM     14  C   UNL     1       8.918  -2.853  -2.791  1.00  0.00     0.468 C 
ENDBRANCH   5   6
ENDBRANCH   1   5
TORSDOF 3
ENDMDL
