@<TRIPOS>MOLECULE
/home/cewinharhar/GITHUB/reincatalyze/data/processed/docking_pred/2023-May-31-1438_sub9_nm5_bs15_s42_ex16_mel10_mts1000_k50_ec05_g099_lra9e-4_lrc3e-3/da55d276f49f8aea3f2b333b6115ea57fe53d1b0_ligand_9.pdbqt
 14 15 0 0 0
SMALL
GASTEIGER

@<TRIPOS>ATOM
      1  C          6.3330    1.2540    0.9170 C.3     1  UNL1        0.0800
      2  C          5.6390    0.4160    1.9340 C.2     1  UNL1        0.1300
      3  C          6.2790   -0.7940    2.5170 C.3     1  UNL1        0.0870
      4  O          4.5170    0.7000    2.3210 O.2     1  UNL1       -0.3000
      5  C          5.8260    0.9560   -0.4800 C.3     1  UNL1        0.0430
      6  C          6.7830    0.1390   -1.2460 C.2     1  UNL1       -0.0440
      7  C          7.4780    0.6600   -2.3430 C.2     1  UNL1        0.0080
      8  C          7.0090   -1.1680   -0.8810 C.2     1  UNL1        0.0540
      9  C          8.3650   -0.1540   -3.0240 C.2     1  UNL1        0.0510
     10  C          7.9080   -1.9870   -1.5720 C.2     1  UNL1        0.1660
     11  C          8.5910   -1.4750   -2.6520 C.2     1  UNL1        0.1650
     12  O          8.3010   -3.2990   -1.4090 O.2     1  UNL1       -0.4540
     13  O          9.3990   -2.4940   -3.1350 O.2     1  UNL1       -0.4540
     14  C          9.3130   -3.6390   -2.3210 C.3     1  UNL1        0.4680
@<TRIPOS>BOND
     1    13    11    1
     2    13    14    1
     3     9    11    2
     4     9     7    1
     5    11    10    1
     6     7     6    2
     7    14    12    1
     8    10    12    1
     9    10     8    2
    10     6     8    1
    11     6     5    1
    12     5     1    1
    13     1     2    1
    14     2     4    2
    15     2     3    1
