@<TRIPOS>MOLECULE
/home/cewinharhar/GITHUB/reincatalyze/data/processed/docking_pred/2023-May-31-1438_sub9_nm5_bs15_s42_ex16_mel10_mts1000_k50_ec05_g099_lra9e-4_lrc3e-3/db57195a81496af8cffcd6b4d9524a1fe0637e4f_ligand_9.pdbqt
 14 15 0 0 0
SMALL
GASTEIGER

@<TRIPOS>ATOM
      1  C          6.8090    0.6750    1.3790 C.3     1  UNL1        0.0800
      2  C          5.3990    1.1500    1.4440 C.2     1  UNL1        0.1300
      3  C          4.8670    2.1500    0.4790 C.3     1  UNL1        0.0870
      4  O          4.6350    0.7300    2.2970 O.2     1  UNL1       -0.3000
      5  C          7.4060    0.9090    0.0050 C.3     1  UNL1        0.0430
      6  C          7.7220   -0.3590   -0.6760 C.2     1  UNL1       -0.0440
      7  C          7.7260   -0.4590   -2.0720 C.2     1  UNL1        0.0080
      8  C          8.0250   -1.4770    0.0680 C.2     1  UNL1        0.0540
      9  C          8.0310   -1.6750   -2.6570 C.2     1  UNL1        0.0510
     10  C          8.3330   -2.7030   -0.5280 C.2     1  UNL1        0.1660
     11  C          8.3360   -2.8030   -1.9010 C.2     1  UNL1        0.1650
     12  O          8.6620   -3.9400   -0.0160 O.2     1  UNL1       -0.4540
     13  O          8.6710   -4.1130   -2.2070 O.2     1  UNL1       -0.4540
     14  C          8.9740   -4.8450   -1.0440 C.3     1  UNL1        0.4680
@<TRIPOS>BOND
     1     9     7    1
     2     9    11    2
     3    13    11    1
     4    13    14    1
     5     7     6    2
     6    11    10    1
     7    14    12    1
     8     6     5    1
     9     6     8    1
    10    10    12    1
    11    10     8    2
    12     5     1    1
    13     3     2    1
    14     1     2    1
    15     2     4    2
