@<TRIPOS>MOLECULE
/home/cewinharhar/GITHUB/reincatalyze/data/processed/docking_pred/2023-May-31-1438_sub9_nm5_bs15_s42_ex16_mel10_mts1000_k50_ec05_g099_lra9e-4_lrc3e-3/db57195a81496af8cffcd6b4d9524a1fe0637e4f_ligand_9.pdbqt
 14 15 0 0 0
SMALL
GASTEIGER

@<TRIPOS>ATOM
      1  C          6.3620    1.2090    0.9390 C.3     1  UNL1        0.0800
      2  C          5.6410    0.3780    1.9430 C.2     1  UNL1        0.1300
      3  C          6.2540   -0.8430    2.5320 C.3     1  UNL1        0.0870
      4  O          4.5180    0.6780    2.3140 O.2     1  UNL1       -0.3000
      5  C          5.8580    0.9360   -0.4640 C.3     1  UNL1        0.0430
      6  C          6.8070    0.1130   -1.2360 C.2     1  UNL1       -0.0440
      7  C          7.4870    0.6260   -2.3460 C.2     1  UNL1        0.0080
      8  C          7.0390   -1.1910   -0.8620 C.2     1  UNL1        0.0540
      9  C          8.3660   -0.1930   -3.0310 C.2     1  UNL1        0.0510
     10  C          7.9290   -2.0150   -1.5580 C.2     1  UNL1        0.1660
     11  C          8.5980   -1.5110   -2.6510 C.2     1  UNL1        0.1650
     12  O          8.3250   -3.3240   -1.3880 O.2     1  UNL1       -0.4540
     13  O          9.4000   -2.5330   -3.1350 O.2     1  UNL1       -0.4540
     14  C          9.3270   -3.6710   -2.3100 C.3     1  UNL1        0.4680
@<TRIPOS>BOND
     1    13    11    1
     2    13    14    1
     3     9    11    2
     4     9     7    1
     5    11    10    1
     6     7     6    2
     7    14    12    1
     8    10    12    1
     9    10     8    2
    10     6     8    1
    11     6     5    1
    12     5     1    1
    13     1     2    1
    14     2     4    2
    15     2     3    1
