MODEL 1
REMARK VINA RESULT:      -7.6      0.000      0.000
REMARK SMILES CC(=O)CCc1ccc2c(c1)OCO2
REMARK SMILES IDX 4 1 2 2 1 3 3 4 5 5 6 6 7 7 11 8 8 9 10 10 9 11 12 12 14 13
REMARK SMILES IDX 13 14
REMARK H PARENT
REMARK Flexibility Score: inf
ROOT
ATOM      1  C   UNL     1       5.542   1.920   1.274  1.00  0.00     0.080 C 
ENDROOT
BRANCH   1   2
ATOM      2  C   UNL     1       5.110   0.699   2.010  1.00  0.00     0.130 C 
ATOM      3  C   UNL     1       6.017  -0.466   2.190  1.00  0.00     0.087 C 
ATOM      4  O   UNL     1       3.991   0.619   2.490  1.00  0.00    -0.300 OA
ENDBRANCH   1   2
BRANCH   1   5
ATOM      5  C   UNL     1       5.413   1.732  -0.225  1.00  0.00     0.043 C 
BRANCH   5   6
ATOM      6  C   UNL     1       6.577   1.027  -0.790  1.00  0.00    -0.044 A 
ATOM      7  C   UNL     1       7.886   1.453  -0.538  1.00  0.00     0.008 A 
ATOM      8  C   UNL     1       6.384  -0.081  -1.583  1.00  0.00     0.054 A 
ATOM      9  C   UNL     1       8.939   0.751  -1.094  1.00  0.00     0.051 A 
ATOM     10  C   UNL     1       7.452  -0.788  -2.143  1.00  0.00     0.166 A 
ATOM     11  C   UNL     1       8.740  -0.368  -1.896  1.00  0.00     0.165 A 
ATOM     12  O   UNL     1       7.521  -1.901  -2.953  1.00  0.00    -0.454 OA
ATOM     13  O   UNL     1       9.582  -1.243  -2.567  1.00  0.00    -0.454 OA
ATOM     14  C   UNL     1       8.854  -2.283  -3.175  1.00  0.00     0.468 C 
ENDBRANCH   5   6
ENDBRANCH   1   5
TORSDOF 3
ENDMDL
MODEL 2
REMARK VINA RESULT:      -7.4      1.835      2.286
REMARK SMILES CC(=O)CCc1ccc2c(c1)OCO2
REMARK SMILES IDX 4 1 2 2 1 3 3 4 5 5 6 6 7 7 11 8 8 9 10 10 9 11 12 12 14 13
REMARK SMILES IDX 13 14
REMARK H PARENT
REMARK Flexibility Score: inf
ROOT
ATOM      1  C   UNL     1       5.743   1.486  -0.308  1.00  0.00     0.080 C 
ENDROOT
BRANCH   1   2
ATOM      2  C   UNL     1       5.108   1.319   1.029  1.00  0.00     0.130 C 
ATOM      3  C   UNL     1       5.473   0.195   1.933  1.00  0.00     0.087 C 
ATOM      4  O   UNL     1       4.263   2.107   1.425  1.00  0.00    -0.300 OA
ENDBRANCH   1   2
BRANCH   1   5
ATOM      5  C   UNL     1       7.235   1.229  -0.244  1.00  0.00     0.043 C 
BRANCH   5   6
ATOM      6  C   UNL     1       7.597  -0.050  -0.882  1.00  0.00    -0.044 A 
ATOM      7  C   UNL     1       7.658  -0.182  -2.274  1.00  0.00     0.008 A 
ATOM      8  C   UNL     1       7.887  -1.145  -0.101  1.00  0.00     0.054 A 
ATOM      9  C   UNL     1       8.004  -1.406  -2.817  1.00  0.00     0.051 A 
ATOM     10  C   UNL     1       8.237  -2.380  -0.654  1.00  0.00     0.166 A 
ATOM     11  C   UNL     1       8.296  -2.512  -2.024  1.00  0.00     0.165 A 
ATOM     12  O   UNL     1       8.564  -3.599  -0.100  1.00  0.00    -0.454 OA
ATOM     13  O   UNL     1       8.662  -3.823  -2.285  1.00  0.00    -0.454 OA
ATOM     14  C   UNL     1       8.931  -4.522  -1.093  1.00  0.00     0.468 C 
ENDBRANCH   5   6
ENDBRANCH   1   5
TORSDOF 3
ENDMDL
MODEL 3
REMARK VINA RESULT:      -7.2      2.048      2.612
REMARK SMILES CC(=O)CCc1ccc2c(c1)OCO2
REMARK SMILES IDX 4 1 2 2 1 3 3 4 5 5 6 6 7 7 11 8 8 9 10 10 9 11 12 12 14 13
REMARK SMILES IDX 13 14
REMARK H PARENT
REMARK Flexibility Score: inf
ROOT
ATOM      1  C   UNL     1       5.440  -0.035   2.000  1.00  0.00     0.080 C 
ENDROOT
BRANCH   1   2
ATOM      2  C   UNL     1       4.577   1.152   1.747  1.00  0.00     0.130 C 
ATOM      3  C   UNL     1       4.890   2.130   0.671  1.00  0.00     0.087 C 
ATOM      4  O   UNL     1       3.580   1.357   2.421  1.00  0.00    -0.300 OA
ENDBRANCH   1   2
BRANCH   1   5
ATOM      5  C   UNL     1       6.869   0.221   1.563  1.00  0.00     0.043 C 
BRANCH   5   6
ATOM      6  C   UNL     1       7.290  -0.711   0.501  1.00  0.00    -0.044 A 
ATOM      7  C   UNL     1       7.159  -0.387  -0.854  1.00  0.00     0.008 A 
ATOM      8  C   UNL     1       7.830  -1.931   0.840  1.00  0.00     0.054 A 
ATOM      9  C   UNL     1       7.572  -1.301  -1.806  1.00  0.00     0.051 A 
ATOM     10  C   UNL     1       8.247  -2.851  -0.127  1.00  0.00     0.166 A 
ATOM     11  C   UNL     1       8.117  -2.534  -1.460  1.00  0.00     0.165 A 
ATOM     12  O   UNL     1       8.805  -4.110  -0.047  1.00  0.00    -0.454 OA
ATOM     13  O   UNL     1       8.604  -3.614  -2.179  1.00  0.00    -0.454 OA
ATOM     14  C   UNL     1       9.133  -4.598  -1.323  1.00  0.00     0.468 C 
ENDBRANCH   5   6
ENDBRANCH   1   5
TORSDOF 3
ENDMDL
MODEL 4
REMARK VINA RESULT:      -7.1      1.248      1.453
REMARK SMILES CC(=O)CCc1ccc2c(c1)OCO2
REMARK SMILES IDX 4 1 2 2 1 3 3 4 5 5 6 6 7 7 11 8 8 9 10 10 9 11 12 12 14 13
REMARK SMILES IDX 13 14
REMARK H PARENT
REMARK Flexibility Score: inf
ROOT
ATOM      1  C   UNL     1       6.362   1.209   0.939  1.00  0.00     0.080 C 
ENDROOT
BRANCH   1   2
ATOM      2  C   UNL     1       5.641   0.378   1.943  1.00  0.00     0.130 C 
ATOM      3  C   UNL     1       6.254  -0.843   2.532  1.00  0.00     0.087 C 
ATOM      4  O   UNL     1       4.518   0.678   2.314  1.00  0.00    -0.300 OA
ENDBRANCH   1   2
BRANCH   1   5
ATOM      5  C   UNL     1       5.858   0.936  -0.464  1.00  0.00     0.043 C 
BRANCH   5   6
ATOM      6  C   UNL     1       6.807   0.113  -1.236  1.00  0.00    -0.044 A 
ATOM      7  C   UNL     1       7.487   0.626  -2.346  1.00  0.00     0.008 A 
ATOM      8  C   UNL     1       7.039  -1.191  -0.862  1.00  0.00     0.054 A 
ATOM      9  C   UNL     1       8.366  -0.193  -3.031  1.00  0.00     0.051 A 
ATOM     10  C   UNL     1       7.929  -2.015  -1.558  1.00  0.00     0.166 A 
ATOM     11  C   UNL     1       8.598  -1.511  -2.651  1.00  0.00     0.165 A 
ATOM     12  O   UNL     1       8.325  -3.324  -1.388  1.00  0.00    -0.454 OA
ATOM     13  O   UNL     1       9.400  -2.533  -3.135  1.00  0.00    -0.454 OA
ATOM     14  C   UNL     1       9.327  -3.671  -2.310  1.00  0.00     0.468 C 
ENDBRANCH   5   6
ENDBRANCH   1   5
TORSDOF 3
ENDMDL
MODEL 5
REMARK VINA RESULT:      -7.1      2.003      2.583
REMARK SMILES CC(=O)CCc1ccc2c(c1)OCO2
REMARK SMILES IDX 4 1 2 2 1 3 3 4 5 5 6 6 7 7 11 8 8 9 10 10 9 11 12 12 14 13
REMARK SMILES IDX 13 14
REMARK H PARENT
REMARK Flexibility Score: inf
ROOT
ATOM      1  C   UNL     1       6.809   0.675   1.379  1.00  0.00     0.080 C 
ENDROOT
BRANCH   1   2
ATOM      2  C   UNL     1       5.399   1.150   1.444  1.00  0.00     0.130 C 
ATOM      3  C   UNL     1       4.867   2.150   0.479  1.00  0.00     0.087 C 
ATOM      4  O   UNL     1       4.635   0.730   2.297  1.00  0.00    -0.300 OA
ENDBRANCH   1   2
BRANCH   1   5
ATOM      5  C   UNL     1       7.406   0.909   0.005  1.00  0.00     0.043 C 
BRANCH   5   6
ATOM      6  C   UNL     1       7.722  -0.359  -0.676  1.00  0.00    -0.044 A 
ATOM      7  C   UNL     1       7.726  -0.459  -2.072  1.00  0.00     0.008 A 
ATOM      8  C   UNL     1       8.025  -1.477   0.068  1.00  0.00     0.054 A 
ATOM      9  C   UNL     1       8.031  -1.675  -2.657  1.00  0.00     0.051 A 
ATOM     10  C   UNL     1       8.333  -2.703  -0.528  1.00  0.00     0.166 A 
ATOM     11  C   UNL     1       8.336  -2.803  -1.901  1.00  0.00     0.165 A 
ATOM     12  O   UNL     1       8.662  -3.940  -0.016  1.00  0.00    -0.454 OA
ATOM     13  O   UNL     1       8.671  -4.113  -2.207  1.00  0.00    -0.454 OA
ATOM     14  C   UNL     1       8.974  -4.845  -1.044  1.00  0.00     0.468 C 
ENDBRANCH   5   6
ENDBRANCH   1   5
TORSDOF 3
ENDMDL
