@<TRIPOS>MOLECULE
/home/cewinharhar/GITHUB/reincatalyze/data/processed/docking_pred/2023-May-31-1438_sub9_nm5_bs15_s42_ex16_mel10_mts1000_k50_ec05_g099_lra9e-4_lrc3e-3/db57195a81496af8cffcd6b4d9524a1fe0637e4f_ligand_9.pdbqt
 14 15 0 0 0
SMALL
GASTEIGER

@<TRIPOS>ATOM
      1  C          5.5420    1.9200    1.2740 C.3     1  UNL1        0.0800
      2  C          5.1100    0.6990    2.0100 C.2     1  UNL1        0.1300
      3  C          6.0170   -0.4660    2.1900 C.3     1  UNL1        0.0870
      4  O          3.9910    0.6190    2.4900 O.2     1  UNL1       -0.3000
      5  C          5.4130    1.7320   -0.2250 C.3     1  UNL1        0.0430
      6  C          6.5770    1.0270   -0.7900 C.2     1  UNL1       -0.0440
      7  C          7.8860    1.4530   -0.5380 C.2     1  UNL1        0.0080
      8  C          6.3840   -0.0810   -1.5830 C.2     1  UNL1        0.0540
      9  C          8.9390    0.7510   -1.0940 C.2     1  UNL1        0.0510
     10  C          7.4520   -0.7880   -2.1430 C.2     1  UNL1        0.1660
     11  C          8.7400   -0.3680   -1.8960 C.2     1  UNL1        0.1650
     12  O          7.5210   -1.9010   -2.9530 O.2     1  UNL1       -0.4540
     13  O          9.5820   -1.2430   -2.5670 O.2     1  UNL1       -0.4540
     14  C          8.8540   -2.2830   -3.1750 C.3     1  UNL1        0.4680
@<TRIPOS>BOND
     1    14    12    1
     2    14    13    1
     3    12    10    1
     4    13    11    1
     5    10    11    2
     6    10     8    1
     7    11     9    1
     8     8     6    2
     9     9     7    2
    10     6     7    1
    11     6     5    1
    12     5     1    1
    13     1     2    1
    14     2     3    1
    15     2     4    2
