@<TRIPOS>MOLECULE
/home/cewinharhar/GITHUB/reincatalyze/data/processed/docking_pred/2023-May-31-1438_sub9_nm5_bs15_s42_ex16_mel10_mts1000_k50_ec05_g099_lra9e-4_lrc3e-3/dba3942d2f0306a5a819952336ad453bb769fd78_ligand_9.pdbqt
 14 15 0 0 0
SMALL
GASTEIGER

@<TRIPOS>ATOM
      1  C          5.7990    1.4480   -0.3960 C.3     1  UNL1        0.0800
      2  C          5.1770    1.3510    0.9540 C.2     1  UNL1        0.1300
      3  C          5.5630    0.2840    1.9160 C.3     1  UNL1        0.0870
      4  O          4.3270    2.1500    1.3120 O.2     1  UNL1       -0.3000
      5  C          7.2890    1.1760   -0.3370 C.3     1  UNL1        0.0430
      6  C          7.6310   -0.1270   -0.9330 C.2     1  UNL1       -0.0440
      7  C          7.6530   -0.3160   -2.3200 C.2     1  UNL1        0.0080
      8  C          7.9400   -1.1910   -0.1170 C.2     1  UNL1        0.0540
      9  C          7.9820   -1.5610   -2.8230 C.2     1  UNL1        0.0510
     10  C          8.2720   -2.4480   -0.6300 C.2     1  UNL1        0.1660
     11  C          8.2930   -2.6350   -1.9940 C.2     1  UNL1        0.1650
     12  O          8.6120   -3.6460   -0.0370 O.2     1  UNL1       -0.4540
     13  O          8.6500   -3.9560   -2.2130 O.2     1  UNL1       -0.4540
     14  C          8.9500   -4.6090   -1.0020 C.3     1  UNL1        0.4680
@<TRIPOS>BOND
     1     9     7    1
     2     9    11    2
     3     7     6    2
     4    13    11    1
     5    13    14    1
     6    11    10    1
     7    14    12    1
     8     6     5    1
     9     6     8    1
    10    10     8    2
    11    10    12    1
    12     1     5    1
    13     1     2    1
    14     2     4    2
    15     2     3    1
