@<TRIPOS>MOLECULE
/home/cewinharhar/GITHUB/reincatalyze/data/processed/docking_pred/2023-May-31-1438_sub9_nm5_bs15_s42_ex16_mel10_mts1000_k50_ec05_g099_lra9e-4_lrc3e-3/dba3942d2f0306a5a819952336ad453bb769fd78_ligand_9.pdbqt
 14 15 0 0 0
SMALL
GASTEIGER

@<TRIPOS>ATOM
      1  C          5.5430    1.9250    1.2690 C.3     1  UNL1        0.0800
      2  C          5.1110    0.7080    2.0110 C.2     1  UNL1        0.1300
      3  C          6.0170   -0.4580    2.1930 C.3     1  UNL1        0.0870
      4  O          3.9930    0.6320    2.4930 O.2     1  UNL1       -0.3000
      5  C          5.4120    1.7320   -0.2290 C.3     1  UNL1        0.0430
      6  C          6.5780    1.0300   -0.7940 C.2     1  UNL1       -0.0440
      7  C          7.8850    1.4600   -0.5420 C.2     1  UNL1        0.0080
      8  C          6.3880   -0.0780   -1.5880 C.2     1  UNL1        0.0540
      9  C          8.9410    0.7600   -1.0980 C.2     1  UNL1        0.0510
     10  C          7.4580   -0.7820   -2.1480 C.2     1  UNL1        0.1660
     11  C          8.7450   -0.3590   -1.9010 C.2     1  UNL1        0.1650
     12  O          7.5290   -1.8950   -2.9580 O.2     1  UNL1       -0.4540
     13  O          9.5890   -1.2310   -2.5720 O.2     1  UNL1       -0.4540
     14  C          8.8640   -2.2730   -3.1800 C.3     1  UNL1        0.4680
@<TRIPOS>BOND
     1    14    12    1
     2    14    13    1
     3    12    10    1
     4    13    11    1
     5    10    11    2
     6    10     8    1
     7    11     9    1
     8     8     6    2
     9     9     7    2
    10     6     7    1
    11     6     5    1
    12     5     1    1
    13     1     2    1
    14     2     3    1
    15     2     4    2
