@<TRIPOS>MOLECULE
/home/cewinharhar/GITHUB/reincatalyze/data/processed/docking_pred/2023-May-31-1438_sub9_nm5_bs15_s42_ex16_mel10_mts1000_k50_ec05_g099_lra9e-4_lrc3e-3/dba3942d2f0306a5a819952336ad453bb769fd78_ligand_9.pdbqt
 14 15 0 0 0
SMALL
GASTEIGER

@<TRIPOS>ATOM
      1  C          6.8030    0.7000    1.3060 C.3     1  UNL1        0.0800
      2  C          5.3710    1.0460    1.5230 C.2     1  UNL1        0.1300
      3  C          4.7120    2.1500    0.7750 C.3     1  UNL1        0.0870
      4  O          4.6920    0.4280    2.3270 O.2     1  UNL1       -0.3000
      5  C          7.2040    0.9000   -0.1430 C.3     1  UNL1        0.0430
      6  C          7.6030   -0.3680   -0.7790 C.2     1  UNL1       -0.0440
      7  C          7.6540   -0.5060   -2.1710 C.2     1  UNL1        0.0080
      8  C          7.9400   -1.4480    0.0050 C.2     1  UNL1        0.0540
      9  C          8.0360   -1.7200   -2.7120 C.2     1  UNL1        0.0510
     10  C          8.3270   -2.6730   -0.5470 C.2     1  UNL1        0.1660
     11  C          8.3750   -2.8100   -1.9160 C.2     1  UNL1        0.1650
     12  O          8.7020   -3.8780    0.0090 O.2     1  UNL1       -0.4540
     13  O          8.7840   -4.1090   -2.1750 O.2     1  UNL1       -0.4540
     14  C          9.0900   -4.7930   -0.9830 C.3     1  UNL1        0.4680
@<TRIPOS>BOND
     1     9     7    1
     2     9    11    2
     3    13    11    1
     4    13    14    1
     5     7     6    2
     6    11    10    1
     7    14    12    1
     8     6     5    1
     9     6     8    1
    10    10     8    2
    11    10    12    1
    12     5     1    1
    13     3     2    1
    14     1     2    1
    15     2     4    2
