MODEL 1
REMARK VINA RESULT:      -7.6      0.000      0.000
REMARK SMILES CC(=O)CCc1ccc2c(c1)OCO2
REMARK SMILES IDX 4 1 2 2 1 3 3 4 5 5 6 6 7 7 11 8 8 9 10 10 9 11 12 12 14 13
REMARK SMILES IDX 13 14
REMARK H PARENT
REMARK Flexibility Score: inf
ROOT
ATOM      1  C   UNL     1       5.543   1.925   1.269  1.00  0.00     0.080 C 
ENDROOT
BRANCH   1   2
ATOM      2  C   UNL     1       5.111   0.708   2.011  1.00  0.00     0.130 C 
ATOM      3  C   UNL     1       6.017  -0.458   2.193  1.00  0.00     0.087 C 
ATOM      4  O   UNL     1       3.993   0.632   2.493  1.00  0.00    -0.300 OA
ENDBRANCH   1   2
BRANCH   1   5
ATOM      5  C   UNL     1       5.412   1.732  -0.229  1.00  0.00     0.043 C 
BRANCH   5   6
ATOM      6  C   UNL     1       6.578   1.030  -0.794  1.00  0.00    -0.044 A 
ATOM      7  C   UNL     1       7.885   1.460  -0.542  1.00  0.00     0.008 A 
ATOM      8  C   UNL     1       6.388  -0.078  -1.588  1.00  0.00     0.054 A 
ATOM      9  C   UNL     1       8.941   0.760  -1.098  1.00  0.00     0.051 A 
ATOM     10  C   UNL     1       7.458  -0.782  -2.148  1.00  0.00     0.166 A 
ATOM     11  C   UNL     1       8.745  -0.359  -1.901  1.00  0.00     0.165 A 
ATOM     12  O   UNL     1       7.529  -1.895  -2.958  1.00  0.00    -0.454 OA
ATOM     13  O   UNL     1       9.589  -1.231  -2.572  1.00  0.00    -0.454 OA
ATOM     14  C   UNL     1       8.864  -2.273  -3.180  1.00  0.00     0.468 C 
ENDBRANCH   5   6
ENDBRANCH   1   5
TORSDOF 3
ENDMDL
MODEL 2
REMARK VINA RESULT:      -7.4      1.894      2.384
REMARK SMILES CC(=O)CCc1ccc2c(c1)OCO2
REMARK SMILES IDX 4 1 2 2 1 3 3 4 5 5 6 6 7 7 11 8 8 9 10 10 9 11 12 12 14 13
REMARK SMILES IDX 13 14
REMARK H PARENT
REMARK Flexibility Score: inf
ROOT
ATOM      1  C   UNL     1       5.799   1.448  -0.396  1.00  0.00     0.080 C 
ENDROOT
BRANCH   1   2
ATOM      2  C   UNL     1       5.177   1.351   0.954  1.00  0.00     0.130 C 
ATOM      3  C   UNL     1       5.563   0.284   1.916  1.00  0.00     0.087 C 
ATOM      4  O   UNL     1       4.327   2.150   1.312  1.00  0.00    -0.300 OA
ENDBRANCH   1   2
BRANCH   1   5
ATOM      5  C   UNL     1       7.289   1.176  -0.337  1.00  0.00     0.043 C 
BRANCH   5   6
ATOM      6  C   UNL     1       7.631  -0.127  -0.933  1.00  0.00    -0.044 A 
ATOM      7  C   UNL     1       7.653  -0.316  -2.320  1.00  0.00     0.008 A 
ATOM      8  C   UNL     1       7.940  -1.191  -0.117  1.00  0.00     0.054 A 
ATOM      9  C   UNL     1       7.982  -1.561  -2.823  1.00  0.00     0.051 A 
ATOM     10  C   UNL     1       8.272  -2.448  -0.630  1.00  0.00     0.166 A 
ATOM     11  C   UNL     1       8.293  -2.635  -1.994  1.00  0.00     0.165 A 
ATOM     12  O   UNL     1       8.612  -3.646  -0.037  1.00  0.00    -0.454 OA
ATOM     13  O   UNL     1       8.650  -3.956  -2.213  1.00  0.00    -0.454 OA
ATOM     14  C   UNL     1       8.950  -4.609  -1.002  1.00  0.00     0.468 C 
ENDBRANCH   5   6
ENDBRANCH   1   5
TORSDOF 3
ENDMDL
MODEL 3
REMARK VINA RESULT:      -7.2      2.048      2.626
REMARK SMILES CC(=O)CCc1ccc2c(c1)OCO2
REMARK SMILES IDX 4 1 2 2 1 3 3 4 5 5 6 6 7 7 11 8 8 9 10 10 9 11 12 12 14 13
REMARK SMILES IDX 13 14
REMARK H PARENT
REMARK Flexibility Score: inf
ROOT
ATOM      1  C   UNL     1       5.395  -0.072   2.022  1.00  0.00     0.080 C 
ENDROOT
BRANCH   1   2
ATOM      2  C   UNL     1       4.546   1.125   1.771  1.00  0.00     0.130 C 
ATOM      3  C   UNL     1       4.895   2.124   0.725  1.00  0.00     0.087 C 
ATOM      4  O   UNL     1       3.533   1.323   2.421  1.00  0.00    -0.300 OA
ENDBRANCH   1   2
BRANCH   1   5
ATOM      5  C   UNL     1       6.834   0.178   1.615  1.00  0.00     0.043 C 
BRANCH   5   6
ATOM      6  C   UNL     1       7.266  -0.738   0.544  1.00  0.00    -0.044 A 
ATOM      7  C   UNL     1       7.140  -0.397  -0.807  1.00  0.00     0.008 A 
ATOM      8  C   UNL     1       7.810  -1.960   0.870  1.00  0.00     0.054 A 
ATOM      9  C   UNL     1       7.563  -1.296  -1.769  1.00  0.00     0.051 A 
ATOM     10  C   UNL     1       8.237  -2.865  -0.106  1.00  0.00     0.166 A 
ATOM     11  C   UNL     1       8.112  -2.531  -1.436  1.00  0.00     0.165 A 
ATOM     12  O   UNL     1       8.801  -4.122  -0.040  1.00  0.00    -0.454 OA
ATOM     13  O   UNL     1       8.608  -3.600  -2.166  1.00  0.00    -0.454 OA
ATOM     14  C   UNL     1       9.138  -4.591  -1.320  1.00  0.00     0.468 C 
ENDBRANCH   5   6
ENDBRANCH   1   5
TORSDOF 3
ENDMDL
MODEL 4
REMARK VINA RESULT:      -7.0      1.251      1.473
REMARK SMILES CC(=O)CCc1ccc2c(c1)OCO2
REMARK SMILES IDX 4 1 2 2 1 3 3 4 5 5 6 6 7 7 11 8 8 9 10 10 9 11 12 12 14 13
REMARK SMILES IDX 13 14
REMARK H PARENT
REMARK Flexibility Score: inf
ROOT
ATOM      1  C   UNL     1       6.380   1.199   0.881  1.00  0.00     0.080 C 
ENDROOT
BRANCH   1   2
ATOM      2  C   UNL     1       5.662   0.394   1.909  1.00  0.00     0.130 C 
ATOM      3  C   UNL     1       6.260  -0.836   2.494  1.00  0.00     0.087 C 
ATOM      4  O   UNL     1       4.555   0.723   2.302  1.00  0.00    -0.300 OA
ENDBRANCH   1   2
BRANCH   1   5
ATOM      5  C   UNL     1       5.875   0.889  -0.513  1.00  0.00     0.043 C 
BRANCH   5   6
ATOM      6  C   UNL     1       6.837   0.071  -1.274  1.00  0.00    -0.044 A 
ATOM      7  C   UNL     1       7.553   0.598  -2.355  1.00  0.00     0.008 A 
ATOM      8  C   UNL     1       7.046  -1.242  -0.920  1.00  0.00     0.054 A 
ATOM      9  C   UNL     1       8.444  -0.216  -3.031  1.00  0.00     0.051 A 
ATOM     10  C   UNL     1       7.948  -2.061  -1.606  1.00  0.00     0.166 A 
ATOM     11  C   UNL     1       8.652  -1.544  -2.670  1.00  0.00     0.165 A 
ATOM     12  O   UNL     1       8.326  -3.378  -1.452  1.00  0.00    -0.454 OA
ATOM     13  O   UNL     1       9.458  -2.564  -3.152  1.00  0.00    -0.454 OA
ATOM     14  C   UNL     1       9.350  -3.717  -2.352  1.00  0.00     0.468 C 
ENDBRANCH   5   6
ENDBRANCH   1   5
TORSDOF 3
ENDMDL
MODEL 5
REMARK VINA RESULT:      -6.9      1.994      2.563
REMARK SMILES CC(=O)CCc1ccc2c(c1)OCO2
REMARK SMILES IDX 4 1 2 2 1 3 3 4 5 5 6 6 7 7 11 8 8 9 10 10 9 11 12 12 14 13
REMARK SMILES IDX 13 14
REMARK H PARENT
REMARK Flexibility Score: inf
ROOT
ATOM      1  C   UNL     1       6.803   0.700   1.306  1.00  0.00     0.080 C 
ENDROOT
BRANCH   1   2
ATOM      2  C   UNL     1       5.371   1.046   1.523  1.00  0.00     0.130 C 
ATOM      3  C   UNL     1       4.712   2.150   0.775  1.00  0.00     0.087 C 
ATOM      4  O   UNL     1       4.692   0.428   2.327  1.00  0.00    -0.300 OA
ENDBRANCH   1   2
BRANCH   1   5
ATOM      5  C   UNL     1       7.204   0.900  -0.143  1.00  0.00     0.043 C 
BRANCH   5   6
ATOM      6  C   UNL     1       7.603  -0.368  -0.779  1.00  0.00    -0.044 A 
ATOM      7  C   UNL     1       7.654  -0.506  -2.171  1.00  0.00     0.008 A 
ATOM      8  C   UNL     1       7.940  -1.448   0.005  1.00  0.00     0.054 A 
ATOM      9  C   UNL     1       8.036  -1.720  -2.712  1.00  0.00     0.051 A 
ATOM     10  C   UNL     1       8.327  -2.673  -0.547  1.00  0.00     0.166 A 
ATOM     11  C   UNL     1       8.375  -2.810  -1.916  1.00  0.00     0.165 A 
ATOM     12  O   UNL     1       8.702  -3.878   0.009  1.00  0.00    -0.454 OA
ATOM     13  O   UNL     1       8.784  -4.109  -2.175  1.00  0.00    -0.454 OA
ATOM     14  C   UNL     1       9.090  -4.793  -0.983  1.00  0.00     0.468 C 
ENDBRANCH   5   6
ENDBRANCH   1   5
TORSDOF 3
ENDMDL
