@<TRIPOS>MOLECULE
/home/cewinharhar/GITHUB/reincatalyze/data/processed/docking_pred/2023-May-31-1438_sub9_nm5_bs15_s42_ex16_mel10_mts1000_k50_ec05_g099_lra9e-4_lrc3e-3/dcca543849eb83a4cf97fda16a0578d2b97a91da_ligand_9.pdbqt
 14 15 0 0 0
SMALL
GASTEIGER

@<TRIPOS>ATOM
      1  C          5.5270    1.9220    1.2630 C.3     1  UNL1        0.0800
      2  C          5.0900    0.7060    2.0050 C.2     1  UNL1        0.1300
      3  C          5.9900   -0.4650    2.1820 C.3     1  UNL1        0.0870
      4  O          3.9730    0.6360    2.4910 O.2     1  UNL1       -0.3000
      5  C          5.4000    1.7280   -0.2350 C.3     1  UNL1        0.0430
      6  C          6.5680    1.0250   -0.7960 C.2     1  UNL1       -0.0440
      7  C          7.8750    1.4540   -0.5380 C.2     1  UNL1        0.0080
      8  C          6.3800   -0.0830   -1.5910 C.2     1  UNL1        0.0540
      9  C          8.9320    0.7530   -1.0910 C.2     1  UNL1        0.0510
     10  C          7.4520   -0.7880   -2.1470 C.2     1  UNL1        0.1660
     11  C          8.7380   -0.3660   -1.8950 C.2     1  UNL1        0.1650
     12  O          7.5250   -1.9000   -2.9570 O.2     1  UNL1       -0.4540
     13  O          9.5840   -1.2380   -2.5620 O.2     1  UNL1       -0.4540
     14  C          8.8600   -2.2790   -3.1740 C.3     1  UNL1        0.4680
@<TRIPOS>BOND
     1    14    12    1
     2    14    13    1
     3    12    10    1
     4    13    11    1
     5    10    11    2
     6    10     8    1
     7    11     9    1
     8     8     6    2
     9     9     7    2
    10     6     7    1
    11     6     5    1
    12     5     1    1
    13     1     2    1
    14     2     3    1
    15     2     4    2
