@<TRIPOS>MOLECULE
/home/cewinharhar/GITHUB/reincatalyze/data/processed/docking_pred/2023-May-31-1438_sub9_nm5_bs15_s42_ex16_mel10_mts1000_k50_ec05_g099_lra9e-4_lrc3e-3/dcca543849eb83a4cf97fda16a0578d2b97a91da_ligand_9.pdbqt
 14 15 0 0 0
SMALL
GASTEIGER

@<TRIPOS>ATOM
      1  C          6.8060    0.8110    1.4120 C.3     1  UNL1        0.0800
      2  C          5.3640    1.1820    1.4640 C.2     1  UNL1        0.1300
      3  C          4.7710    2.1460    0.5000 C.3     1  UNL1        0.0870
      4  O          4.6240    0.7010    2.3070 O.2     1  UNL1       -0.3000
      5  C          7.3840    1.0430    0.0300 C.3     1  UNL1        0.0430
      6  C          7.6990   -0.2250   -0.6510 C.2     1  UNL1       -0.0440
      7  C          7.6930   -0.3290   -2.0470 C.2     1  UNL1        0.0080
      8  C          8.0110   -1.3400    0.0930 C.2     1  UNL1        0.0540
      9  C          7.9970   -1.5450   -2.6310 C.2     1  UNL1        0.0510
     10  C          8.3190   -2.5670   -0.5020 C.2     1  UNL1        0.1660
     11  C          8.3110   -2.6700   -1.8760 C.2     1  UNL1        0.1650
     12  O          8.6550   -3.8020    0.0100 O.2     1  UNL1       -0.4540
     13  O          8.6480   -3.9800   -2.1810 O.2     1  UNL1       -0.4540
     14  C          8.9630   -4.7080   -1.0180 C.3     1  UNL1        0.4680
@<TRIPOS>BOND
     1     9     7    1
     2     9    11    2
     3    13    11    1
     4    13    14    1
     5     7     6    2
     6    11    10    1
     7    14    12    1
     8     6     5    1
     9     6     8    1
    10    10    12    1
    11    10     8    2
    12     5     1    1
    13     3     2    1
    14     1     2    1
    15     2     4    2
