@<TRIPOS>MOLECULE
/home/cewinharhar/GITHUB/reincatalyze/data/processed/docking_pred/2023-May-31-1438_sub9_nm5_bs15_s42_ex16_mel10_mts1000_k50_ec05_g099_lra9e-4_lrc3e-3/dcca543849eb83a4cf97fda16a0578d2b97a91da_ligand_9.pdbqt
 14 15 0 0 0
SMALL
GASTEIGER

@<TRIPOS>ATOM
      1  C          5.7020    1.3080   -0.2890 C.3     1  UNL1        0.0800
      2  C          5.1050    1.2520    1.0750 C.2     1  UNL1        0.1300
      3  C          5.3580    0.1090    1.9920 C.3     1  UNL1        0.0870
      4  O          4.3840    2.1500    1.4800 O.2     1  UNL1       -0.3000
      5  C          7.2010    1.0860   -0.2420 C.3     1  UNL1        0.0430
      6  C          7.5820   -0.1990   -0.8560 C.2     1  UNL1       -0.0440
      7  C          7.6630   -0.3530   -2.2450 C.2     1  UNL1        0.0080
      8  C          7.8710   -1.2790   -0.0530 C.2     1  UNL1        0.0540
      9  C          8.0270   -1.5820   -2.7640 C.2     1  UNL1        0.0510
     10  C          8.2390   -2.5200   -0.5830 C.2     1  UNL1        0.1660
     11  C          8.3170   -2.6720   -1.9490 C.2     1  UNL1        0.1650
     12  O          8.5690   -3.7280   -0.0060 O.2     1  UNL1       -0.4540
     13  O          8.6980   -3.9840   -2.1850 O.2     1  UNL1       -0.4540
     14  C          8.9570   -4.6630   -0.9790 C.3     1  UNL1        0.4680
@<TRIPOS>BOND
     1     9     7    1
     2     9    11    2
     3     7     6    2
     4    13    11    1
     5    13    14    1
     6    11    10    1
     7    14    12    1
     8     6     5    1
     9     6     8    1
    10    10     8    2
    11    10    12    1
    12     1     5    1
    13     1     2    1
    14     2     4    2
    15     2     3    1
