@<TRIPOS>MOLECULE
/home/cewinharhar/GITHUB/reincatalyze/data/processed/docking_pred/2023-May-31-1438_sub9_nm5_bs15_s42_ex16_mel10_mts1000_k50_ec05_g099_lra9e-4_lrc3e-3/dcca543849eb83a4cf97fda16a0578d2b97a91da_ligand_9.pdbqt
 14 15 0 0 0
SMALL
GASTEIGER

@<TRIPOS>ATOM
      1  C          5.4290   -0.0560    2.0310 C.3     1  UNL1        0.0800
      2  C          4.5780    1.1380    1.7700 C.2     1  UNL1        0.1300
      3  C          4.9060    2.1120    0.6940 C.3     1  UNL1        0.0870
      4  O          3.5790    1.3540    2.4370 O.2     1  UNL1       -0.3000
      5  C          6.8640    0.1880    1.6070 C.3     1  UNL1        0.0430
      6  C          7.2820   -0.7370    0.5380 C.2     1  UNL1       -0.0440
      7  C          7.1420   -0.4070   -0.8140 C.2     1  UNL1        0.0080
      8  C          7.8280   -1.9570    0.8680 C.2     1  UNL1        0.0540
      9  C          7.5530   -1.3150   -1.7730 C.2     1  UNL1        0.0510
     10  C          8.2430   -2.8710   -0.1050 C.2     1  UNL1        0.1660
     11  C          8.1040   -2.5470   -1.4370 C.2     1  UNL1        0.1650
     12  O          8.8060   -4.1280   -0.0350 O.2     1  UNL1       -0.4540
     13  O          8.5900   -3.6230   -2.1640 O.2     1  UNL1       -0.4540
     14  C          9.1280   -4.6080   -1.3150 C.3     1  UNL1        0.4680
@<TRIPOS>BOND
     1    13    11    1
     2    13    14    1
     3     9    11    2
     4     9     7    1
     5    11    10    1
     6    14    12    1
     7     7     6    2
     8    10    12    1
     9    10     8    2
    10     6     8    1
    11     6     5    1
    12     3     2    1
    13     5     1    1
    14     2     1    1
    15     2     4    2
