@<TRIPOS>MOLECULE
/home/cewinharhar/GITHUB/reincatalyze/data/processed/docking_pred/2023-May-31-1438_sub9_nm5_bs15_s42_ex16_mel10_mts1000_k50_ec05_g099_lra9e-4_lrc3e-3/dd626561b0241c753f5aa586a778cbbb50e2da15_ligand_9.pdbqt
 14 15 0 0 0
SMALL
GASTEIGER

@<TRIPOS>ATOM
      1  C          9.4290   -4.3630    0.4660 C.3     1  UNL1        0.0800
      2  C          9.1050   -4.9290   -0.8730 C.2     1  UNL1        0.1300
      3  C          8.7740   -6.3680   -1.0530 C.3     1  UNL1        0.0870
      4  O          9.1040   -4.2230   -1.8680 O.2     1  UNL1       -0.3000
      5  C          8.1820   -4.2100    1.3150 C.3     1  UNL1        0.0430
      6  C          7.8230   -2.7940    1.5090 C.2     1  UNL1       -0.0440
      7  C          8.7930   -1.7850    1.5060 C.2     1  UNL1        0.0080
      8  C          6.5060   -2.4440    1.6960 C.2     1  UNL1        0.0540
      9  C          8.3970   -0.4730    1.6930 C.2     1  UNL1        0.0510
     10  C          6.1100   -1.1160    1.8840 C.2     1  UNL1        0.1660
     11  C          7.0640   -0.1230    1.8820 C.2     1  UNL1        0.1650
     12  O          4.8830   -0.5210    2.0880 O.2     1  UNL1       -0.4540
     13  O          6.3960    1.0750    2.0860 O.2     1  UNL1       -0.4540
     14  C          5.0030    0.8780    2.1310 C.3     1  UNL1        0.4680
@<TRIPOS>BOND
     1     4     2    2
     2     3     2    1
     3     2     1    1
     4     1     5    1
     5     5     6    1
     6     7     6    2
     7     7     9    1
     8     6     8    1
     9     9    11    2
    10     8    10    2
    11    11    10    1
    12    11    13    1
    13    10    12    1
    14    13    14    1
    15    12    14    1
