@<TRIPOS>MOLECULE
/home/cewinharhar/GITHUB/reincatalyze/data/processed/docking_pred/2023-May-31-1438_sub9_nm5_bs15_s42_ex16_mel10_mts1000_k50_ec05_g099_lra9e-4_lrc3e-3/dd626561b0241c753f5aa586a778cbbb50e2da15_ligand_9.pdbqt
 14 15 0 0 0
SMALL
GASTEIGER

@<TRIPOS>ATOM
      1  C          9.0630   -3.9470    0.7690 C.3     1  UNL1        0.0800
      2  C          8.8450   -5.1180   -0.1250 C.2     1  UNL1        0.1300
      3  C          9.2380   -5.0890   -1.5600 C.3     1  UNL1        0.0870
      4  O          8.3340   -6.1430    0.2970 O.2     1  UNL1       -0.3000
      5  C          7.8890   -3.7440    1.7060 C.3     1  UNL1        0.0430
      6  C          7.4890   -2.3280    1.7820 C.2     1  UNL1       -0.0440
      7  C          8.4330   -1.2950    1.7290 C.2     1  UNL1        0.0080
      8  C          6.1580   -2.0000    1.9050 C.2     1  UNL1        0.0540
      9  C          7.9990    0.0150    1.8050 C.2     1  UNL1        0.0510
     10  C          5.7240   -0.6730    1.9800 C.2     1  UNL1        0.1660
     11  C          6.6520    0.3430    1.9300 C.2     1  UNL1        0.1650
     12  O          4.4770   -0.0980    2.1040 O.2     1  UNL1       -0.4540
     13  O          5.9490    1.5330    2.0240 O.2     1  UNL1       -0.4540
     14  C          4.5600    1.3030    2.0440 C.3     1  UNL1        0.4680
@<TRIPOS>BOND
     1     3     2    1
     2     2     4    2
     3     2     1    1
     4     1     5    1
     5     5     6    1
     6     7     6    2
     7     7     9    1
     8     6     8    1
     9     9    11    2
    10     8    10    2
    11    11    10    1
    12    11    13    1
    13    10    12    1
    14    13    14    1
    15    14    12    1
