@<TRIPOS>MOLECULE
/home/cewinharhar/GITHUB/reincatalyze/data/processed/docking_pred/2023-May-31-1438_sub9_nm5_bs15_s42_ex16_mel10_mts1000_k50_ec05_g099_lra9e-4_lrc3e-3/df357a1c250a0cea862119ec51667dccc9d8d697_ligand_9.pdbqt
 14 15 0 0 0
SMALL
GASTEIGER

@<TRIPOS>ATOM
      1  C          5.5630    1.3260   -0.2240 C.3     1  UNL1        0.0800
      2  C          5.0540    1.2160    1.1710 C.2     1  UNL1        0.1300
      3  C          5.4560    0.0960    2.0630 C.3     1  UNL1        0.0870
      4  O          4.2850    2.0480    1.6250 O.2     1  UNL1       -0.3000
      5  C          7.0700    1.1730   -0.2740 C.3     1  UNL1        0.0430
      6  C          7.4690   -0.1210   -0.8570 C.2     1  UNL1       -0.0440
      7  C          7.5030   -0.3210   -2.2420 C.2     1  UNL1        0.0080
      8  C          7.8200   -1.1630   -0.0300 C.2     1  UNL1        0.0540
      9  C          7.8860   -1.5560   -2.7320 C.2     1  UNL1        0.0510
     10  C          8.2070   -2.4100   -0.5300 C.2     1  UNL1        0.1660
     11  C          8.2400   -2.6080   -1.8930 C.2     1  UNL1        0.1650
     12  O          8.5960   -3.5860    0.0750 O.2     1  UNL1       -0.4540
     13  O          8.6530   -3.9150   -2.0980 O.2     1  UNL1       -0.4540
     14  C          8.9770   -4.5430   -0.8800 C.3     1  UNL1        0.4680
@<TRIPOS>BOND
     1     9     7    1
     2     9    11    2
     3     7     6    2
     4    13    11    1
     5    13    14    1
     6    11    10    1
     7    14    12    1
     8     6     5    1
     9     6     8    1
    10    10     8    2
    11    10    12    1
    12     5     1    1
    13     1     2    1
    14     2     4    2
    15     2     3    1
