MODEL 1
REMARK VINA RESULT:      -7.6      0.000      0.000
REMARK SMILES CC(=O)CCc1ccc2c(c1)OCO2
REMARK SMILES IDX 4 1 2 2 1 3 3 4 5 5 6 6 7 7 11 8 8 9 10 10 9 11 12 12 14 13
REMARK SMILES IDX 13 14
REMARK H PARENT
REMARK Flexibility Score: inf
ROOT
ATOM      1  C   UNL     1       5.543   1.900   1.284  1.00  0.00     0.080 C 
ENDROOT
BRANCH   1   2
ATOM      2  C   UNL     1       5.101   0.679   2.014  1.00  0.00     0.130 C 
ATOM      3  C   UNL     1       5.998  -0.496   2.185  1.00  0.00     0.087 C 
ATOM      4  O   UNL     1       3.982   0.606   2.495  1.00  0.00    -0.300 OA
ENDBRANCH   1   2
BRANCH   1   5
ATOM      5  C   UNL     1       5.413   1.722  -0.215  1.00  0.00     0.043 C 
BRANCH   5   6
ATOM      6  C   UNL     1       6.577   1.021  -0.786  1.00  0.00    -0.044 A 
ATOM      7  C   UNL     1       7.886   1.454  -0.540  1.00  0.00     0.008 A 
ATOM      8  C   UNL     1       6.385  -0.088  -1.578  1.00  0.00     0.054 A 
ATOM      9  C   UNL     1       8.939   0.756  -1.101  1.00  0.00     0.051 A 
ATOM     10  C   UNL     1       7.454  -0.790  -2.142  1.00  0.00     0.166 A 
ATOM     11  C   UNL     1       8.742  -0.365  -1.902  1.00  0.00     0.165 A 
ATOM     12  O   UNL     1       7.523  -1.904  -2.952  1.00  0.00    -0.454 OA
ATOM     13  O   UNL     1       9.584  -1.235  -2.576  1.00  0.00    -0.454 OA
ATOM     14  C   UNL     1       8.858  -2.279  -3.181  1.00  0.00     0.468 C 
ENDBRANCH   5   6
ENDBRANCH   1   5
TORSDOF 3
ENDMDL
MODEL 2
REMARK VINA RESULT:      -7.4      1.893      2.333
REMARK SMILES CC(=O)CCc1ccc2c(c1)OCO2
REMARK SMILES IDX 4 1 2 2 1 3 3 4 5 5 6 6 7 7 11 8 8 9 10 10 9 11 12 12 14 13
REMARK SMILES IDX 13 14
REMARK H PARENT
REMARK Flexibility Score: inf
ROOT
ATOM      1  C   UNL     1       5.563   1.326  -0.224  1.00  0.00     0.080 C 
ENDROOT
BRANCH   1   2
ATOM      2  C   UNL     1       5.054   1.216   1.171  1.00  0.00     0.130 C 
ATOM      3  C   UNL     1       5.456   0.096   2.063  1.00  0.00     0.087 C 
ATOM      4  O   UNL     1       4.285   2.048   1.625  1.00  0.00    -0.300 OA
ENDBRANCH   1   2
BRANCH   1   5
ATOM      5  C   UNL     1       7.070   1.173  -0.274  1.00  0.00     0.043 C 
BRANCH   5   6
ATOM      6  C   UNL     1       7.469  -0.121  -0.857  1.00  0.00    -0.044 A 
ATOM      7  C   UNL     1       7.503  -0.321  -2.242  1.00  0.00     0.008 A 
ATOM      8  C   UNL     1       7.820  -1.163  -0.030  1.00  0.00     0.054 A 
ATOM      9  C   UNL     1       7.886  -1.556  -2.732  1.00  0.00     0.051 A 
ATOM     10  C   UNL     1       8.207  -2.410  -0.530  1.00  0.00     0.166 A 
ATOM     11  C   UNL     1       8.240  -2.608  -1.893  1.00  0.00     0.165 A 
ATOM     12  O   UNL     1       8.596  -3.586   0.075  1.00  0.00    -0.454 OA
ATOM     13  O   UNL     1       8.653  -3.915  -2.098  1.00  0.00    -0.454 OA
ATOM     14  C   UNL     1       8.977  -4.543  -0.880  1.00  0.00     0.468 C 
ENDBRANCH   5   6
ENDBRANCH   1   5
TORSDOF 3
ENDMDL
MODEL 3
REMARK VINA RESULT:      -7.2      2.075      2.613
REMARK SMILES CC(=O)CCc1ccc2c(c1)OCO2
REMARK SMILES IDX 4 1 2 2 1 3 3 4 5 5 6 6 7 7 11 8 8 9 10 10 9 11 12 12 14 13
REMARK SMILES IDX 13 14
REMARK H PARENT
REMARK Flexibility Score: inf
ROOT
ATOM      1  C   UNL     1       5.533   0.010   1.961  1.00  0.00     0.080 C 
ENDROOT
BRANCH   1   2
ATOM      2  C   UNL     1       4.649   1.167   1.648  1.00  0.00     0.130 C 
ATOM      3  C   UNL     1       4.974   2.125   0.557  1.00  0.00     0.087 C 
ATOM      4  O   UNL     1       3.626   1.365   2.283  1.00  0.00    -0.300 OA
ENDBRANCH   1   2
BRANCH   1   5
ATOM      5  C   UNL     1       6.953   0.260   1.495  1.00  0.00     0.043 C 
BRANCH   5   6
ATOM      6  C   UNL     1       7.361  -0.695   0.449  1.00  0.00    -0.044 A 
ATOM      7  C   UNL     1       7.249  -0.384  -0.911  1.00  0.00     0.008 A 
ATOM      8  C   UNL     1       7.869  -1.923   0.806  1.00  0.00     0.054 A 
ATOM      9  C   UNL     1       7.648  -1.319  -1.849  1.00  0.00     0.051 A 
ATOM     10  C   UNL     1       8.272  -2.865  -0.146  1.00  0.00     0.166 A 
ATOM     11  C   UNL     1       8.160  -2.560  -1.484  1.00  0.00     0.165 A 
ATOM     12  O   UNL     1       8.799  -4.135  -0.046  1.00  0.00    -0.454 OA
ATOM     13  O   UNL     1       8.627  -3.661  -2.186  1.00  0.00    -0.454 OA
ATOM     14  C   UNL     1       9.126  -4.646  -1.313  1.00  0.00     0.468 C 
ENDBRANCH   5   6
ENDBRANCH   1   5
TORSDOF 3
ENDMDL
MODEL 4
REMARK VINA RESULT:      -7.1      1.254      1.475
REMARK SMILES CC(=O)CCc1ccc2c(c1)OCO2
REMARK SMILES IDX 4 1 2 2 1 3 3 4 5 5 6 6 7 7 11 8 8 9 10 10 9 11 12 12 14 13
REMARK SMILES IDX 13 14
REMARK H PARENT
REMARK Flexibility Score: inf
ROOT
ATOM      1  C   UNL     1       6.375   1.175   0.913  1.00  0.00     0.080 C 
ENDROOT
BRANCH   1   2
ATOM      2  C   UNL     1       5.652   0.368   1.935  1.00  0.00     0.130 C 
ATOM      3  C   UNL     1       6.242  -0.869   2.514  1.00  0.00     0.087 C 
ATOM      4  O   UNL     1       4.547   0.701   2.329  1.00  0.00    -0.300 OA
ENDBRANCH   1   2
BRANCH   1   5
ATOM      5  C   UNL     1       5.864   0.879  -0.483  1.00  0.00     0.043 C 
BRANCH   5   6
ATOM      6  C   UNL     1       6.821   0.065  -1.254  1.00  0.00    -0.044 A 
ATOM      7  C   UNL     1       7.511   0.588  -2.353  1.00  0.00     0.008 A 
ATOM      8  C   UNL     1       7.049  -1.243  -0.892  1.00  0.00     0.054 A 
ATOM      9  C   UNL     1       8.397  -0.224  -3.038  1.00  0.00     0.051 A 
ATOM     10  C   UNL     1       7.946  -2.060  -1.587  1.00  0.00     0.166 A 
ATOM     11  C   UNL     1       8.625  -1.546  -2.669  1.00  0.00     0.165 A 
ATOM     12  O   UNL     1       8.341  -3.371  -1.428  1.00  0.00    -0.454 OA
ATOM     13  O   UNL     1       9.432  -2.562  -3.156  1.00  0.00    -0.454 OA
ATOM     14  C   UNL     1       9.351  -3.709  -2.344  1.00  0.00     0.468 C 
ENDBRANCH   5   6
ENDBRANCH   1   5
TORSDOF 3
ENDMDL
MODEL 5
REMARK VINA RESULT:      -6.8      1.261      1.755
REMARK SMILES CC(=O)CCc1ccc2c(c1)OCO2
REMARK SMILES IDX 4 1 2 2 1 3 3 4 5 5 6 6 7 7 11 8 8 9 10 10 9 11 12 12 14 13
REMARK SMILES IDX 13 14
REMARK H PARENT
REMARK Flexibility Score: inf
ROOT
ATOM      1  C   UNL     1       5.292  -0.076   1.952  1.00  0.00     0.080 C 
ENDROOT
BRANCH   1   2
ATOM      2  C   UNL     1       4.444   1.135   1.768  1.00  0.00     0.130 C 
ATOM      3  C   UNL     1       4.747   2.149   0.723  1.00  0.00     0.087 C 
ATOM      4  O   UNL     1       3.469   1.330   2.476  1.00  0.00    -0.300 OA
ENDBRANCH   1   2
BRANCH   1   5
ATOM      5  C   UNL     1       6.766   0.275   1.923  1.00  0.00     0.043 C 
BRANCH   5   6
ATOM      6  C   UNL     1       7.383  -0.063   0.627  1.00  0.00    -0.044 A 
ATOM      7  C   UNL     1       7.891   0.926  -0.223  1.00  0.00     0.008 A 
ATOM      8  C   UNL     1       7.468  -1.380   0.235  1.00  0.00     0.054 A 
ATOM      9  C   UNL     1       8.460   0.549  -1.426  1.00  0.00     0.051 A 
ATOM     10  C   UNL     1       8.044  -1.756  -0.982  1.00  0.00     0.166 A 
ATOM     11  C   UNL     1       8.544  -0.783  -1.819  1.00  0.00     0.165 A 
ATOM     12  O   UNL     1       8.244  -2.977  -1.589  1.00  0.00    -0.454 OA
ATOM     13  O   UNL     1       9.046  -1.435  -2.935  1.00  0.00    -0.454 OA
ATOM     14  C   UNL     1       8.959  -2.832  -2.790  1.00  0.00     0.468 C 
ENDBRANCH   5   6
ENDBRANCH   1   5
TORSDOF 3
ENDMDL
