@<TRIPOS>MOLECULE
/home/cewinharhar/GITHUB/reincatalyze/data/processed/docking_pred/2023-May-31-1438_sub9_nm5_bs15_s42_ex16_mel10_mts1000_k50_ec05_g099_lra9e-4_lrc3e-3/e083fa7032685a97da63944e329d67bd29c0daa9_ligand_9.pdbqt
 14 15 0 0 0
SMALL
GASTEIGER

@<TRIPOS>ATOM
      1  C          6.3830    1.2040    0.9340 C.3     1  UNL1        0.0800
      2  C          5.6600    0.3800    1.9430 C.2     1  UNL1        0.1300
      3  C          6.2660   -0.8470    2.5280 C.3     1  UNL1        0.0870
      4  O          4.5420    0.6890    2.3210 O.2     1  UNL1       -0.3000
      5  C          5.8740    0.9290   -0.4670 C.3     1  UNL1        0.0430
      6  C          6.8210    0.1050   -1.2400 C.2     1  UNL1       -0.0440
      7  C          7.5040    0.6180   -2.3480 C.2     1  UNL1        0.0080
      8  C          7.0480   -1.2010   -0.8700 C.2     1  UNL1        0.0540
      9  C          8.3810   -0.2020   -3.0350 C.2     1  UNL1        0.0510
     10  C          7.9360   -2.0260   -1.5670 C.2     1  UNL1        0.1660
     11  C          8.6080   -1.5220   -2.6590 C.2     1  UNL1        0.1650
     12  O          8.3270   -3.3380   -1.4020 O.2     1  UNL1       -0.4540
     13  O          9.4060   -2.5450   -3.1450 O.2     1  UNL1       -0.4540
     14  C          9.3280   -3.6860   -2.3240 C.3     1  UNL1        0.4680
@<TRIPOS>BOND
     1    13    11    1
     2    13    14    1
     3     9    11    2
     4     9     7    1
     5    11    10    1
     6     7     6    2
     7    14    12    1
     8    10    12    1
     9    10     8    2
    10     6     8    1
    11     6     5    1
    12     5     1    1
    13     1     2    1
    14     2     4    2
    15     2     3    1
