MODEL 1
REMARK VINA RESULT:      -7.6      0.000      0.000
REMARK SMILES CC(=O)CCc1ccc2c(c1)OCO2
REMARK SMILES IDX 4 1 2 2 1 3 3 4 5 5 6 6 7 7 11 8 8 9 10 10 9 11 12 12 14 13
REMARK SMILES IDX 13 14
REMARK H PARENT
REMARK Flexibility Score: inf
ROOT
ATOM      1  C   UNL     1       5.538   1.910   1.278  1.00  0.00     0.080 C 
ENDROOT
BRANCH   1   2
ATOM      2  C   UNL     1       5.087   0.694   2.009  1.00  0.00     0.130 C 
ATOM      3  C   UNL     1       5.972  -0.490   2.178  1.00  0.00     0.087 C 
ATOM      4  O   UNL     1       3.969   0.633   2.495  1.00  0.00    -0.300 OA
ENDBRANCH   1   2
BRANCH   1   5
ATOM      5  C   UNL     1       5.409   1.731  -0.222  1.00  0.00     0.043 C 
BRANCH   5   6
ATOM      6  C   UNL     1       6.572   1.027  -0.790  1.00  0.00    -0.044 A 
ATOM      7  C   UNL     1       7.881   1.462  -0.550  1.00  0.00     0.008 A 
ATOM      8  C   UNL     1       6.380  -0.086  -1.576  1.00  0.00     0.054 A 
ATOM      9  C   UNL     1       8.934   0.761  -1.109  1.00  0.00     0.051 A 
ATOM     10  C   UNL     1       7.448  -0.791  -2.139  1.00  0.00     0.166 A 
ATOM     11  C   UNL     1       8.736  -0.364  -1.904  1.00  0.00     0.165 A 
ATOM     12  O   UNL     1       7.516  -1.909  -2.943  1.00  0.00    -0.454 OA
ATOM     13  O   UNL     1       9.577  -1.237  -2.574  1.00  0.00    -0.454 OA
ATOM     14  C   UNL     1       8.850  -2.285  -3.171  1.00  0.00     0.468 C 
ENDBRANCH   5   6
ENDBRANCH   1   5
TORSDOF 3
ENDMDL
MODEL 2
REMARK VINA RESULT:      -7.4      1.951      2.422
REMARK SMILES CC(=O)CCc1ccc2c(c1)OCO2
REMARK SMILES IDX 4 1 2 2 1 3 3 4 5 5 6 6 7 7 11 8 8 9 10 10 9 11 12 12 14 13
REMARK SMILES IDX 13 14
REMARK H PARENT
REMARK Flexibility Score: inf
ROOT
ATOM      1  C   UNL     1       5.765   1.192  -0.314  1.00  0.00     0.080 C 
ENDROOT
BRANCH   1   2
ATOM      2  C   UNL     1       5.179   1.204   1.056  1.00  0.00     0.130 C 
ATOM      3  C   UNL     1       5.388   0.077   2.004  1.00  0.00     0.087 C 
ATOM      4  O   UNL     1       4.506   2.146   1.441  1.00  0.00    -0.300 OA
ENDBRANCH   1   2
BRANCH   1   5
ATOM      5  C   UNL     1       7.268   1.003  -0.268  1.00  0.00     0.043 C 
BRANCH   5   6
ATOM      6  C   UNL     1       7.678  -0.275  -0.876  1.00  0.00    -0.044 A 
ATOM      7  C   UNL     1       7.844  -0.408  -2.259  1.00  0.00     0.008 A 
ATOM      8  C   UNL     1       7.906  -1.370  -0.074  1.00  0.00     0.054 A 
ATOM      9  C   UNL     1       8.231  -1.633  -2.774  1.00  0.00     0.051 A 
ATOM     10  C   UNL     1       8.298  -2.605  -0.599  1.00  0.00     0.166 A 
ATOM     11  C   UNL     1       8.461  -2.738  -1.960  1.00  0.00     0.165 A 
ATOM     12  O   UNL     1       8.581  -3.825  -0.021  1.00  0.00    -0.454 OA
ATOM     13  O   UNL     1       8.846  -4.049  -2.192  1.00  0.00    -0.454 OA
ATOM     14  C   UNL     1       9.022  -4.748  -0.983  1.00  0.00     0.468 C 
ENDBRANCH   5   6
ENDBRANCH   1   5
TORSDOF 3
ENDMDL
MODEL 3
REMARK VINA RESULT:      -7.2      2.074      2.608
REMARK SMILES CC(=O)CCc1ccc2c(c1)OCO2
REMARK SMILES IDX 4 1 2 2 1 3 3 4 5 5 6 6 7 7 11 8 8 9 10 10 9 11 12 12 14 13
REMARK SMILES IDX 13 14
REMARK H PARENT
REMARK Flexibility Score: inf
ROOT
ATOM      1  C   UNL     1       5.547   0.018   1.966  1.00  0.00     0.080 C 
ENDROOT
BRANCH   1   2
ATOM      2  C   UNL     1       4.652   1.165   1.649  1.00  0.00     0.130 C 
ATOM      3  C   UNL     1       4.948   2.101   0.532  1.00  0.00     0.087 C 
ATOM      4  O   UNL     1       3.642   1.371   2.303  1.00  0.00    -0.300 OA
ENDBRANCH   1   2
BRANCH   1   5
ATOM      5  C   UNL     1       6.962   0.275   1.485  1.00  0.00     0.043 C 
BRANCH   5   6
ATOM      6  C   UNL     1       7.367  -0.685   0.442  1.00  0.00    -0.044 A 
ATOM      7  C   UNL     1       7.258  -0.377  -0.919  1.00  0.00     0.008 A 
ATOM      8  C   UNL     1       7.868  -1.915   0.804  1.00  0.00     0.054 A 
ATOM      9  C   UNL     1       7.655  -1.317  -1.853  1.00  0.00     0.051 A 
ATOM     10  C   UNL     1       8.268  -2.861  -0.145  1.00  0.00     0.166 A 
ATOM     11  C   UNL     1       8.160  -2.559  -1.484  1.00  0.00     0.165 A 
ATOM     12  O   UNL     1       8.788  -4.133  -0.041  1.00  0.00    -0.454 OA
ATOM     13  O   UNL     1       8.623  -3.664  -2.182  1.00  0.00    -0.454 OA
ATOM     14  C   UNL     1       9.115  -4.649  -1.305  1.00  0.00     0.468 C 
ENDBRANCH   5   6
ENDBRANCH   1   5
TORSDOF 3
ENDMDL
MODEL 4
REMARK VINA RESULT:      -7.1      1.251      1.462
REMARK SMILES CC(=O)CCc1ccc2c(c1)OCO2
REMARK SMILES IDX 4 1 2 2 1 3 3 4 5 5 6 6 7 7 11 8 8 9 10 10 9 11 12 12 14 13
REMARK SMILES IDX 13 14
REMARK H PARENT
REMARK Flexibility Score: inf
ROOT
ATOM      1  C   UNL     1       6.405   1.201   0.939  1.00  0.00     0.080 C 
ENDROOT
BRANCH   1   2
ATOM      2  C   UNL     1       5.669   0.366   1.930  1.00  0.00     0.130 C 
ATOM      3  C   UNL     1       6.264  -0.871   2.503  1.00  0.00     0.087 C 
ATOM      4  O   UNL     1       4.549   0.676   2.301  1.00  0.00    -0.300 OA
ENDBRANCH   1   2
BRANCH   1   5
ATOM      5  C   UNL     1       5.902   0.954  -0.469  1.00  0.00     0.043 C 
BRANCH   5   6
ATOM      6  C   UNL     1       6.837   0.117  -1.244  1.00  0.00    -0.044 A 
ATOM      7  C   UNL     1       7.522   0.621  -2.355  1.00  0.00     0.008 A 
ATOM      8  C   UNL     1       7.049  -1.191  -0.873  1.00  0.00     0.054 A 
ATOM      9  C   UNL     1       8.387  -0.210  -3.043  1.00  0.00     0.051 A 
ATOM     10  C   UNL     1       7.925  -2.027  -1.572  1.00  0.00     0.166 A 
ATOM     11  C   UNL     1       8.600  -1.533  -2.666  1.00  0.00     0.165 A 
ATOM     12  O   UNL     1       8.302  -3.343  -1.405  1.00  0.00    -0.454 OA
ATOM     13  O   UNL     1       9.385  -2.566  -3.153  1.00  0.00    -0.454 OA
ATOM     14  C   UNL     1       9.296  -3.704  -2.330  1.00  0.00     0.468 C 
ENDBRANCH   5   6
ENDBRANCH   1   5
TORSDOF 3
ENDMDL
MODEL 5
REMARK VINA RESULT:      -7.0      1.981      2.563
REMARK SMILES CC(=O)CCc1ccc2c(c1)OCO2
REMARK SMILES IDX 4 1 2 2 1 3 3 4 5 5 6 6 7 7 11 8 8 9 10 10 9 11 12 12 14 13
REMARK SMILES IDX 13 14
REMARK H PARENT
REMARK Flexibility Score: inf
ROOT
ATOM      1  C   UNL     1       6.864   0.751   1.245  1.00  0.00     0.080 C 
ENDROOT
BRANCH   1   2
ATOM      2  C   UNL     1       5.433   1.106   1.459  1.00  0.00     0.130 C 
ATOM      3  C   UNL     1       4.757   2.150   0.644  1.00  0.00     0.087 C 
ATOM      4  O   UNL     1       4.770   0.545   2.317  1.00  0.00    -0.300 OA
ENDBRANCH   1   2
BRANCH   1   5
ATOM      5  C   UNL     1       7.264   0.932  -0.206  1.00  0.00     0.043 C 
BRANCH   5   6
ATOM      6  C   UNL     1       7.639  -0.348  -0.833  1.00  0.00    -0.044 A 
ATOM      7  C   UNL     1       7.696  -0.494  -2.224  1.00  0.00     0.008 A 
ATOM      8  C   UNL     1       7.946  -1.431  -0.042  1.00  0.00     0.054 A 
ATOM      9  C   UNL     1       8.055  -1.719  -2.756  1.00  0.00     0.051 A 
ATOM     10  C   UNL     1       8.309  -2.668  -0.585  1.00  0.00     0.166 A 
ATOM     11  C   UNL     1       8.364  -2.812  -1.953  1.00  0.00     0.165 A 
ATOM     12  O   UNL     1       8.653  -3.877  -0.020  1.00  0.00    -0.454 OA
ATOM     13  O   UNL     1       8.745  -4.121  -2.203  1.00  0.00    -0.454 OA
ATOM     14  C   UNL     1       9.027  -4.806  -1.005  1.00  0.00     0.468 C 
ENDBRANCH   5   6
ENDBRANCH   1   5
TORSDOF 3
ENDMDL
