@<TRIPOS>MOLECULE
/home/cewinharhar/GITHUB/reincatalyze/data/processed/docking_pred/2023-May-31-1438_sub9_nm5_bs15_s42_ex16_mel10_mts1000_k50_ec05_g099_lra9e-4_lrc3e-3/e3e0f9713a2c6d1770d60d03407d62bfa70f046f_ligand_9.pdbqt
 14 15 0 0 0
SMALL
GASTEIGER

@<TRIPOS>ATOM
      1  C          5.4920   -0.0090    1.9910 C.3     1  UNL1        0.0800
      2  C          4.6200    1.1700    1.7280 C.2     1  UNL1        0.1300
      3  C          4.9350    2.1500    0.6540 C.3     1  UNL1        0.0870
      4  O          3.6150    1.3660    2.3920 O.2     1  UNL1       -0.3000
      5  C          6.9140    0.2450    1.5310 C.3     1  UNL1        0.0430
      6  C          7.3230   -0.6990    0.4750 C.2     1  UNL1       -0.0440
      7  C          7.1810   -0.3880   -0.8820 C.2     1  UNL1        0.0080
      8  C          7.8610   -1.9180    0.8210 C.2     1  UNL1        0.0540
      9  C          7.5840   -1.3130   -1.8280 C.2     1  UNL1        0.0510
     10  C          8.2670   -2.8490   -0.1390 C.2     1  UNL1        0.1660
     11  C          8.1260   -2.5440   -1.4750 C.2     1  UNL1        0.1650
     12  O          8.8200   -4.1090   -0.0510 O.2     1  UNL1       -0.4540
     13  O          8.6030   -3.6340   -2.1870 O.2     1  UNL1       -0.4540
     14  C          9.1360   -4.6110   -1.3250 C.3     1  UNL1        0.4680
@<TRIPOS>BOND
     1    13    11    1
     2    13    14    1
     3     9    11    2
     4     9     7    1
     5    11    10    1
     6    14    12    1
     7     7     6    2
     8    10    12    1
     9    10     8    2
    10     6     8    1
    11     6     5    1
    12     3     2    1
    13     5     1    1
    14     2     1    1
    15     2     4    2
