MODEL 1
REMARK VINA RESULT:      -7.7      0.000      0.000
REMARK SMILES CC(=O)CCc1ccc2c(c1)OCO2
REMARK SMILES IDX 4 1 2 2 1 3 3 4 5 5 6 6 7 7 11 8 8 9 10 10 9 11 12 12 14 13
REMARK SMILES IDX 13 14
REMARK H PARENT
REMARK Flexibility Score: inf
ROOT
ATOM      1  C   UNL     1       5.509   1.926   1.249  1.00  0.00     0.080 C 
ENDROOT
BRANCH   1   2
ATOM      2  C   UNL     1       5.026   0.727   1.990  1.00  0.00     0.130 C 
ATOM      3  C   UNL     1       5.856  -0.500   2.116  1.00  0.00     0.087 C 
ATOM      4  O   UNL     1       3.925   0.718   2.518  1.00  0.00    -0.300 OA
ENDBRANCH   1   2
BRANCH   1   5
ATOM      5  C   UNL     1       5.390   1.731  -0.249  1.00  0.00     0.043 C 
BRANCH   5   6
ATOM      6  C   UNL     1       6.562   1.030  -0.804  1.00  0.00    -0.044 A 
ATOM      7  C   UNL     1       7.867   1.460  -0.540  1.00  0.00     0.008 A 
ATOM      8  C   UNL     1       6.379  -0.078  -1.600  1.00  0.00     0.054 A 
ATOM      9  C   UNL     1       8.928   0.762  -1.087  1.00  0.00     0.051 A 
ATOM     10  C   UNL     1       7.455  -0.781  -2.151  1.00  0.00     0.166 A 
ATOM     11  C   UNL     1       8.740  -0.358  -1.893  1.00  0.00     0.165 A 
ATOM     12  O   UNL     1       7.534  -1.894  -2.962  1.00  0.00    -0.454 OA
ATOM     13  O   UNL     1       9.590  -1.229  -2.556  1.00  0.00    -0.454 OA
ATOM     14  C   UNL     1       8.871  -2.271  -3.171  1.00  0.00     0.468 C 
ENDBRANCH   5   6
ENDBRANCH   1   5
TORSDOF 3
ENDMDL
MODEL 2
REMARK VINA RESULT:      -7.5      1.903      2.371
REMARK SMILES CC(=O)CCc1ccc2c(c1)OCO2
REMARK SMILES IDX 4 1 2 2 1 3 3 4 5 5 6 6 7 7 11 8 8 9 10 10 9 11 12 12 14 13
REMARK SMILES IDX 13 14
REMARK H PARENT
REMARK Flexibility Score: inf
ROOT
ATOM      1  C   UNL     1       5.784   1.414  -0.355  1.00  0.00     0.080 C 
ENDROOT
BRANCH   1   2
ATOM      2  C   UNL     1       5.176   1.329   1.003  1.00  0.00     0.130 C 
ATOM      3  C   UNL     1       5.544   0.249   1.957  1.00  0.00     0.087 C 
ATOM      4  O   UNL     1       4.352   2.150   1.372  1.00  0.00    -0.300 OA
ENDBRANCH   1   2
BRANCH   1   5
ATOM      5  C   UNL     1       7.279   1.168  -0.304  1.00  0.00     0.043 C 
BRANCH   5   6
ATOM      6  C   UNL     1       7.641  -0.129  -0.903  1.00  0.00    -0.044 A 
ATOM      7  C   UNL     1       7.701  -0.304  -2.291  1.00  0.00     0.008 A 
ATOM      8  C   UNL     1       7.930  -1.200  -0.089  1.00  0.00     0.054 A 
ATOM      9  C   UNL     1       8.047  -1.544  -2.796  1.00  0.00     0.051 A 
ATOM     10  C   UNL     1       8.280  -2.451  -0.605  1.00  0.00     0.166 A 
ATOM     11  C   UNL     1       8.338  -2.625  -1.969  1.00  0.00     0.165 A 
ATOM     12  O   UNL     1       8.607  -3.653  -0.014  1.00  0.00    -0.454 OA
ATOM     13  O   UNL     1       8.705  -3.943  -2.191  1.00  0.00    -0.454 OA
ATOM     14  C   UNL     1       8.973  -4.606  -0.978  1.00  0.00     0.468 C 
ENDBRANCH   5   6
ENDBRANCH   1   5
TORSDOF 3
ENDMDL
MODEL 3
REMARK VINA RESULT:      -7.2      2.063      2.611
REMARK SMILES CC(=O)CCc1ccc2c(c1)OCO2
REMARK SMILES IDX 4 1 2 2 1 3 3 4 5 5 6 6 7 7 11 8 8 9 10 10 9 11 12 12 14 13
REMARK SMILES IDX 13 14
REMARK H PARENT
REMARK Flexibility Score: inf
ROOT
ATOM      1  C   UNL     1       5.492  -0.009   1.991  1.00  0.00     0.080 C 
ENDROOT
BRANCH   1   2
ATOM      2  C   UNL     1       4.620   1.170   1.728  1.00  0.00     0.130 C 
ATOM      3  C   UNL     1       4.935   2.150   0.654  1.00  0.00     0.087 C 
ATOM      4  O   UNL     1       3.615   1.366   2.392  1.00  0.00    -0.300 OA
ENDBRANCH   1   2
BRANCH   1   5
ATOM      5  C   UNL     1       6.914   0.245   1.531  1.00  0.00     0.043 C 
BRANCH   5   6
ATOM      6  C   UNL     1       7.323  -0.699   0.475  1.00  0.00    -0.044 A 
ATOM      7  C   UNL     1       7.181  -0.388  -0.882  1.00  0.00     0.008 A 
ATOM      8  C   UNL     1       7.861  -1.918   0.821  1.00  0.00     0.054 A 
ATOM      9  C   UNL     1       7.584  -1.313  -1.828  1.00  0.00     0.051 A 
ATOM     10  C   UNL     1       8.267  -2.849  -0.139  1.00  0.00     0.166 A 
ATOM     11  C   UNL     1       8.126  -2.544  -1.475  1.00  0.00     0.165 A 
ATOM     12  O   UNL     1       8.820  -4.109  -0.051  1.00  0.00    -0.454 OA
ATOM     13  O   UNL     1       8.603  -3.634  -2.187  1.00  0.00    -0.454 OA
ATOM     14  C   UNL     1       9.136  -4.611  -1.325  1.00  0.00     0.468 C 
ENDBRANCH   5   6
ENDBRANCH   1   5
TORSDOF 3
ENDMDL
MODEL 4
REMARK VINA RESULT:      -7.1      1.262      1.470
REMARK SMILES CC(=O)CCc1ccc2c(c1)OCO2
REMARK SMILES IDX 4 1 2 2 1 3 3 4 5 5 6 6 7 7 11 8 8 9 10 10 9 11 12 12 14 13
REMARK SMILES IDX 13 14
REMARK H PARENT
REMARK Flexibility Score: inf
ROOT
ATOM      1  C   UNL     1       6.381   1.261   0.894  1.00  0.00     0.080 C 
ENDROOT
BRANCH   1   2
ATOM      2  C   UNL     1       5.710   0.406   1.912  1.00  0.00     0.130 C 
ATOM      3  C   UNL     1       6.388  -0.775   2.510  1.00  0.00     0.087 C 
ATOM      4  O   UNL     1       4.575   0.653   2.288  1.00  0.00    -0.300 OA
ENDBRANCH   1   2
BRANCH   1   5
ATOM      5  C   UNL     1       5.868   0.962  -0.501  1.00  0.00     0.043 C 
BRANCH   5   6
ATOM      6  C   UNL     1       6.813   0.128  -1.265  1.00  0.00    -0.044 A 
ATOM      7  C   UNL     1       7.513   0.635  -2.366  1.00  0.00     0.008 A 
ATOM      8  C   UNL     1       7.023  -1.180  -0.893  1.00  0.00     0.054 A 
ATOM      9  C   UNL     1       8.388  -0.194  -3.044  1.00  0.00     0.051 A 
ATOM     10  C   UNL     1       7.910  -2.014  -1.581  1.00  0.00     0.166 A 
ATOM     11  C   UNL     1       8.597  -1.517  -2.666  1.00  0.00     0.165 A 
ATOM     12  O   UNL     1       8.286  -3.329  -1.412  1.00  0.00    -0.454 OA
ATOM     13  O   UNL     1       9.391  -2.548  -3.144  1.00  0.00    -0.454 OA
ATOM     14  C   UNL     1       9.292  -3.687  -2.324  1.00  0.00     0.468 C 
ENDBRANCH   5   6
ENDBRANCH   1   5
TORSDOF 3
ENDMDL
MODEL 5
REMARK VINA RESULT:      -7.1      1.956      2.517
REMARK SMILES CC(=O)CCc1ccc2c(c1)OCO2
REMARK SMILES IDX 4 1 2 2 1 3 3 4 5 5 6 6 7 7 11 8 8 9 10 10 9 11 12 12 14 13
REMARK SMILES IDX 13 14
REMARK H PARENT
REMARK Flexibility Score: inf
ROOT
ATOM      1  C   UNL     1       6.850   0.844   1.315  1.00  0.00     0.080 C 
ENDROOT
BRANCH   1   2
ATOM      2  C   UNL     1       5.400   1.158   1.455  1.00  0.00     0.130 C 
ATOM      3  C   UNL     1       4.728   2.150   0.574  1.00  0.00     0.087 C 
ATOM      4  O   UNL     1       4.719   0.606   2.303  1.00  0.00    -0.300 OA
ENDBRANCH   1   2
BRANCH   1   5
ATOM      5  C   UNL     1       7.321   1.044  -0.112  1.00  0.00     0.043 C 
BRANCH   5   6
ATOM      6  C   UNL     1       7.643  -0.237  -0.766  1.00  0.00    -0.044 A 
ATOM      7  C   UNL     1       7.648  -0.368  -2.159  1.00  0.00     0.008 A 
ATOM      8  C   UNL     1       7.950  -1.336   0.003  1.00  0.00     0.054 A 
ATOM      9  C   UNL     1       7.958  -1.594  -2.717  1.00  0.00     0.051 A 
ATOM     10  C   UNL     1       8.264  -2.575  -0.566  1.00  0.00     0.166 A 
ATOM     11  C   UNL     1       8.268  -2.705  -1.937  1.00  0.00     0.165 A 
ATOM     12  O   UNL     1       8.598  -3.799  -0.027  1.00  0.00    -0.454 OA
ATOM     13  O   UNL     1       8.609  -4.019  -2.214  1.00  0.00    -0.454 OA
ATOM     14  C   UNL     1       8.915  -4.724  -1.035  1.00  0.00     0.468 C 
ENDBRANCH   5   6
ENDBRANCH   1   5
TORSDOF 3
ENDMDL
