@<TRIPOS>MOLECULE
/home/cewinharhar/GITHUB/reincatalyze/data/processed/docking_pred/2023-May-31-1438_sub9_nm5_bs15_s42_ex16_mel10_mts1000_k50_ec05_g099_lra9e-4_lrc3e-3/e3e22a08cc3fa656d2264310e8071e645bf38a06_ligand_9.pdbqt
 14 15 0 0 0
SMALL
GASTEIGER

@<TRIPOS>ATOM
      1  C          5.6250    1.3950   -0.2120 C.3     1  UNL1        0.0800
      2  C          5.0090    1.2370    1.1350 C.2     1  UNL1        0.1300
      3  C          5.3250    0.0750    2.0070 C.3     1  UNL1        0.0870
      4  O          4.2200    2.0640    1.5640 O.2     1  UNL1       -0.3000
      5  C          7.1220    1.1610   -0.1640 C.3     1  UNL1        0.0430
      6  C          7.4950   -0.1230   -0.7830 C.2     1  UNL1       -0.0440
      7  C          7.5090   -0.2900   -2.1720 C.2     1  UNL1        0.0080
      8  C          7.8420   -1.1890    0.0150 C.2     1  UNL1        0.0540
      9  C          7.8690   -1.5180   -2.6970 C.2     1  UNL1        0.0510
     10  C          8.2060   -2.4290   -0.5200 C.2     1  UNL1        0.1660
     11  C          8.2190   -2.5950   -1.8870 C.2     1  UNL1        0.1650
     12  O          8.5850   -3.6240    0.0520 O.2     1  UNL1       -0.4540
     13  O          8.6110   -3.9020   -2.1290 O.2     1  UNL1       -0.4540
     14  C          8.9410   -4.5630   -0.9300 C.3     1  UNL1        0.4680
@<TRIPOS>BOND
     1     9     7    1
     2     9    11    2
     3     7     6    2
     4    13    11    1
     5    13    14    1
     6    11    10    1
     7    14    12    1
     8     6     5    1
     9     6     8    1
    10    10     8    2
    11    10    12    1
    12     1     5    1
    13     1     2    1
    14     2     4    2
    15     2     3    1
