@<TRIPOS>MOLECULE
/home/cewinharhar/GITHUB/reincatalyze/data/processed/docking_pred/2023-May-31-1438_sub9_nm5_bs15_s42_ex16_mel10_mts1000_k50_ec05_g099_lra9e-4_lrc3e-3/e3fbdfe9b196bdc40f83d7817e536621cd4b8c1b_ligand_9.pdbqt
 14 15 0 0 0
SMALL
GASTEIGER

@<TRIPOS>ATOM
      1  C          5.5050    1.9090    1.2470 C.3     1  UNL1        0.0800
      2  C          5.0330    0.7080    1.9910 C.2     1  UNL1        0.1300
      3  C          5.8730   -0.5130    2.1160 C.3     1  UNL1        0.0870
      4  O          3.9340    0.6920    2.5220 O.2     1  UNL1       -0.3000
      5  C          5.3840    1.7110   -0.2510 C.3     1  UNL1        0.0430
      6  C          6.5580    1.0140   -0.8070 C.2     1  UNL1       -0.0440
      7  C          7.8620    1.4500   -0.5430 C.2     1  UNL1        0.0080
      8  C          6.3800   -0.0940   -1.6020 C.2     1  UNL1        0.0540
      9  C          8.9250    0.7560   -1.0910 C.2     1  UNL1        0.0510
     10  C          7.4580   -0.7930   -2.1530 C.2     1  UNL1        0.1660
     11  C          8.7410   -0.3640   -1.8950 C.2     1  UNL1        0.1650
     12  O          7.5420   -1.9060   -2.9640 O.2     1  UNL1       -0.4540
     13  O          9.5950   -1.2320   -2.5590 O.2     1  UNL1       -0.4540
     14  C          8.8800   -2.2770   -3.1740 C.3     1  UNL1        0.4680
@<TRIPOS>BOND
     1    14    12    1
     2    14    13    1
     3    12    10    1
     4    13    11    1
     5    10    11    2
     6    10     8    1
     7    11     9    1
     8     8     6    2
     9     9     7    2
    10     6     7    1
    11     6     5    1
    12     5     1    1
    13     1     2    1
    14     2     3    1
    15     2     4    2
