@<TRIPOS>MOLECULE
/home/cewinharhar/GITHUB/reincatalyze/data/processed/docking_pred/2023-May-31-1438_sub9_nm5_bs15_s42_ex16_mel10_mts1000_k50_ec05_g099_lra9e-4_lrc3e-3/e3fbdfe9b196bdc40f83d7817e536621cd4b8c1b_ligand_9.pdbqt
 14 15 0 0 0
SMALL
GASTEIGER

@<TRIPOS>ATOM
      1  C          5.4530   -0.0210    2.0260 C.3     1  UNL1        0.0800
      2  C          4.5790    1.1540    1.7560 C.2     1  UNL1        0.1300
      3  C          4.8900    2.1260    0.6740 C.3     1  UNL1        0.0870
      4  O          3.5750    1.3550    2.4200 O.2     1  UNL1       -0.3000
      5  C          6.8770    0.2370    1.5750 C.3     1  UNL1        0.0430
      6  C          7.2900   -0.6930    0.5090 C.2     1  UNL1       -0.0440
      7  C          7.1510   -0.3640   -0.8440 C.2     1  UNL1        0.0080
      8  C          7.8280   -1.9150    0.8400 C.2     1  UNL1        0.0540
      9  C          7.5560   -1.2760   -1.8020 C.2     1  UNL1        0.0510
     10  C          8.2370   -2.8340   -0.1310 C.2     1  UNL1        0.1660
     11  C          8.1000   -2.5120   -1.4630 C.2     1  UNL1        0.1650
     12  O          8.7920   -4.0940   -0.0590 O.2     1  UNL1       -0.4540
     13  O          8.5790   -3.5910   -2.1880 O.2     1  UNL1       -0.4540
     14  C          9.1120   -4.5780   -1.3380 C.3     1  UNL1        0.4680
@<TRIPOS>BOND
     1    13    11    1
     2    13    14    1
     3     9    11    2
     4     9     7    1
     5    11    10    1
     6    14    12    1
     7     7     6    2
     8    10    12    1
     9    10     8    2
    10     6     8    1
    11     6     5    1
    12     3     2    1
    13     5     1    1
    14     2     1    1
    15     2     4    2
