@<TRIPOS>MOLECULE
/home/cewinharhar/GITHUB/reincatalyze/data/processed/docking_pred/2023-May-31-1438_sub9_nm5_bs15_s42_ex16_mel10_mts1000_k50_ec05_g099_lra9e-4_lrc3e-3/e3fbdfe9b196bdc40f83d7817e536621cd4b8c1b_ligand_9.pdbqt
 14 15 0 0 0
SMALL
GASTEIGER

@<TRIPOS>ATOM
      1  C          6.7560    0.5920    1.3250 C.3     1  UNL1        0.0800
      2  C          5.3500    1.0630    1.4700 C.2     1  UNL1        0.1300
      3  C          4.7990    2.1490    0.6160 C.3     1  UNL1        0.0870
      4  O          4.6060    0.5670    2.3000 O.2     1  UNL1       -0.3000
      5  C          7.2790    0.8430   -0.0750 C.3     1  UNL1        0.0430
      6  C          7.7050   -0.4060   -0.7310 C.2     1  UNL1       -0.0440
      7  C          7.8860   -0.4810   -2.1170 C.2     1  UNL1        0.0080
      8  C          7.9360   -1.5310    0.0280 C.2     1  UNL1        0.0540
      9  C          8.2880   -1.6800   -2.6770 C.2     1  UNL1        0.0510
     10  C          8.3430   -2.7400   -0.5430 C.2     1  UNL1        0.1660
     11  C          8.5200   -2.8160   -1.9060 C.2     1  UNL1        0.1650
     12  O          8.6320   -3.9800   -0.0120 O.2     1  UNL1       -0.4540
     13  O          8.9190   -4.1130   -2.1870 O.2     1  UNL1       -0.4540
     14  C          9.0900   -4.8590   -1.0060 C.3     1  UNL1        0.4680
@<TRIPOS>BOND
     1     9     7    1
     2     9    11    2
     3    13    11    1
     4    13    14    1
     5     7     6    2
     6    11    10    1
     7    14    12    1
     8     6     5    1
     9     6     8    1
    10    10    12    1
    11    10     8    2
    12     5     1    1
    13     3     2    1
    14     1     2    1
    15     2     4    2
