@<TRIPOS>MOLECULE
/home/cewinharhar/GITHUB/reincatalyze/data/processed/docking_pred/2023-May-31-1438_sub9_nm5_bs15_s42_ex16_mel10_mts1000_k50_ec05_g099_lra9e-4_lrc3e-3/e5153a6a2872aa0f73be7da8df97a591d10f8a10_ligand_9.pdbqt
 14 15 0 0 0
SMALL
GASTEIGER

@<TRIPOS>ATOM
      1  C          6.8180    0.6440    0.8860 C.3     1  UNL1        0.0800
      2  C          5.4640    1.0960    1.3130 C.2     1  UNL1        0.1300
      3  C          4.7230    2.1500    0.5690 C.3     1  UNL1        0.0870
      4  O          4.9220    0.6110    2.2920 O.2     1  UNL1       -0.3000
      5  C          6.9600    0.6800   -0.6230 C.3     1  UNL1        0.0430
      6  C          7.5280   -0.5750   -1.1480 C.2     1  UNL1       -0.0440
      7  C          7.8420   -0.7270   -2.5030 C.2     1  UNL1        0.0080
      8  C          7.7600   -1.6290   -0.2930 C.2     1  UNL1        0.0540
      9  C          8.3730   -1.9270   -2.9390 C.2     1  UNL1        0.0510
     10  C          8.2980   -2.8400   -0.7390 C.2     1  UNL1        0.1660
     11  C          8.6070   -2.9900   -2.0720 C.2     1  UNL1        0.1650
     12  O          8.6170   -4.0190   -0.0980 O.2     1  UNL1       -0.4540
     13  O          9.1150   -4.2710   -2.2240 O.2     1  UNL1       -0.4540
     14  C          9.2240   -4.9250   -0.9820 C.3     1  UNL1        0.4680
@<TRIPOS>BOND
     1     9     7    1
     2     9    11    2
     3     7     6    2
     4    13    11    1
     5    13    14    1
     6    11    10    1
     7     6     5    1
     8     6     8    1
     9    14    12    1
    10    10     8    2
    11    10    12    1
    12     5     1    1
    13     3     2    1
    14     1     2    1
    15     2     4    2
