@<TRIPOS>MOLECULE
/home/cewinharhar/GITHUB/reincatalyze/data/processed/docking_pred/2023-May-31-1438_sub9_nm5_bs15_s42_ex16_mel10_mts1000_k50_ec05_g099_lra9e-4_lrc3e-3/e5153a6a2872aa0f73be7da8df97a591d10f8a10_ligand_9.pdbqt
 14 15 0 0 0
SMALL
GASTEIGER

@<TRIPOS>ATOM
      1  C          5.7840    1.3400   -0.3150 C.3     1  UNL1        0.0800
      2  C          5.1520    1.2630    1.0320 C.2     1  UNL1        0.1300
      3  C          5.3930    0.1120    1.9430 C.3     1  UNL1        0.0870
      4  O          4.4130    2.1490    1.4290 O.2     1  UNL1       -0.3000
      5  C          7.2720    1.0620   -0.2410 C.3     1  UNL1        0.0430
      6  C          7.6180   -0.2290   -0.8610 C.2     1  UNL1       -0.0440
      7  C          7.6430   -0.3920   -2.2510 C.2     1  UNL1        0.0080
      8  C          7.9280   -1.3070   -0.0630 C.2     1  UNL1        0.0540
      9  C          7.9760   -1.6280   -2.7750 C.2     1  UNL1        0.0510
     10  C          8.2650   -2.5540   -0.5980 C.2     1  UNL1        0.1660
     11  C          8.2890   -2.7160   -1.9660 C.2     1  UNL1        0.1650
     12  O          8.6060   -3.7610   -0.0260 O.2     1  UNL1       -0.4540
     13  O          8.6490   -4.0320   -2.2070 O.2     1  UNL1       -0.4540
     14  C          8.9480   -4.7060   -1.0080 C.3     1  UNL1        0.4680
@<TRIPOS>BOND
     1     9     7    1
     2     9    11    2
     3     7     6    2
     4    13    11    1
     5    13    14    1
     6    11    10    1
     7    14    12    1
     8     6     5    1
     9     6     8    1
    10    10     8    2
    11    10    12    1
    12     1     5    1
    13     1     2    1
    14     2     4    2
    15     2     3    1
