MODEL 1
REMARK VINA RESULT:      -7.7      0.000      0.000
REMARK SMILES CC(=O)CCc1ccc2c(c1)OCO2
REMARK SMILES IDX 4 1 2 2 1 3 3 4 5 5 6 6 7 7 11 8 8 9 10 10 9 11 12 12 14 13
REMARK SMILES IDX 13 14
REMARK H PARENT
REMARK Flexibility Score: inf
ROOT
ATOM      1  C   UNL     1       5.508   1.939   1.263  1.00  0.00     0.080 C 
ENDROOT
BRANCH   1   2
ATOM      2  C   UNL     1       5.076   0.721   2.003  1.00  0.00     0.130 C 
ATOM      3  C   UNL     1       5.971  -0.457   2.159  1.00  0.00     0.087 C 
ATOM      4  O   UNL     1       3.966   0.654   2.506  1.00  0.00    -0.300 OA
ENDBRANCH   1   2
BRANCH   1   5
ATOM      5  C   UNL     1       5.383   1.746  -0.235  1.00  0.00     0.043 C 
BRANCH   5   6
ATOM      6  C   UNL     1       6.553   1.047  -0.796  1.00  0.00    -0.044 A 
ATOM      7  C   UNL     1       7.858   1.492  -0.556  1.00  0.00     0.008 A 
ATOM      8  C   UNL     1       6.369  -0.074  -1.573  1.00  0.00     0.054 A 
ATOM      9  C   UNL     1       8.917   0.794  -1.108  1.00  0.00     0.051 A 
ATOM     10  C   UNL     1       7.443  -0.777  -2.128  1.00  0.00     0.166 A 
ATOM     11  C   UNL     1       8.728  -0.338  -1.893  1.00  0.00     0.165 A 
ATOM     12  O   UNL     1       7.521  -1.900  -2.923  1.00  0.00    -0.454 OA
ATOM     13  O   UNL     1       9.576  -1.212  -2.555  1.00  0.00    -0.454 OA
ATOM     14  C   UNL     1       8.858  -2.269  -3.145  1.00  0.00     0.468 C 
ENDBRANCH   5   6
ENDBRANCH   1   5
TORSDOF 3
ENDMDL
MODEL 2
REMARK VINA RESULT:      -7.4      1.938      2.436
REMARK SMILES CC(=O)CCc1ccc2c(c1)OCO2
REMARK SMILES IDX 4 1 2 2 1 3 3 4 5 5 6 6 7 7 11 8 8 9 10 10 9 11 12 12 14 13
REMARK SMILES IDX 13 14
REMARK H PARENT
REMARK Flexibility Score: inf
ROOT
ATOM      1  C   UNL     1       5.771   1.262  -0.292  1.00  0.00     0.080 C 
ENDROOT
BRANCH   1   2
ATOM      2  C   UNL     1       5.221   1.207   1.091  1.00  0.00     0.130 C 
ATOM      3  C   UNL     1       5.401   0.010   1.956  1.00  0.00     0.087 C 
ATOM      4  O   UNL     1       4.602   2.150   1.557  1.00  0.00    -0.300 OA
ENDBRANCH   1   2
BRANCH   1   5
ATOM      5  C   UNL     1       7.271   1.047  -0.297  1.00  0.00     0.043 C 
BRANCH   5   6
ATOM      6  C   UNL     1       7.636  -0.250  -0.895  1.00  0.00    -0.044 A 
ATOM      7  C   UNL     1       7.663  -0.435  -2.282  1.00  0.00     0.008 A 
ATOM      8  C   UNL     1       7.962  -1.309  -0.079  1.00  0.00     0.054 A 
ATOM      9  C   UNL     1       8.014  -1.675  -2.786  1.00  0.00     0.051 A 
ATOM     10  C   UNL     1       8.316  -2.560  -0.594  1.00  0.00     0.166 A 
ATOM     11  C   UNL     1       8.342  -2.744  -1.958  1.00  0.00     0.165 A 
ATOM     12  O   UNL     1       8.675  -3.752  -0.002  1.00  0.00    -0.454 OA
ATOM     13  O   UNL     1       8.721  -4.059  -2.178  1.00  0.00    -0.454 OA
ATOM     14  C   UNL     1       9.030  -4.708  -0.968  1.00  0.00     0.468 C 
ENDBRANCH   5   6
ENDBRANCH   1   5
TORSDOF 3
ENDMDL
MODEL 3
REMARK VINA RESULT:      -7.2      2.053      2.644
REMARK SMILES CC(=O)CCc1ccc2c(c1)OCO2
REMARK SMILES IDX 4 1 2 2 1 3 3 4 5 5 6 6 7 7 11 8 8 9 10 10 9 11 12 12 14 13
REMARK SMILES IDX 13 14
REMARK H PARENT
REMARK Flexibility Score: inf
ROOT
ATOM      1  C   UNL     1       5.385  -0.088   2.016  1.00  0.00     0.080 C 
ENDROOT
BRANCH   1   2
ATOM      2  C   UNL     1       4.554   1.124   1.774  1.00  0.00     0.130 C 
ATOM      3  C   UNL     1       4.911   2.120   0.728  1.00  0.00     0.087 C 
ATOM      4  O   UNL     1       3.549   1.337   2.433  1.00  0.00    -0.300 OA
ENDBRANCH   1   2
BRANCH   1   5
ATOM      5  C   UNL     1       6.832   0.151   1.631  1.00  0.00     0.043 C 
BRANCH   5   6
ATOM      6  C   UNL     1       7.270  -0.763   0.561  1.00  0.00    -0.044 A 
ATOM      7  C   UNL     1       7.153  -0.420  -0.790  1.00  0.00     0.008 A 
ATOM      8  C   UNL     1       7.812  -1.986   0.889  1.00  0.00     0.054 A 
ATOM      9  C   UNL     1       7.583  -1.318  -1.750  1.00  0.00     0.051 A 
ATOM     10  C   UNL     1       8.245  -2.890  -0.086  1.00  0.00     0.166 A 
ATOM     11  C   UNL     1       8.129  -2.554  -1.416  1.00  0.00     0.165 A 
ATOM     12  O   UNL     1       8.808  -4.147  -0.017  1.00  0.00    -0.454 OA
ATOM     13  O   UNL     1       8.630  -3.621  -2.145  1.00  0.00    -0.454 OA
ATOM     14  C   UNL     1       9.154  -4.614  -1.296  1.00  0.00     0.468 C 
ENDBRANCH   5   6
ENDBRANCH   1   5
TORSDOF 3
ENDMDL
MODEL 4
REMARK VINA RESULT:      -7.1      1.240      1.445
REMARK SMILES CC(=O)CCc1ccc2c(c1)OCO2
REMARK SMILES IDX 4 1 2 2 1 3 3 4 5 5 6 6 7 7 11 8 8 9 10 10 9 11 12 12 14 13
REMARK SMILES IDX 13 14
REMARK H PARENT
REMARK Flexibility Score: inf
ROOT
ATOM      1  C   UNL     1       6.356   1.273   0.897  1.00  0.00     0.080 C 
ENDROOT
BRANCH   1   2
ATOM      2  C   UNL     1       5.670   0.421   1.909  1.00  0.00     0.130 C 
ATOM      3  C   UNL     1       6.329  -0.774   2.499  1.00  0.00     0.087 C 
ATOM      4  O   UNL     1       4.539   0.682   2.284  1.00  0.00    -0.300 OA
ENDBRANCH   1   2
BRANCH   1   5
ATOM      5  C   UNL     1       5.856   0.975  -0.503  1.00  0.00     0.043 C 
BRANCH   5   6
ATOM      6  C   UNL     1       6.810   0.143  -1.257  1.00  0.00    -0.044 A 
ATOM      7  C   UNL     1       7.525   0.652  -2.347  1.00  0.00     0.008 A 
ATOM      8  C   UNL     1       7.011  -1.168  -0.889  1.00  0.00     0.054 A 
ATOM      9  C   UNL     1       8.408  -0.176  -3.017  1.00  0.00     0.051 A 
ATOM     10  C   UNL     1       7.905  -2.001  -1.569  1.00  0.00     0.166 A 
ATOM     11  C   UNL     1       8.608  -1.501  -2.642  1.00  0.00     0.165 A 
ATOM     12  O   UNL     1       8.275  -3.318  -1.400  1.00  0.00    -0.454 OA
ATOM     13  O   UNL     1       9.405  -2.532  -3.114  1.00  0.00    -0.454 OA
ATOM     14  C   UNL     1       9.293  -3.675  -2.300  1.00  0.00     0.468 C 
ENDBRANCH   5   6
ENDBRANCH   1   5
TORSDOF 3
ENDMDL
MODEL 5
REMARK VINA RESULT:      -6.8      1.257      1.751
REMARK SMILES CC(=O)CCc1ccc2c(c1)OCO2
REMARK SMILES IDX 4 1 2 2 1 3 3 4 5 5 6 6 7 7 11 8 8 9 10 10 9 11 12 12 14 13
REMARK SMILES IDX 13 14
REMARK H PARENT
REMARK Flexibility Score: inf
ROOT
ATOM      1  C   UNL     1       5.317  -0.062   1.975  1.00  0.00     0.080 C 
ENDROOT
BRANCH   1   2
ATOM      2  C   UNL     1       4.437   1.124   1.782  1.00  0.00     0.130 C 
ATOM      3  C   UNL     1       4.726   2.150   0.745  1.00  0.00     0.087 C 
ATOM      4  O   UNL     1       3.447   1.289   2.476  1.00  0.00    -0.300 OA
ENDBRANCH   1   2
BRANCH   1   5
ATOM      5  C   UNL     1       6.782   0.323   1.913  1.00  0.00     0.043 C 
BRANCH   5   6
ATOM      6  C   UNL     1       7.386  -0.032   0.617  1.00  0.00    -0.044 A 
ATOM      7  C   UNL     1       7.883   0.946  -0.253  1.00  0.00     0.008 A 
ATOM      8  C   UNL     1       7.470  -1.354   0.242  1.00  0.00     0.054 A 
ATOM      9  C   UNL     1       8.440   0.553  -1.456  1.00  0.00     0.051 A 
ATOM     10  C   UNL     1       8.035  -1.746  -0.975  1.00  0.00     0.166 A 
ATOM     11  C   UNL     1       8.523  -0.784  -1.832  1.00  0.00     0.165 A 
ATOM     12  O   UNL     1       8.232  -2.975  -1.567  1.00  0.00    -0.454 OA
ATOM     13  O   UNL     1       9.016  -1.450  -2.943  1.00  0.00    -0.454 OA
ATOM     14  C   UNL     1       8.933  -2.846  -2.777  1.00  0.00     0.468 C 
ENDBRANCH   5   6
ENDBRANCH   1   5
TORSDOF 3
ENDMDL
