@<TRIPOS>MOLECULE
/home/cewinharhar/GITHUB/reincatalyze/data/processed/docking_pred/2023-May-31-1438_sub9_nm5_bs15_s42_ex16_mel10_mts1000_k50_ec05_g099_lra9e-4_lrc3e-3/e69dee760b6a4f483691253cffcee702e9155e2b_ligand_9.pdbqt
 14 15 0 0 0
SMALL
GASTEIGER

@<TRIPOS>ATOM
      1  C          5.3850   -0.0880    2.0160 C.3     1  UNL1        0.0800
      2  C          4.5540    1.1240    1.7740 C.2     1  UNL1        0.1300
      3  C          4.9110    2.1200    0.7280 C.3     1  UNL1        0.0870
      4  O          3.5490    1.3370    2.4330 O.2     1  UNL1       -0.3000
      5  C          6.8320    0.1510    1.6310 C.3     1  UNL1        0.0430
      6  C          7.2700   -0.7630    0.5610 C.2     1  UNL1       -0.0440
      7  C          7.1530   -0.4200   -0.7900 C.2     1  UNL1        0.0080
      8  C          7.8120   -1.9860    0.8890 C.2     1  UNL1        0.0540
      9  C          7.5830   -1.3180   -1.7500 C.2     1  UNL1        0.0510
     10  C          8.2450   -2.8900   -0.0860 C.2     1  UNL1        0.1660
     11  C          8.1290   -2.5540   -1.4160 C.2     1  UNL1        0.1650
     12  O          8.8080   -4.1470   -0.0170 O.2     1  UNL1       -0.4540
     13  O          8.6300   -3.6210   -2.1450 O.2     1  UNL1       -0.4540
     14  C          9.1540   -4.6140   -1.2960 C.3     1  UNL1        0.4680
@<TRIPOS>BOND
     1    13    11    1
     2    13    14    1
     3     9    11    2
     4     9     7    1
     5    11    10    1
     6    14    12    1
     7     7     6    2
     8    10    12    1
     9    10     8    2
    10     6     8    1
    11     6     5    1
    12     3     2    1
    13     5     1    1
    14     2     1    1
    15     2     4    2
