@<TRIPOS>MOLECULE
/home/cewinharhar/GITHUB/reincatalyze/data/processed/docking_pred/2023-May-31-1438_sub9_nm5_bs15_s42_ex16_mel10_mts1000_k50_ec05_g099_lra9e-4_lrc3e-3/e72dfb9ce69b60d9dd63e32278a4acfac8a78322_ligand_9.pdbqt
 14 15 0 0 0
SMALL
GASTEIGER

@<TRIPOS>ATOM
      1  C          5.4000   -0.0810    1.9940 C.3     1  UNL1        0.0800
      2  C          4.5720    1.1330    1.7510 C.2     1  UNL1        0.1300
      3  C          4.9040    2.1020    0.6730 C.3     1  UNL1        0.0870
      4  O          3.5900    1.3690    2.4360 O.2     1  UNL1       -0.3000
      5  C          6.8460    0.1520    1.6030 C.3     1  UNL1        0.0430
      6  C          7.2800   -0.7710    0.5400 C.2     1  UNL1       -0.0440
      7  C          7.1530   -0.4410   -0.8140 C.2     1  UNL1        0.0080
      8  C          7.8280   -1.9880    0.8750 C.2     1  UNL1        0.0540
      9  C          7.5790   -1.3470   -1.7690 C.2     1  UNL1        0.0510
     10  C          8.2580   -2.9010   -0.0940 C.2     1  UNL1        0.1660
     11  C          8.1310   -2.5770   -1.4260 C.2     1  UNL1        0.1650
     12  O          8.8250   -4.1550   -0.0170 O.2     1  UNL1       -0.4540
     13  O          8.6300   -3.6500   -2.1480 O.2     1  UNL1       -0.4540
     14  C          9.1640   -4.6340   -1.2930 C.3     1  UNL1        0.4680
@<TRIPOS>BOND
     1    13    11    1
     2    13    14    1
     3     9    11    2
     4     9     7    1
     5    11    10    1
     6    14    12    1
     7     7     6    2
     8    10    12    1
     9    10     8    2
    10     6     8    1
    11     6     5    1
    12     3     2    1
    13     5     1    1
    14     2     1    1
    15     2     4    2
