@<TRIPOS>MOLECULE
/home/cewinharhar/GITHUB/reincatalyze/data/processed/docking_pred/2023-May-31-1438_sub9_nm5_bs15_s42_ex16_mel10_mts1000_k50_ec05_g099_lra9e-4_lrc3e-3/e8fc6854485d68a8d0bf78bf523603f1a9cbeca9_ligand_9.pdbqt
 14 15 0 0 0
SMALL
GASTEIGER

@<TRIPOS>ATOM
      1  C          5.8150    1.3800   -0.3740 C.3     1  UNL1        0.0800
      2  C          5.1770    1.3230    0.9710 C.2     1  UNL1        0.1300
      3  C          5.5250    0.2640    1.9550 C.3     1  UNL1        0.0870
      4  O          4.3440    2.1500    1.3050 O.2     1  UNL1       -0.3000
      5  C          7.3040    1.1120   -0.2890 C.3     1  UNL1        0.0430
      6  C          7.6610   -0.1850   -0.8910 C.2     1  UNL1       -0.0440
      7  C          7.7360   -0.3530   -2.2780 C.2     1  UNL1        0.0080
      8  C          7.9330   -1.2620   -0.0790 C.2     1  UNL1        0.0540
      9  C          8.0770   -1.5930   -2.7870 C.2     1  UNL1        0.0510
     10  C          8.2780   -2.5140   -0.5980 C.2     1  UNL1        0.1660
     11  C          8.3500   -2.6810   -1.9630 C.2     1  UNL1        0.1650
     12  O          8.5870   -3.7220   -0.0090 O.2     1  UNL1       -0.4540
     13  O          8.7070   -4.0010   -2.1870 O.2     1  UNL1       -0.4540
     14  C          8.9560   -4.6730   -0.9750 C.3     1  UNL1        0.4680
@<TRIPOS>BOND
     1     9     7    1
     2     9    11    2
     3     7     6    2
     4    13    11    1
     5    13    14    1
     6    11    10    1
     7    14    12    1
     8     6     5    1
     9     6     8    1
    10    10     8    2
    11    10    12    1
    12     1     5    1
    13     1     2    1
    14     2     4    2
    15     2     3    1
