@<TRIPOS>MOLECULE
/home/cewinharhar/GITHUB/reincatalyze/data/processed/docking_pred/2023-May-31-1438_sub9_nm5_bs15_s42_ex16_mel10_mts1000_k50_ec05_g099_lra9e-4_lrc3e-3/e8fc6854485d68a8d0bf78bf523603f1a9cbeca9_ligand_9.pdbqt
 14 15 0 0 0
SMALL
GASTEIGER

@<TRIPOS>ATOM
      1  C          5.4380   -0.0440    2.0000 C.3     1  UNL1        0.0800
      2  C          4.5830    1.1510    1.7570 C.2     1  UNL1        0.1300
      3  C          4.9070    2.1400    0.6940 C.3     1  UNL1        0.0870
      4  O          3.5860    1.3560    2.4310 O.2     1  UNL1       -0.3000
      5  C          6.8700    0.2070    1.5740 C.3     1  UNL1        0.0430
      6  C          7.2990   -0.7270    0.5170 C.2     1  UNL1       -0.0440
      7  C          7.1810   -0.4020   -0.8390 C.2     1  UNL1        0.0080
      8  C          7.8300   -1.9490    0.8610 C.2     1  UNL1        0.0540
      9  C          7.6000   -1.3190   -1.7870 C.2     1  UNL1        0.0510
     10  C          8.2530   -2.8710   -0.1010 C.2     1  UNL1        0.1660
     11  C          8.1370   -2.5530   -1.4360 C.2     1  UNL1        0.1650
     12  O          8.8050   -4.1310   -0.0150 O.2     1  UNL1       -0.4540
     13  O          8.6260   -3.6360   -2.1490 O.2     1  UNL1       -0.4540
     14  C          9.1440   -4.6210   -1.2870 C.3     1  UNL1        0.4680
@<TRIPOS>BOND
     1    13    11    1
     2    13    14    1
     3     9    11    2
     4     9     7    1
     5    11    10    1
     6    14    12    1
     7     7     6    2
     8    10    12    1
     9    10     8    2
    10     6     8    1
    11     6     5    1
    12     3     2    1
    13     5     1    1
    14     2     1    1
    15     2     4    2
