MODEL 1
REMARK VINA RESULT:      -7.6      0.000      0.000
REMARK SMILES CC(=O)CCc1ccc2c(c1)OCO2
REMARK SMILES IDX 4 1 2 2 1 3 3 4 5 5 6 6 7 7 11 8 8 9 10 10 9 11 12 12 14 13
REMARK SMILES IDX 13 14
REMARK H PARENT
REMARK Flexibility Score: inf
ROOT
ATOM      1  C   UNL     1       5.520   1.941   1.262  1.00  0.00     0.080 C 
ENDROOT
BRANCH   1   2
ATOM      2  C   UNL     1       5.096   0.724   2.008  1.00  0.00     0.130 C 
ATOM      3  C   UNL     1       6.007  -0.437   2.191  1.00  0.00     0.087 C 
ATOM      4  O   UNL     1       3.979   0.644   2.494  1.00  0.00    -0.300 OA
ENDBRANCH   1   2
BRANCH   1   5
ATOM      5  C   UNL     1       5.391   1.741  -0.236  1.00  0.00     0.043 C 
BRANCH   5   6
ATOM      6  C   UNL     1       6.560   1.041  -0.796  1.00  0.00    -0.044 A 
ATOM      7  C   UNL     1       7.866   1.478  -0.546  1.00  0.00     0.008 A 
ATOM      8  C   UNL     1       6.376  -0.073  -1.584  1.00  0.00     0.054 A 
ATOM      9  C   UNL     1       8.925   0.780  -1.098  1.00  0.00     0.051 A 
ATOM     10  C   UNL     1       7.449  -0.775  -2.139  1.00  0.00     0.166 A 
ATOM     11  C   UNL     1       8.734  -0.345  -1.894  1.00  0.00     0.165 A 
ATOM     12  O   UNL     1       7.526  -1.893  -2.943  1.00  0.00    -0.454 OA
ATOM     13  O   UNL     1       9.582  -1.217  -2.559  1.00  0.00    -0.454 OA
ATOM     14  C   UNL     1       8.862  -2.266  -3.162  1.00  0.00     0.468 C 
ENDBRANCH   5   6
ENDBRANCH   1   5
TORSDOF 3
ENDMDL
MODEL 2
REMARK VINA RESULT:      -7.5      1.924      2.414
REMARK SMILES CC(=O)CCc1ccc2c(c1)OCO2
REMARK SMILES IDX 4 1 2 2 1 3 3 4 5 5 6 6 7 7 11 8 8 9 10 10 9 11 12 12 14 13
REMARK SMILES IDX 13 14
REMARK H PARENT
REMARK Flexibility Score: inf
ROOT
ATOM      1  C   UNL     1       5.815   1.380  -0.374  1.00  0.00     0.080 C 
ENDROOT
BRANCH   1   2
ATOM      2  C   UNL     1       5.177   1.323   0.971  1.00  0.00     0.130 C 
ATOM      3  C   UNL     1       5.525   0.264   1.955  1.00  0.00     0.087 C 
ATOM      4  O   UNL     1       4.344   2.150   1.305  1.00  0.00    -0.300 OA
ENDBRANCH   1   2
BRANCH   1   5
ATOM      5  C   UNL     1       7.304   1.112  -0.289  1.00  0.00     0.043 C 
BRANCH   5   6
ATOM      6  C   UNL     1       7.661  -0.185  -0.891  1.00  0.00    -0.044 A 
ATOM      7  C   UNL     1       7.736  -0.353  -2.278  1.00  0.00     0.008 A 
ATOM      8  C   UNL     1       7.933  -1.262  -0.079  1.00  0.00     0.054 A 
ATOM      9  C   UNL     1       8.077  -1.593  -2.787  1.00  0.00     0.051 A 
ATOM     10  C   UNL     1       8.278  -2.514  -0.598  1.00  0.00     0.166 A 
ATOM     11  C   UNL     1       8.350  -2.681  -1.963  1.00  0.00     0.165 A 
ATOM     12  O   UNL     1       8.587  -3.722  -0.009  1.00  0.00    -0.454 OA
ATOM     13  O   UNL     1       8.707  -4.001  -2.187  1.00  0.00    -0.454 OA
ATOM     14  C   UNL     1       8.956  -4.673  -0.975  1.00  0.00     0.468 C 
ENDBRANCH   5   6
ENDBRANCH   1   5
TORSDOF 3
ENDMDL
MODEL 3
REMARK VINA RESULT:      -7.2      2.065      2.635
REMARK SMILES CC(=O)CCc1ccc2c(c1)OCO2
REMARK SMILES IDX 4 1 2 2 1 3 3 4 5 5 6 6 7 7 11 8 8 9 10 10 9 11 12 12 14 13
REMARK SMILES IDX 13 14
REMARK H PARENT
REMARK Flexibility Score: inf
ROOT
ATOM      1  C   UNL     1       5.438  -0.044   2.000  1.00  0.00     0.080 C 
ENDROOT
BRANCH   1   2
ATOM      2  C   UNL     1       4.583   1.151   1.757  1.00  0.00     0.130 C 
ATOM      3  C   UNL     1       4.907   2.140   0.694  1.00  0.00     0.087 C 
ATOM      4  O   UNL     1       3.586   1.356   2.431  1.00  0.00    -0.300 OA
ENDBRANCH   1   2
BRANCH   1   5
ATOM      5  C   UNL     1       6.870   0.207   1.574  1.00  0.00     0.043 C 
BRANCH   5   6
ATOM      6  C   UNL     1       7.299  -0.727   0.517  1.00  0.00    -0.044 A 
ATOM      7  C   UNL     1       7.181  -0.402  -0.839  1.00  0.00     0.008 A 
ATOM      8  C   UNL     1       7.830  -1.949   0.861  1.00  0.00     0.054 A 
ATOM      9  C   UNL     1       7.600  -1.319  -1.787  1.00  0.00     0.051 A 
ATOM     10  C   UNL     1       8.253  -2.871  -0.101  1.00  0.00     0.166 A 
ATOM     11  C   UNL     1       8.137  -2.553  -1.436  1.00  0.00     0.165 A 
ATOM     12  O   UNL     1       8.805  -4.131  -0.015  1.00  0.00    -0.454 OA
ATOM     13  O   UNL     1       8.626  -3.636  -2.149  1.00  0.00    -0.454 OA
ATOM     14  C   UNL     1       9.144  -4.621  -1.287  1.00  0.00     0.468 C 
ENDBRANCH   5   6
ENDBRANCH   1   5
TORSDOF 3
ENDMDL
MODEL 4
REMARK VINA RESULT:      -7.1      1.243      1.441
REMARK SMILES CC(=O)CCc1ccc2c(c1)OCO2
REMARK SMILES IDX 4 1 2 2 1 3 3 4 5 5 6 6 7 7 11 8 8 9 10 10 9 11 12 12 14 13
REMARK SMILES IDX 13 14
REMARK H PARENT
REMARK Flexibility Score: inf
ROOT
ATOM      1  C   UNL     1       6.349   1.232   0.928  1.00  0.00     0.080 C 
ENDROOT
BRANCH   1   2
ATOM      2  C   UNL     1       5.654   0.387   1.939  1.00  0.00     0.130 C 
ATOM      3  C   UNL     1       6.291  -0.830   2.509  1.00  0.00     0.087 C 
ATOM      4  O   UNL     1       4.534   0.672   2.330  1.00  0.00    -0.300 OA
ENDBRANCH   1   2
BRANCH   1   5
ATOM      5  C   UNL     1       5.839   0.949  -0.471  1.00  0.00     0.043 C 
BRANCH   5   6
ATOM      6  C   UNL     1       6.791   0.133  -1.246  1.00  0.00    -0.044 A 
ATOM      7  C   UNL     1       7.480   0.657  -2.346  1.00  0.00     0.008 A 
ATOM      8  C   UNL     1       7.017  -1.176  -0.886  1.00  0.00     0.054 A 
ATOM      9  C   UNL     1       8.361  -0.155  -3.034  1.00  0.00     0.051 A 
ATOM     10  C   UNL     1       7.910  -1.993  -1.585  1.00  0.00     0.166 A 
ATOM     11  C   UNL     1       8.588  -1.479  -2.668  1.00  0.00     0.165 A 
ATOM     12  O   UNL     1       8.302  -3.306  -1.429  1.00  0.00    -0.454 OA
ATOM     13  O   UNL     1       9.391  -2.496  -3.159  1.00  0.00    -0.454 OA
ATOM     14  C   UNL     1       9.309  -3.644  -2.348  1.00  0.00     0.468 C 
ENDBRANCH   5   6
ENDBRANCH   1   5
TORSDOF 3
ENDMDL
MODEL 5
REMARK VINA RESULT:      -7.1      1.973      2.543
REMARK SMILES CC(=O)CCc1ccc2c(c1)OCO2
REMARK SMILES IDX 4 1 2 2 1 3 3 4 5 5 6 6 7 7 11 8 8 9 10 10 9 11 12 12 14 13
REMARK SMILES IDX 13 14
REMARK H PARENT
REMARK Flexibility Score: inf
ROOT
ATOM      1  C   UNL     1       6.806   0.770   1.366  1.00  0.00     0.080 C 
ENDROOT
BRANCH   1   2
ATOM      2  C   UNL     1       5.374   1.168   1.465  1.00  0.00     0.130 C 
ATOM      3  C   UNL     1       4.770   2.150   0.525  1.00  0.00     0.087 C 
ATOM      4  O   UNL     1       4.651   0.697   2.328  1.00  0.00    -0.300 OA
ENDBRANCH   1   2
BRANCH   1   5
ATOM      5  C   UNL     1       7.344   0.993  -0.034  1.00  0.00     0.043 C 
BRANCH   5   6
ATOM      6  C   UNL     1       7.663  -0.280  -0.705  1.00  0.00    -0.044 A 
ATOM      7  C   UNL     1       7.652  -0.396  -2.100  1.00  0.00     0.008 A 
ATOM      8  C   UNL     1       7.984  -1.387   0.048  1.00  0.00     0.054 A 
ATOM      9  C   UNL     1       7.961  -1.616  -2.674  1.00  0.00     0.051 A 
ATOM     10  C   UNL     1       8.296  -2.617  -0.537  1.00  0.00     0.166 A 
ATOM     11  C   UNL     1       8.284  -2.733  -1.910  1.00  0.00     0.165 A 
ATOM     12  O   UNL     1       8.641  -3.846  -0.015  1.00  0.00    -0.454 OA
ATOM     13  O   UNL     1       8.627  -4.043  -2.205  1.00  0.00    -0.454 OA
ATOM     14  C   UNL     1       8.950  -4.759  -1.036  1.00  0.00     0.468 C 
ENDBRANCH   5   6
ENDBRANCH   1   5
TORSDOF 3
ENDMDL
