@<TRIPOS>MOLECULE
/home/cewinharhar/GITHUB/reincatalyze/data/processed/docking_pred/2023-May-31-1438_sub9_nm5_bs15_s42_ex16_mel10_mts1000_k50_ec05_g099_lra9e-4_lrc3e-3/e8fc6854485d68a8d0bf78bf523603f1a9cbeca9_ligand_9.pdbqt
 14 15 0 0 0
SMALL
GASTEIGER

@<TRIPOS>ATOM
      1  C          6.3490    1.2320    0.9280 C.3     1  UNL1        0.0800
      2  C          5.6540    0.3870    1.9390 C.2     1  UNL1        0.1300
      3  C          6.2910   -0.8300    2.5090 C.3     1  UNL1        0.0870
      4  O          4.5340    0.6720    2.3300 O.2     1  UNL1       -0.3000
      5  C          5.8390    0.9490   -0.4710 C.3     1  UNL1        0.0430
      6  C          6.7910    0.1330   -1.2460 C.2     1  UNL1       -0.0440
      7  C          7.4800    0.6570   -2.3460 C.2     1  UNL1        0.0080
      8  C          7.0170   -1.1760   -0.8860 C.2     1  UNL1        0.0540
      9  C          8.3610   -0.1550   -3.0340 C.2     1  UNL1        0.0510
     10  C          7.9100   -1.9930   -1.5850 C.2     1  UNL1        0.1660
     11  C          8.5880   -1.4790   -2.6680 C.2     1  UNL1        0.1650
     12  O          8.3020   -3.3060   -1.4290 O.2     1  UNL1       -0.4540
     13  O          9.3910   -2.4960   -3.1590 O.2     1  UNL1       -0.4540
     14  C          9.3090   -3.6440   -2.3480 C.3     1  UNL1        0.4680
@<TRIPOS>BOND
     1    13    11    1
     2    13    14    1
     3     9    11    2
     4     9     7    1
     5    11    10    1
     6    14    12    1
     7     7     6    2
     8    10    12    1
     9    10     8    2
    10     6     8    1
    11     6     5    1
    12     5     1    1
    13     1     2    1
    14     2     4    2
    15     2     3    1
