@<TRIPOS>MOLECULE
/home/cewinharhar/GITHUB/reincatalyze/data/processed/docking_pred/2023-May-31-1438_sub9_nm5_bs15_s42_ex16_mel10_mts1000_k50_ec05_g099_lra9e-4_lrc3e-3/e8fc6854485d68a8d0bf78bf523603f1a9cbeca9_ligand_9.pdbqt
 14 15 0 0 0
SMALL
GASTEIGER

@<TRIPOS>ATOM
      1  C          6.8060    0.7700    1.3660 C.3     1  UNL1        0.0800
      2  C          5.3740    1.1680    1.4650 C.2     1  UNL1        0.1300
      3  C          4.7700    2.1500    0.5250 C.3     1  UNL1        0.0870
      4  O          4.6510    0.6970    2.3280 O.2     1  UNL1       -0.3000
      5  C          7.3440    0.9930   -0.0340 C.3     1  UNL1        0.0430
      6  C          7.6630   -0.2800   -0.7050 C.2     1  UNL1       -0.0440
      7  C          7.6520   -0.3960   -2.1000 C.2     1  UNL1        0.0080
      8  C          7.9840   -1.3870    0.0480 C.2     1  UNL1        0.0540
      9  C          7.9610   -1.6160   -2.6740 C.2     1  UNL1        0.0510
     10  C          8.2960   -2.6170   -0.5370 C.2     1  UNL1        0.1660
     11  C          8.2840   -2.7330   -1.9100 C.2     1  UNL1        0.1650
     12  O          8.6410   -3.8460   -0.0150 O.2     1  UNL1       -0.4540
     13  O          8.6270   -4.0430   -2.2050 O.2     1  UNL1       -0.4540
     14  C          8.9500   -4.7590   -1.0360 C.3     1  UNL1        0.4680
@<TRIPOS>BOND
     1     9     7    1
     2     9    11    2
     3    13    11    1
     4    13    14    1
     5     7     6    2
     6    11    10    1
     7    14    12    1
     8     6     5    1
     9     6     8    1
    10    10    12    1
    11    10     8    2
    12     5     1    1
    13     3     2    1
    14     1     2    1
    15     2     4    2
