@<TRIPOS>MOLECULE
/home/cewinharhar/GITHUB/reincatalyze/data/processed/docking_pred/2023-May-31-1438_sub9_nm5_bs15_s42_ex16_mel10_mts1000_k50_ec05_g099_lra9e-4_lrc3e-3/e9ca5ba4bc0452251e134010a3e53239cf47eed8_ligand_9.pdbqt
 14 15 0 0 0
SMALL
GASTEIGER

@<TRIPOS>ATOM
      1  C          5.5490    1.8970    1.2870 C.3     1  UNL1        0.0800
      2  C          5.1080    0.6760    2.0160 C.2     1  UNL1        0.1300
      3  C          6.0070   -0.4960    2.1910 C.3     1  UNL1        0.0870
      4  O          3.9870    0.6010    2.4930 O.2     1  UNL1       -0.3000
      5  C          5.4160    1.7210   -0.2130 C.3     1  UNL1        0.0430
      6  C          6.5780    1.0190   -0.7860 C.2     1  UNL1       -0.0440
      7  C          7.8870    1.4560   -0.5520 C.2     1  UNL1        0.0080
      8  C          6.3830   -0.0950   -1.5700 C.2     1  UNL1        0.0540
      9  C          8.9380    0.7570   -1.1160 C.2     1  UNL1        0.0510
     10  C          7.4500   -0.8000   -2.1360 C.2     1  UNL1        0.1660
     11  C          8.7380   -0.3690   -1.9080 C.2     1  UNL1        0.1650
     12  O          7.5170   -1.9180   -2.9400 O.2     1  UNL1       -0.4540
     13  O          9.5780   -1.2430   -2.5810 O.2     1  UNL1       -0.4540
     14  C          8.8500   -2.2920   -3.1740 C.3     1  UNL1        0.4680
@<TRIPOS>BOND
     1    14    12    1
     2    14    13    1
     3    12    10    1
     4    13    11    1
     5    10    11    2
     6    10     8    1
     7    11     9    1
     8     8     6    2
     9     9     7    2
    10     6     7    1
    11     6     5    1
    12     5     1    1
    13     1     2    1
    14     2     3    1
    15     2     4    2
