@<TRIPOS>MOLECULE
/home/cewinharhar/GITHUB/reincatalyze/data/processed/docking_pred/2023-May-31-1438_sub9_nm5_bs15_s42_ex16_mel10_mts1000_k50_ec05_g099_lra9e-4_lrc3e-3/e9ca5ba4bc0452251e134010a3e53239cf47eed8_ligand_9.pdbqt
 14 15 0 0 0
SMALL
GASTEIGER

@<TRIPOS>ATOM
      1  C          6.8440    0.8000    1.2160 C.3     1  UNL1        0.0800
      2  C          5.4240    1.2240    1.3680 C.2     1  UNL1        0.1300
      3  C          4.7770    2.1500    0.4010 C.3     1  UNL1        0.0870
      4  O          4.7460    0.8200    2.3000 O.2     1  UNL1       -0.3000
      5  C          7.3250    0.9910   -0.2090 C.3     1  UNL1        0.0430
      6  C          7.7090   -0.2880   -0.8320 C.2     1  UNL1       -0.0440
      7  C          7.8190   -0.4230   -2.2200 C.2     1  UNL1        0.0080
      8  C          7.9720   -1.3820   -0.0380 C.2     1  UNL1        0.0540
      9  C          8.1840   -1.6480   -2.7490 C.2     1  UNL1        0.0510
     10  C          8.3410   -2.6180   -0.5770 C.2     1  UNL1        0.1660
     11  C          8.4470   -2.7520   -1.9440 C.2     1  UNL1        0.1650
     12  O          8.6480   -3.8360   -0.0100 O.2     1  UNL1       -0.4540
     13  O          8.8230   -4.0630   -2.1900 O.2     1  UNL1       -0.4540
     14  C          9.0490   -4.7610   -0.9880 C.3     1  UNL1        0.4680
@<TRIPOS>BOND
     1     9     7    1
     2     9    11    2
     3     7     6    2
     4    13    11    1
     5    13    14    1
     6    11    10    1
     7    14    12    1
     8     6     5    1
     9     6     8    1
    10    10     8    2
    11    10    12    1
    12     5     1    1
    13     3     2    1
    14     1     2    1
    15     2     4    2
