MODEL 1
REMARK VINA RESULT:      -7.6      0.000      0.000
REMARK SMILES CC(=O)CCc1ccc2c(c1)OCO2
REMARK SMILES IDX 4 1 2 2 1 3 3 4 5 5 6 6 7 7 11 8 8 9 10 10 9 11 12 12 14 13
REMARK SMILES IDX 13 14
REMARK H PARENT
REMARK Flexibility Score: inf
ROOT
ATOM      1  C   UNL     1       5.549   1.897   1.287  1.00  0.00     0.080 C 
ENDROOT
BRANCH   1   2
ATOM      2  C   UNL     1       5.108   0.676   2.016  1.00  0.00     0.130 C 
ATOM      3  C   UNL     1       6.007  -0.496   2.191  1.00  0.00     0.087 C 
ATOM      4  O   UNL     1       3.987   0.601   2.493  1.00  0.00    -0.300 OA
ENDBRANCH   1   2
BRANCH   1   5
ATOM      5  C   UNL     1       5.416   1.721  -0.213  1.00  0.00     0.043 C 
BRANCH   5   6
ATOM      6  C   UNL     1       6.578   1.019  -0.786  1.00  0.00    -0.044 A 
ATOM      7  C   UNL     1       7.887   1.456  -0.552  1.00  0.00     0.008 A 
ATOM      8  C   UNL     1       6.383  -0.095  -1.570  1.00  0.00     0.054 A 
ATOM      9  C   UNL     1       8.938   0.757  -1.116  1.00  0.00     0.051 A 
ATOM     10  C   UNL     1       7.450  -0.800  -2.136  1.00  0.00     0.166 A 
ATOM     11  C   UNL     1       8.738  -0.369  -1.908  1.00  0.00     0.165 A 
ATOM     12  O   UNL     1       7.517  -1.918  -2.940  1.00  0.00    -0.454 OA
ATOM     13  O   UNL     1       9.578  -1.243  -2.581  1.00  0.00    -0.454 OA
ATOM     14  C   UNL     1       8.850  -2.292  -3.174  1.00  0.00     0.468 C 
ENDBRANCH   5   6
ENDBRANCH   1   5
TORSDOF 3
ENDMDL
MODEL 2
REMARK VINA RESULT:      -7.2      2.034      2.616
REMARK SMILES CC(=O)CCc1ccc2c(c1)OCO2
REMARK SMILES IDX 4 1 2 2 1 3 3 4 5 5 6 6 7 7 11 8 8 9 10 10 9 11 12 12 14 13
REMARK SMILES IDX 13 14
REMARK H PARENT
REMARK Flexibility Score: inf
ROOT
ATOM      1  C   UNL     1       5.372  -0.089   2.015  1.00  0.00     0.080 C 
ENDROOT
BRANCH   1   2
ATOM      2  C   UNL     1       4.549   1.129   1.775  1.00  0.00     0.130 C 
ATOM      3  C   UNL     1       4.907   2.119   0.724  1.00  0.00     0.087 C 
ATOM      4  O   UNL     1       3.550   1.352   2.440  1.00  0.00    -0.300 OA
ENDBRANCH   1   2
BRANCH   1   5
ATOM      5  C   UNL     1       6.822   0.144   1.640  1.00  0.00     0.043 C 
BRANCH   5   6
ATOM      6  C   UNL     1       7.258  -0.758   0.559  1.00  0.00    -0.044 A 
ATOM      7  C   UNL     1       7.137  -0.400  -0.789  1.00  0.00     0.008 A 
ATOM      8  C   UNL     1       7.802  -1.984   0.871  1.00  0.00     0.054 A 
ATOM      9  C   UNL     1       7.564  -1.287  -1.760  1.00  0.00     0.051 A 
ATOM     10  C   UNL     1       8.233  -2.877  -0.115  1.00  0.00     0.166 A 
ATOM     11  C   UNL     1       8.112  -2.526  -1.441  1.00  0.00     0.165 A 
ATOM     12  O   UNL     1       8.797  -4.134  -0.062  1.00  0.00    -0.454 OA
ATOM     13  O   UNL     1       8.612  -3.585  -2.183  1.00  0.00    -0.454 OA
ATOM     14  C   UNL     1       9.139  -4.587  -1.347  1.00  0.00     0.468 C 
ENDBRANCH   5   6
ENDBRANCH   1   5
TORSDOF 3
ENDMDL
MODEL 3
REMARK VINA RESULT:      -7.1      1.959      2.543
REMARK SMILES CC(=O)CCc1ccc2c(c1)OCO2
REMARK SMILES IDX 4 1 2 2 1 3 3 4 5 5 6 6 7 7 11 8 8 9 10 10 9 11 12 12 14 13
REMARK SMILES IDX 13 14
REMARK H PARENT
REMARK Flexibility Score: inf
ROOT
ATOM      1  C   UNL     1       6.844   0.800   1.216  1.00  0.00     0.080 C 
ENDROOT
BRANCH   1   2
ATOM      2  C   UNL     1       5.424   1.224   1.368  1.00  0.00     0.130 C 
ATOM      3  C   UNL     1       4.777   2.150   0.401  1.00  0.00     0.087 C 
ATOM      4  O   UNL     1       4.746   0.820   2.300  1.00  0.00    -0.300 OA
ENDBRANCH   1   2
BRANCH   1   5
ATOM      5  C   UNL     1       7.325   0.991  -0.209  1.00  0.00     0.043 C 
BRANCH   5   6
ATOM      6  C   UNL     1       7.709  -0.288  -0.832  1.00  0.00    -0.044 A 
ATOM      7  C   UNL     1       7.819  -0.423  -2.220  1.00  0.00     0.008 A 
ATOM      8  C   UNL     1       7.972  -1.382  -0.038  1.00  0.00     0.054 A 
ATOM      9  C   UNL     1       8.184  -1.648  -2.749  1.00  0.00     0.051 A 
ATOM     10  C   UNL     1       8.341  -2.618  -0.577  1.00  0.00     0.166 A 
ATOM     11  C   UNL     1       8.447  -2.752  -1.944  1.00  0.00     0.165 A 
ATOM     12  O   UNL     1       8.648  -3.836  -0.010  1.00  0.00    -0.454 OA
ATOM     13  O   UNL     1       8.823  -4.063  -2.190  1.00  0.00    -0.454 OA
ATOM     14  C   UNL     1       9.049  -4.761  -0.988  1.00  0.00     0.468 C 
ENDBRANCH   5   6
ENDBRANCH   1   5
TORSDOF 3
ENDMDL
MODEL 4
REMARK VINA RESULT:      -7.1      1.249      1.452
REMARK SMILES CC(=O)CCc1ccc2c(c1)OCO2
REMARK SMILES IDX 4 1 2 2 1 3 3 4 5 5 6 6 7 7 11 8 8 9 10 10 9 11 12 12 14 13
REMARK SMILES IDX 13 14
REMARK H PARENT
REMARK Flexibility Score: inf
ROOT
ATOM      1  C   UNL     1       6.388   1.226   0.938  1.00  0.00     0.080 C 
ENDROOT
BRANCH   1   2
ATOM      2  C   UNL     1       5.682   0.378   1.938  1.00  0.00     0.130 C 
ATOM      3  C   UNL     1       6.307  -0.849   2.500  1.00  0.00     0.087 C 
ATOM      4  O   UNL     1       4.562   0.667   2.326  1.00  0.00    -0.300 OA
ENDBRANCH   1   2
BRANCH   1   5
ATOM      5  C   UNL     1       5.881   0.959  -0.466  1.00  0.00     0.043 C 
BRANCH   5   6
ATOM      6  C   UNL     1       6.820   0.124  -1.236  1.00  0.00    -0.044 A 
ATOM      7  C   UNL     1       7.495   0.622  -2.357  1.00  0.00     0.008 A 
ATOM      8  C   UNL     1       7.048  -1.178  -0.852  1.00  0.00     0.054 A 
ATOM      9  C   UNL     1       8.365  -0.208  -3.040  1.00  0.00     0.051 A 
ATOM     10  C   UNL     1       7.930  -2.013  -1.545  1.00  0.00     0.166 A 
ATOM     11  C   UNL     1       8.593  -1.524  -2.649  1.00  0.00     0.165 A 
ATOM     12  O   UNL     1       8.320  -3.323  -1.366  1.00  0.00    -0.454 OA
ATOM     13  O   UNL     1       9.386  -2.554  -3.128  1.00  0.00    -0.454 OA
ATOM     14  C   UNL     1       9.313  -3.684  -2.292  1.00  0.00     0.468 C 
ENDBRANCH   5   6
ENDBRANCH   1   5
TORSDOF 3
ENDMDL
MODEL 5
REMARK VINA RESULT:      -7.1      1.927      2.442
REMARK SMILES CC(=O)CCc1ccc2c(c1)OCO2
REMARK SMILES IDX 4 1 2 2 1 3 3 4 5 5 6 6 7 7 11 8 8 9 10 10 9 11 12 12 14 13
REMARK SMILES IDX 13 14
REMARK H PARENT
REMARK Flexibility Score: inf
ROOT
ATOM      1  C   UNL     1       5.771   1.128  -0.245  1.00  0.00     0.080 C 
ENDROOT
BRANCH   1   2
ATOM      2  C   UNL     1       5.689   1.152   1.242  1.00  0.00     0.130 C 
ATOM      3  C   UNL     1       5.223  -0.028   2.017  1.00  0.00     0.087 C 
ATOM      4  O   UNL     1       6.004   2.149   1.871  1.00  0.00    -0.300 OA
ENDBRANCH   1   2
BRANCH   1   5
ATOM      5  C   UNL     1       7.211   1.144  -0.718  1.00  0.00     0.043 C 
BRANCH   5   6
ATOM      6  C   UNL     1       7.640  -0.178  -1.208  1.00  0.00    -0.044 A 
ATOM      7  C   UNL     1       7.852  -0.422  -2.570  1.00  0.00     0.008 A 
ATOM      8  C   UNL     1       7.842  -1.204  -0.313  1.00  0.00     0.054 A 
ATOM      9  C   UNL     1       8.255  -1.683  -2.971  1.00  0.00     0.051 A 
ATOM     10  C   UNL     1       8.250  -2.477  -0.724  1.00  0.00     0.166 A 
ATOM     11  C   UNL     1       8.458  -2.718  -2.064  1.00  0.00     0.165 A 
ATOM     12  O   UNL     1       8.514  -3.645  -0.040  1.00  0.00    -0.454 OA
ATOM     13  O   UNL     1       8.850  -4.043  -2.176  1.00  0.00    -0.454 OA
ATOM     14  C   UNL     1       8.987  -4.642  -0.910  1.00  0.00     0.468 C 
ENDBRANCH   5   6
ENDBRANCH   1   5
TORSDOF 3
ENDMDL
