@<TRIPOS>MOLECULE
/home/cewinharhar/GITHUB/reincatalyze/data/processed/docking_pred/2023-May-31-1438_sub9_nm5_bs15_s42_ex16_mel10_mts1000_k50_ec05_g099_lra9e-4_lrc3e-3/e9ca5ba4bc0452251e134010a3e53239cf47eed8_ligand_9.pdbqt
 14 15 0 0 0
SMALL
GASTEIGER

@<TRIPOS>ATOM
      1  C          6.3880    1.2260    0.9380 C.3     1  UNL1        0.0800
      2  C          5.6820    0.3780    1.9380 C.2     1  UNL1        0.1300
      3  C          6.3070   -0.8490    2.5000 C.3     1  UNL1        0.0870
      4  O          4.5620    0.6670    2.3260 O.2     1  UNL1       -0.3000
      5  C          5.8810    0.9590   -0.4660 C.3     1  UNL1        0.0430
      6  C          6.8200    0.1240   -1.2360 C.2     1  UNL1       -0.0440
      7  C          7.4950    0.6220   -2.3570 C.2     1  UNL1        0.0080
      8  C          7.0480   -1.1780   -0.8520 C.2     1  UNL1        0.0540
      9  C          8.3650   -0.2080   -3.0400 C.2     1  UNL1        0.0510
     10  C          7.9300   -2.0130   -1.5450 C.2     1  UNL1        0.1660
     11  C          8.5930   -1.5240   -2.6490 C.2     1  UNL1        0.1650
     12  O          8.3200   -3.3230   -1.3660 O.2     1  UNL1       -0.4540
     13  O          9.3860   -2.5540   -3.1280 O.2     1  UNL1       -0.4540
     14  C          9.3130   -3.6840   -2.2920 C.3     1  UNL1        0.4680
@<TRIPOS>BOND
     1    13    11    1
     2    13    14    1
     3     9    11    2
     4     9     7    1
     5    11    10    1
     6     7     6    2
     7    14    12    1
     8    10    12    1
     9    10     8    2
    10     6     8    1
    11     6     5    1
    12     5     1    1
    13     1     2    1
    14     2     4    2
    15     2     3    1
