@<TRIPOS>MOLECULE
/home/cewinharhar/GITHUB/reincatalyze/data/processed/docking_pred/2023-May-31-1438_sub9_nm5_bs15_s42_ex16_mel10_mts1000_k50_ec05_g099_lra9e-4_lrc3e-3/e9ca5ba4bc0452251e134010a3e53239cf47eed8_ligand_9.pdbqt
 14 15 0 0 0
SMALL
GASTEIGER

@<TRIPOS>ATOM
      1  C          5.7710    1.1280   -0.2450 C.3     1  UNL1        0.0800
      2  C          5.6890    1.1520    1.2420 C.2     1  UNL1        0.1300
      3  C          5.2230   -0.0280    2.0170 C.3     1  UNL1        0.0870
      4  O          6.0040    2.1490    1.8710 O.2     1  UNL1       -0.3000
      5  C          7.2110    1.1440   -0.7180 C.3     1  UNL1        0.0430
      6  C          7.6400   -0.1780   -1.2080 C.2     1  UNL1       -0.0440
      7  C          7.8520   -0.4220   -2.5700 C.2     1  UNL1        0.0080
      8  C          7.8420   -1.2040   -0.3130 C.2     1  UNL1        0.0540
      9  C          8.2550   -1.6830   -2.9710 C.2     1  UNL1        0.0510
     10  C          8.2500   -2.4770   -0.7240 C.2     1  UNL1        0.1660
     11  C          8.4580   -2.7180   -2.0640 C.2     1  UNL1        0.1650
     12  O          8.5140   -3.6450   -0.0400 O.2     1  UNL1       -0.4540
     13  O          8.8500   -4.0430   -2.1760 O.2     1  UNL1       -0.4540
     14  C          8.9870   -4.6420   -0.9100 C.3     1  UNL1        0.4680
@<TRIPOS>BOND
     1     9     7    1
     2     9    11    2
     3     7     6    2
     4    13    11    1
     5    13    14    1
     6    11    10    1
     7     6     5    1
     8     6     8    1
     9    14    12    1
    10    10     8    2
    11    10    12    1
    12     5     1    1
    13     1     2    1
    14     2     4    2
    15     2     3    1
