@<TRIPOS>MOLECULE
/home/cewinharhar/GITHUB/reincatalyze/data/processed/docking_pred/2023-May-31-1438_sub9_nm5_bs15_s42_ex16_mel10_mts1000_k50_ec05_g099_lra9e-4_lrc3e-3/ea9f39b4277e7ba3f00603e8654b95ed05d2571c_ligand_9.pdbqt
 14 15 0 0 0
SMALL
GASTEIGER

@<TRIPOS>ATOM
      1  C          5.5280    1.9050    1.2730 C.3     1  UNL1        0.0800
      2  C          5.0810    0.6860    2.0030 C.2     1  UNL1        0.1300
      3  C          5.9640   -0.5020    2.1530 C.3     1  UNL1        0.0870
      4  O          3.9690    0.6270    2.5020 O.2     1  UNL1       -0.3000
      5  C          5.4030    1.7250   -0.2270 C.3     1  UNL1        0.0430
      6  C          6.5700    1.0250   -0.7920 C.2     1  UNL1       -0.0440
      7  C          7.8770    1.4540   -0.5370 C.2     1  UNL1        0.0080
      8  C          6.3810   -0.0810   -1.5900 C.2     1  UNL1        0.0540
      9  C          8.9340    0.7560   -1.0940 C.2     1  UNL1        0.0510
     10  C          7.4520   -0.7840   -2.1500 C.2     1  UNL1        0.1660
     11  C          8.7390   -0.3610   -1.9010 C.2     1  UNL1        0.1650
     12  O          7.5240   -1.8940   -2.9640 O.2     1  UNL1       -0.4540
     13  O          9.5830   -1.2310   -2.5730 O.2     1  UNL1       -0.4540
     14  C          8.8590   -2.2710   -3.1850 C.3     1  UNL1        0.4680
@<TRIPOS>BOND
     1    14    12    1
     2    14    13    1
     3    12    10    1
     4    13    11    1
     5    10    11    2
     6    10     8    1
     7    11     9    1
     8     8     6    2
     9     9     7    2
    10     6     7    1
    11     6     5    1
    12     5     1    1
    13     1     2    1
    14     2     3    1
    15     2     4    2
