@<TRIPOS>MOLECULE
/home/cewinharhar/GITHUB/reincatalyze/data/processed/docking_pred/2023-May-31-1438_sub9_nm5_bs15_s42_ex16_mel10_mts1000_k50_ec05_g099_lra9e-4_lrc3e-3/ea9f39b4277e7ba3f00603e8654b95ed05d2571c_ligand_9.pdbqt
 14 15 0 0 0
SMALL
GASTEIGER

@<TRIPOS>ATOM
      1  C          5.7040    1.2980   -0.2650 C.3     1  UNL1        0.0800
      2  C          5.1150    1.2550    1.1020 C.2     1  UNL1        0.1300
      3  C          5.4000    0.1380    2.0410 C.3     1  UNL1        0.0870
      4  O          4.3750    2.1440    1.4940 O.2     1  UNL1       -0.3000
      5  C          7.2030    1.0790   -0.2250 C.3     1  UNL1        0.0430
      6  C          7.5850   -0.2050   -0.8400 C.2     1  UNL1       -0.0440
      7  C          7.6550   -0.3610   -2.2290 C.2     1  UNL1        0.0080
      8  C          7.8840   -1.2830   -0.0390 C.2     1  UNL1        0.0540
      9  C          8.0190   -1.5890   -2.7500 C.2     1  UNL1        0.0510
     10  C          8.2530   -2.5230   -0.5700 C.2     1  UNL1        0.1660
     11  C          8.3200   -2.6770   -1.9360 C.2     1  UNL1        0.1650
     12  O          8.5920   -3.7290    0.0070 O.2     1  UNL1       -0.4540
     13  O          8.7050   -3.9880   -2.1730 O.2     1  UNL1       -0.4540
     14  C          8.9750   -4.6640   -0.9690 C.3     1  UNL1        0.4680
@<TRIPOS>BOND
     1     9     7    1
     2     9    11    2
     3     7     6    2
     4    13    11    1
     5    13    14    1
     6    11    10    1
     7    14    12    1
     8     6     5    1
     9     6     8    1
    10    10     8    2
    11    10    12    1
    12     1     5    1
    13     1     2    1
    14     2     4    2
    15     2     3    1
