@<TRIPOS>MOLECULE
/home/cewinharhar/GITHUB/reincatalyze/data/processed/docking_pred/2023-May-31-1438_sub9_nm5_bs15_s42_ex16_mel10_mts1000_k50_ec05_g099_lra9e-4_lrc3e-3/ea9f39b4277e7ba3f00603e8654b95ed05d2571c_ligand_9.pdbqt
 14 15 0 0 0
SMALL
GASTEIGER

@<TRIPOS>ATOM
      1  C          6.4040    1.1900    0.9240 C.3     1  UNL1        0.0800
      2  C          5.6920    0.3720    1.9450 C.2     1  UNL1        0.1300
      3  C          6.3120   -0.8390    2.5470 C.3     1  UNL1        0.0870
      4  O          4.5700    0.6730    2.3180 O.2     1  UNL1       -0.3000
      5  C          5.8870    0.9010   -0.4710 C.3     1  UNL1        0.0430
      6  C          6.8330    0.0790   -1.2460 C.2     1  UNL1       -0.0440
      7  C          7.5190    0.5950   -2.3510 C.2     1  UNL1        0.0080
      8  C          7.0570   -1.2290   -0.8810 C.2     1  UNL1        0.0540
      9  C          8.3950   -0.2240   -3.0390 C.2     1  UNL1        0.0510
     10  C          7.9440   -2.0530   -1.5790 C.2     1  UNL1        0.1660
     11  C          8.6190   -1.5460   -2.6680 C.2     1  UNL1        0.1650
     12  O          8.3330   -3.3660   -1.4180 O.2     1  UNL1       -0.4540
     13  O          9.4170   -2.5690   -3.1570 O.2     1  UNL1       -0.4540
     14  C          9.3350   -3.7120   -2.3400 C.3     1  UNL1        0.4680
@<TRIPOS>BOND
     1    13    11    1
     2    13    14    1
     3     9    11    2
     4     9     7    1
     5    11    10    1
     6     7     6    2
     7    14    12    1
     8    10    12    1
     9    10     8    2
    10     6     8    1
    11     6     5    1
    12     5     1    1
    13     1     2    1
    14     2     4    2
    15     2     3    1
