MODEL 1
REMARK VINA RESULT:      -7.7      0.000      0.000
REMARK SMILES CC(=O)CCc1ccc2c(c1)OCO2
REMARK SMILES IDX 4 1 2 2 1 3 3 4 5 5 6 6 7 7 11 8 8 9 10 10 9 11 12 12 14 13
REMARK SMILES IDX 13 14
REMARK H PARENT
REMARK Flexibility Score: inf
ROOT
ATOM      1  C   UNL     1       5.528   1.905   1.273  1.00  0.00     0.080 C 
ENDROOT
BRANCH   1   2
ATOM      2  C   UNL     1       5.081   0.686   2.003  1.00  0.00     0.130 C 
ATOM      3  C   UNL     1       5.964  -0.502   2.153  1.00  0.00     0.087 C 
ATOM      4  O   UNL     1       3.969   0.627   2.502  1.00  0.00    -0.300 OA
ENDBRANCH   1   2
BRANCH   1   5
ATOM      5  C   UNL     1       5.403   1.725  -0.227  1.00  0.00     0.043 C 
BRANCH   5   6
ATOM      6  C   UNL     1       6.570   1.025  -0.792  1.00  0.00    -0.044 A 
ATOM      7  C   UNL     1       7.877   1.454  -0.537  1.00  0.00     0.008 A 
ATOM      8  C   UNL     1       6.381  -0.081  -1.590  1.00  0.00     0.054 A 
ATOM      9  C   UNL     1       8.934   0.756  -1.094  1.00  0.00     0.051 A 
ATOM     10  C   UNL     1       7.452  -0.784  -2.150  1.00  0.00     0.166 A 
ATOM     11  C   UNL     1       8.739  -0.361  -1.901  1.00  0.00     0.165 A 
ATOM     12  O   UNL     1       7.524  -1.894  -2.964  1.00  0.00    -0.454 OA
ATOM     13  O   UNL     1       9.583  -1.231  -2.573  1.00  0.00    -0.454 OA
ATOM     14  C   UNL     1       8.859  -2.271  -3.185  1.00  0.00     0.468 C 
ENDBRANCH   5   6
ENDBRANCH   1   5
TORSDOF 3
ENDMDL
MODEL 2
REMARK VINA RESULT:      -7.5      1.937      2.389
REMARK SMILES CC(=O)CCc1ccc2c(c1)OCO2
REMARK SMILES IDX 4 1 2 2 1 3 3 4 5 5 6 6 7 7 11 8 8 9 10 10 9 11 12 12 14 13
REMARK SMILES IDX 13 14
REMARK H PARENT
REMARK Flexibility Score: inf
ROOT
ATOM      1  C   UNL     1       5.704   1.298  -0.265  1.00  0.00     0.080 C 
ENDROOT
BRANCH   1   2
ATOM      2  C   UNL     1       5.115   1.255   1.102  1.00  0.00     0.130 C 
ATOM      3  C   UNL     1       5.400   0.138   2.041  1.00  0.00     0.087 C 
ATOM      4  O   UNL     1       4.375   2.144   1.494  1.00  0.00    -0.300 OA
ENDBRANCH   1   2
BRANCH   1   5
ATOM      5  C   UNL     1       7.203   1.079  -0.225  1.00  0.00     0.043 C 
BRANCH   5   6
ATOM      6  C   UNL     1       7.585  -0.205  -0.840  1.00  0.00    -0.044 A 
ATOM      7  C   UNL     1       7.655  -0.361  -2.229  1.00  0.00     0.008 A 
ATOM      8  C   UNL     1       7.884  -1.283  -0.039  1.00  0.00     0.054 A 
ATOM      9  C   UNL     1       8.019  -1.589  -2.750  1.00  0.00     0.051 A 
ATOM     10  C   UNL     1       8.253  -2.523  -0.570  1.00  0.00     0.166 A 
ATOM     11  C   UNL     1       8.320  -2.677  -1.936  1.00  0.00     0.165 A 
ATOM     12  O   UNL     1       8.592  -3.729   0.007  1.00  0.00    -0.454 OA
ATOM     13  O   UNL     1       8.705  -3.988  -2.173  1.00  0.00    -0.454 OA
ATOM     14  C   UNL     1       8.975  -4.664  -0.969  1.00  0.00     0.468 C 
ENDBRANCH   5   6
ENDBRANCH   1   5
TORSDOF 3
ENDMDL
MODEL 3
REMARK VINA RESULT:      -7.2      2.092      2.625
REMARK SMILES CC(=O)CCc1ccc2c(c1)OCO2
REMARK SMILES IDX 4 1 2 2 1 3 3 4 5 5 6 6 7 7 11 8 8 9 10 10 9 11 12 12 14 13
REMARK SMILES IDX 13 14
REMARK H PARENT
REMARK Flexibility Score: inf
ROOT
ATOM      1  C   UNL     1       5.528  -0.004   1.936  1.00  0.00     0.080 C 
ENDROOT
BRANCH   1   2
ATOM      2  C   UNL     1       4.648   1.162   1.645  1.00  0.00     0.130 C 
ATOM      3  C   UNL     1       4.944   2.107   0.535  1.00  0.00     0.087 C 
ATOM      4  O   UNL     1       3.651   1.378   2.316  1.00  0.00    -0.300 OA
ENDBRANCH   1   2
BRANCH   1   5
ATOM      5  C   UNL     1       6.949   0.251   1.474  1.00  0.00     0.043 C 
BRANCH   5   6
ATOM      6  C   UNL     1       7.366  -0.708   0.434  1.00  0.00    -0.044 A 
ATOM      7  C   UNL     1       7.276  -0.397  -0.927  1.00  0.00     0.008 A 
ATOM      8  C   UNL     1       7.859  -1.939   0.800  1.00  0.00     0.054 A 
ATOM      9  C   UNL     1       7.683  -1.336  -1.858  1.00  0.00     0.051 A 
ATOM     10  C   UNL     1       8.269  -2.885  -0.144  1.00  0.00     0.166 A 
ATOM     11  C   UNL     1       8.180  -2.581  -1.484  1.00  0.00     0.165 A 
ATOM     12  O   UNL     1       8.785  -4.159  -0.036  1.00  0.00    -0.454 OA
ATOM     13  O   UNL     1       8.649  -3.685  -2.178  1.00  0.00    -0.454 OA
ATOM     14  C   UNL     1       9.128  -4.673  -1.297  1.00  0.00     0.468 C 
ENDBRANCH   5   6
ENDBRANCH   1   5
TORSDOF 3
ENDMDL
MODEL 4
REMARK VINA RESULT:      -7.1      1.264      1.484
REMARK SMILES CC(=O)CCc1ccc2c(c1)OCO2
REMARK SMILES IDX 4 1 2 2 1 3 3 4 5 5 6 6 7 7 11 8 8 9 10 10 9 11 12 12 14 13
REMARK SMILES IDX 13 14
REMARK H PARENT
REMARK Flexibility Score: inf
ROOT
ATOM      1  C   UNL     1       6.404   1.190   0.924  1.00  0.00     0.080 C 
ENDROOT
BRANCH   1   2
ATOM      2  C   UNL     1       5.692   0.372   1.945  1.00  0.00     0.130 C 
ATOM      3  C   UNL     1       6.312  -0.839   2.547  1.00  0.00     0.087 C 
ATOM      4  O   UNL     1       4.570   0.673   2.318  1.00  0.00    -0.300 OA
ENDBRANCH   1   2
BRANCH   1   5
ATOM      5  C   UNL     1       5.887   0.901  -0.471  1.00  0.00     0.043 C 
BRANCH   5   6
ATOM      6  C   UNL     1       6.833   0.079  -1.246  1.00  0.00    -0.044 A 
ATOM      7  C   UNL     1       7.519   0.595  -2.351  1.00  0.00     0.008 A 
ATOM      8  C   UNL     1       7.057  -1.229  -0.881  1.00  0.00     0.054 A 
ATOM      9  C   UNL     1       8.395  -0.224  -3.039  1.00  0.00     0.051 A 
ATOM     10  C   UNL     1       7.944  -2.053  -1.579  1.00  0.00     0.166 A 
ATOM     11  C   UNL     1       8.619  -1.546  -2.668  1.00  0.00     0.165 A 
ATOM     12  O   UNL     1       8.333  -3.366  -1.418  1.00  0.00    -0.454 OA
ATOM     13  O   UNL     1       9.417  -2.569  -3.157  1.00  0.00    -0.454 OA
ATOM     14  C   UNL     1       9.335  -3.712  -2.340  1.00  0.00     0.468 C 
ENDBRANCH   5   6
ENDBRANCH   1   5
TORSDOF 3
ENDMDL
MODEL 5
REMARK VINA RESULT:      -6.8      1.942      2.553
REMARK SMILES CC(=O)CCc1ccc2c(c1)OCO2
REMARK SMILES IDX 4 1 2 2 1 3 3 4 5 5 6 6 7 7 11 8 8 9 10 10 9 11 12 12 14 13
REMARK SMILES IDX 13 14
REMARK H PARENT
REMARK Flexibility Score: inf
ROOT
ATOM      1  C   UNL     1       6.854   0.990   0.854  1.00  0.00     0.080 C 
ENDROOT
BRANCH   1   2
ATOM      2  C   UNL     1       5.474   1.154   1.392  1.00  0.00     0.130 C 
ATOM      3  C   UNL     1       4.526   2.147   0.821  1.00  0.00     0.087 C 
ATOM      4  O   UNL     1       5.080   0.472   2.324  1.00  0.00    -0.300 OA
ENDBRANCH   1   2
BRANCH   1   5
ATOM      5  C   UNL     1       6.849   0.915  -0.660  1.00  0.00     0.043 C 
BRANCH   5   6
ATOM      6  C   UNL     1       7.390  -0.367  -1.145  1.00  0.00    -0.044 A 
ATOM      7  C   UNL     1       7.642  -0.588  -2.504  1.00  0.00     0.008 A 
ATOM      8  C   UNL     1       7.659  -1.376  -0.250  1.00  0.00     0.054 A 
ATOM      9  C   UNL     1       8.151  -1.812  -2.901  1.00  0.00     0.051 A 
ATOM     10  C   UNL     1       8.174  -2.611  -0.656  1.00  0.00     0.166 A 
ATOM     11  C   UNL     1       8.422  -2.830  -1.993  1.00  0.00     0.165 A 
ATOM     12  O   UNL     1       8.520  -3.756   0.029  1.00  0.00    -0.454 OA
ATOM     13  O   UNL     1       8.921  -4.119  -2.102  1.00  0.00    -0.454 OA
ATOM     14  C   UNL     1       9.085  -4.709  -0.834  1.00  0.00     0.468 C 
ENDBRANCH   5   6
ENDBRANCH   1   5
TORSDOF 3
ENDMDL
