@<TRIPOS>MOLECULE
/home/cewinharhar/GITHUB/reincatalyze/data/processed/docking_pred/2023-May-31-1438_sub9_nm5_bs15_s42_ex16_mel10_mts1000_k50_ec05_g099_lra9e-4_lrc3e-3/ea9f39b4277e7ba3f00603e8654b95ed05d2571c_ligand_9.pdbqt
 14 15 0 0 0
SMALL
GASTEIGER

@<TRIPOS>ATOM
      1  C          5.5280   -0.0040    1.9360 C.3     1  UNL1        0.0800
      2  C          4.6480    1.1620    1.6450 C.2     1  UNL1        0.1300
      3  C          4.9440    2.1070    0.5350 C.3     1  UNL1        0.0870
      4  O          3.6510    1.3780    2.3160 O.2     1  UNL1       -0.3000
      5  C          6.9490    0.2510    1.4740 C.3     1  UNL1        0.0430
      6  C          7.3660   -0.7080    0.4340 C.2     1  UNL1       -0.0440
      7  C          7.2760   -0.3970   -0.9270 C.2     1  UNL1        0.0080
      8  C          7.8590   -1.9390    0.8000 C.2     1  UNL1        0.0540
      9  C          7.6830   -1.3360   -1.8580 C.2     1  UNL1        0.0510
     10  C          8.2690   -2.8850   -0.1440 C.2     1  UNL1        0.1660
     11  C          8.1800   -2.5810   -1.4840 C.2     1  UNL1        0.1650
     12  O          8.7850   -4.1590   -0.0360 O.2     1  UNL1       -0.4540
     13  O          8.6490   -3.6850   -2.1780 O.2     1  UNL1       -0.4540
     14  C          9.1280   -4.6730   -1.2970 C.3     1  UNL1        0.4680
@<TRIPOS>BOND
     1    13    11    1
     2    13    14    1
     3     9    11    2
     4     9     7    1
     5    11    10    1
     6    14    12    1
     7     7     6    2
     8    10    12    1
     9    10     8    2
    10     6     8    1
    11     6     5    1
    12     3     2    1
    13     5     1    1
    14     2     1    1
    15     2     4    2
