@<TRIPOS>MOLECULE
/home/cewinharhar/GITHUB/reincatalyze/data/processed/docking_pred/2023-May-31-1438_sub9_nm5_bs15_s42_ex16_mel10_mts1000_k50_ec05_g099_lra9e-4_lrc3e-3/eb53456adf8787420c4e8f25112cf644d6bf88f9_ligand_9.pdbqt
 14 15 0 0 0
SMALL
GASTEIGER

@<TRIPOS>ATOM
      1  C          8.7710   -4.7680   -0.3900 C.3     1  UNL1        0.0800
      2  C          9.5180   -4.6960   -1.6760 C.2     1  UNL1        0.1300
      3  C         10.3190   -5.8430   -2.1800 C.3     1  UNL1        0.0870
      4  O          9.4930   -3.6840   -2.3590 O.2     1  UNL1       -0.3000
      5  C          9.5200   -4.0610    0.7230 C.3     1  UNL1        0.0430
      6  C          8.8690   -2.7950    1.1010 C.2     1  UNL1       -0.0440
      7  C          9.5990   -1.6090    1.2410 C.2     1  UNL1        0.0080
      8  C          7.5110   -2.7650    1.3220 C.2     1  UNL1        0.0540
      9  C          8.9340   -0.4490    1.5970 C.2     1  UNL1        0.0510
     10  C          6.8430   -1.5900    1.6820 C.2     1  UNL1        0.1660
     11  C          7.5610   -0.4230    1.8210 C.2     1  UNL1        0.1650
     12  O          5.5220   -1.3060    1.9530 O.2     1  UNL1       -0.4540
     13  O          6.6550    0.5640    2.1770 O.2     1  UNL1       -0.4540
     14  C          5.3380    0.0670    2.1840 C.3     1  UNL1        0.4680
@<TRIPOS>BOND
     1     4     2    2
     2     3     2    1
     3     2     1    1
     4     1     5    1
     5     5     6    1
     6     6     7    2
     7     6     8    1
     8     7     9    1
     9     8    10    2
    10     9    11    2
    11    10    11    1
    12    10    12    1
    13    11    13    1
    14    12    14    1
    15    13    14    1
