@<TRIPOS>MOLECULE
/home/cewinharhar/GITHUB/reincatalyze/data/processed/docking_pred/2023-May-31-1438_sub9_nm5_bs15_s42_ex16_mel10_mts1000_k50_ec05_g099_lra9e-4_lrc3e-3/eb53456adf8787420c4e8f25112cf644d6bf88f9_ligand_9.pdbqt
 14 15 0 0 0
SMALL
GASTEIGER

@<TRIPOS>ATOM
      1  C          1.9840   -0.0520    3.0780 C.3     1  UNL1        0.0800
      2  C          0.5110    0.1660    3.1300 C.2     1  UNL1        0.1300
      3  C         -0.1440    1.2590    2.3630 C.3     1  UNL1        0.0870
      4  O         -0.2050   -0.5520    3.8090 O.2     1  UNL1       -0.3000
      5  C          2.6820    1.0800    2.3490 C.3     1  UNL1        0.0430
      6  C          4.1090    0.7870    2.1240 C.2     1  UNL1       -0.0440
      7  C          5.0300    1.8020    1.8440 C.2     1  UNL1        0.0080
      8  C          4.5570   -0.5130    2.1920 C.2     1  UNL1        0.0540
      9  C          6.3570    1.4680    1.6420 C.2     1  UNL1        0.0510
     10  C          5.9000   -0.8460    1.9880 C.2     1  UNL1        0.1660
     11  C          6.8070    0.1530    1.7110 C.2     1  UNL1        0.1650
     12  O          6.5830   -2.0430    2.0010 O.2     1  UNL1       -0.4540
     13  O          8.0410   -0.4590    1.5590 O.2     1  UNL1       -0.4540
     14  C          7.9610   -1.8390    1.8240 C.3     1  UNL1        0.4680
@<TRIPOS>BOND
     1    13    11    1
     2    13    14    1
     3     9    11    2
     4     9     7    1
     5    11    10    1
     6    14    12    1
     7     7     6    2
     8    10    12    1
     9    10     8    2
    10     6     8    1
    11     6     5    1
    12     5     1    1
    13     3     2    1
    14     1     2    1
    15     2     4    2
