@<TRIPOS>MOLECULE
/home/cewinharhar/GITHUB/reincatalyze/data/processed/docking_pred/2023-May-31-1438_sub9_nm5_bs15_s42_ex16_mel10_mts1000_k50_ec05_g099_lra9e-4_lrc3e-3/eb53456adf8787420c4e8f25112cf644d6bf88f9_ligand_9.pdbqt
 14 15 0 0 0
SMALL
GASTEIGER

@<TRIPOS>ATOM
      1  C          2.1680   -7.6410   -0.6470 C.3     1  UNL1        0.0800
      2  C          2.3020   -6.1900   -0.3410 C.2     1  UNL1        0.1300
      3  C          1.9340   -5.1460   -1.3350 C.3     1  UNL1        0.0870
      4  O          2.7210   -5.8130    0.7410 O.2     1  UNL1       -0.3000
      5  C          2.7880   -8.4930    0.4440 C.3     1  UNL1        0.0430
      6  C          1.9090   -9.6110    0.8300 C.2     1  UNL1       -0.0440
      7  C          2.4280  -10.8140    1.3220 C.2     1  UNL1        0.0080
      8  C          0.5450   -9.4790    0.7110 C.2     1  UNL1        0.0540
      9  C          1.5540  -11.8290    1.6690 C.2     1  UNL1        0.0510
     10  C         -0.3340  -10.5070    1.0640 C.2     1  UNL1        0.1660
     11  C          0.1750  -11.6920    1.5470 C.2     1  UNL1        0.1650
     12  O         -1.7080  -10.6190    1.0380 O.2     1  UNL1       -0.4540
     13  O         -0.9080  -12.5150    1.8110 O.2     1  UNL1       -0.4540
     14  C         -2.1240  -11.8430    1.5890 C.3     1  UNL1        0.4680
@<TRIPOS>BOND
     1     3     2    1
     2     1     2    1
     3     1     5    1
     4     2     4    2
     5     5     6    1
     6     8     6    2
     7     8    10    1
     8     6     7    1
     9    12    10    1
    10    12    14    1
    11    10    11    2
    12     7     9    2
    13    11     9    1
    14    11    13    1
    15    14    13    1
