@<TRIPOS>MOLECULE
/home/cewinharhar/GITHUB/reincatalyze/data/processed/docking_pred/2023-May-31-1438_sub9_nm5_bs15_s42_ex16_mel10_mts1000_k50_ec05_g099_lra9e-4_lrc3e-3/eb53456adf8787420c4e8f25112cf644d6bf88f9_ligand_9.pdbqt
 14 15 0 0 0
SMALL
GASTEIGER

@<TRIPOS>ATOM
      1  C          9.0650   -2.6210    0.9300 C.3     1  UNL1        0.0800
      2  C          9.5170   -4.0060    0.6200 C.2     1  UNL1        0.1300
      3  C          8.9770   -4.7620   -0.5420 C.3     1  UNL1        0.0870
      4  O         10.3490   -4.5650    1.3170 O.2     1  UNL1       -0.3000
      5  C          7.8640   -2.6270    1.8550 C.3     1  UNL1        0.0430
      6  C          7.1760   -1.3240    1.8660 C.2     1  UNL1       -0.0440
      7  C          7.8790   -0.1230    1.7130 C.2     1  UNL1        0.0080
      8  C          5.8100   -1.2750    2.0290 C.2     1  UNL1        0.0540
      9  C          7.1790    1.0700    1.7310 C.2     1  UNL1        0.0510
     10  C          5.1080   -0.0660    2.0460 C.2     1  UNL1        0.1660
     11  C          5.7990    1.1160    1.8960 C.2     1  UNL1        0.1650
     12  O          3.7720    0.2430    2.1920 O.2     1  UNL1       -0.4540
     13  O          4.8620    2.1370    1.9520 O.2     1  UNL1       -0.4540
     14  C          3.5550    1.6230    2.0470 C.3     1  UNL1        0.4680
@<TRIPOS>BOND
     1     3     2    1
     2     2     1    1
     3     2     4    2
     4     1     5    1
     5     7     9    1
     6     7     6    2
     7     9    11    2
     8     5     6    1
     9     6     8    1
    10    11    13    1
    11    11    10    1
    12    13    14    1
    13     8    10    2
    14    10    12    1
    15    14    12    1
