MODEL 1
REMARK VINA RESULT:       1.3      0.000      0.000
REMARK SMILES CC(=O)CCc1ccc2c(c1)OCO2
REMARK SMILES IDX 4 1 2 2 1 3 3 4 5 5 6 6 7 7 11 8 8 9 10 10 9 11 12 12 14 13
REMARK SMILES IDX 13 14
REMARK H PARENT
REMARK Flexibility Score: inf
ROOT
ATOM      1  C   UNL     1       8.771  -4.768  -0.390  1.00  0.00     0.080 C 
ENDROOT
BRANCH   1   2
ATOM      2  C   UNL     1       9.518  -4.696  -1.676  1.00  0.00     0.130 C 
ATOM      3  C   UNL     1      10.319  -5.843  -2.180  1.00  0.00     0.087 C 
ATOM      4  O   UNL     1       9.493  -3.684  -2.359  1.00  0.00    -0.300 OA
ENDBRANCH   1   2
BRANCH   1   5
ATOM      5  C   UNL     1       9.520  -4.061   0.723  1.00  0.00     0.043 C 
BRANCH   5   6
ATOM      6  C   UNL     1       8.869  -2.795   1.101  1.00  0.00    -0.044 A 
ATOM      7  C   UNL     1       9.599  -1.609   1.241  1.00  0.00     0.008 A 
ATOM      8  C   UNL     1       7.511  -2.765   1.322  1.00  0.00     0.054 A 
ATOM      9  C   UNL     1       8.934  -0.449   1.597  1.00  0.00     0.051 A 
ATOM     10  C   UNL     1       6.843  -1.590   1.682  1.00  0.00     0.166 A 
ATOM     11  C   UNL     1       7.561  -0.423   1.821  1.00  0.00     0.165 A 
ATOM     12  O   UNL     1       5.522  -1.306   1.953  1.00  0.00    -0.454 OA
ATOM     13  O   UNL     1       6.655   0.564   2.177  1.00  0.00    -0.454 OA
ATOM     14  C   UNL     1       5.338   0.067   2.184  1.00  0.00     0.468 C 
ENDBRANCH   5   6
ENDBRANCH   1   5
TORSDOF 3
ENDMDL
MODEL 2
REMARK VINA RESULT:       1.4      3.054      7.166
REMARK SMILES CC(=O)CCc1ccc2c(c1)OCO2
REMARK SMILES IDX 4 1 2 2 1 3 3 4 5 5 6 6 7 7 11 8 8 9 10 10 9 11 12 12 14 13
REMARK SMILES IDX 13 14
REMARK H PARENT
REMARK Flexibility Score: inf
ROOT
ATOM      1  C   UNL     1       1.984  -0.052   3.078  1.00  0.00     0.080 C 
ENDROOT
BRANCH   1   2
ATOM      2  C   UNL     1       0.511   0.166   3.130  1.00  0.00     0.130 C 
ATOM      3  C   UNL     1      -0.144   1.259   2.363  1.00  0.00     0.087 C 
ATOM      4  O   UNL     1      -0.205  -0.552   3.809  1.00  0.00    -0.300 OA
ENDBRANCH   1   2
BRANCH   1   5
ATOM      5  C   UNL     1       2.682   1.080   2.349  1.00  0.00     0.043 C 
BRANCH   5   6
ATOM      6  C   UNL     1       4.109   0.787   2.124  1.00  0.00    -0.044 A 
ATOM      7  C   UNL     1       5.030   1.802   1.844  1.00  0.00     0.008 A 
ATOM      8  C   UNL     1       4.557  -0.513   2.192  1.00  0.00     0.054 A 
ATOM      9  C   UNL     1       6.357   1.468   1.642  1.00  0.00     0.051 A 
ATOM     10  C   UNL     1       5.900  -0.846   1.988  1.00  0.00     0.166 A 
ATOM     11  C   UNL     1       6.807   0.153   1.711  1.00  0.00     0.165 A 
ATOM     12  O   UNL     1       6.583  -2.043   2.001  1.00  0.00    -0.454 OA
ATOM     13  O   UNL     1       8.041  -0.459   1.559  1.00  0.00    -0.454 OA
ATOM     14  C   UNL     1       7.961  -1.839   1.824  1.00  0.00     0.468 C 
ENDBRANCH   5   6
ENDBRANCH   1   5
TORSDOF 3
ENDMDL
MODEL 3
REMARK VINA RESULT:       1.6      1.649      2.518
REMARK SMILES CC(=O)CCc1ccc2c(c1)OCO2
REMARK SMILES IDX 4 1 2 2 1 3 3 4 5 5 6 6 7 7 11 8 8 9 10 10 9 11 12 12 14 13
REMARK SMILES IDX 13 14
REMARK H PARENT
REMARK Flexibility Score: inf
ROOT
ATOM      1  C   UNL     1       9.065  -2.621   0.930  1.00  0.00     0.080 C 
ENDROOT
BRANCH   1   2
ATOM      2  C   UNL     1       9.517  -4.006   0.620  1.00  0.00     0.130 C 
ATOM      3  C   UNL     1       8.977  -4.762  -0.542  1.00  0.00     0.087 C 
ATOM      4  O   UNL     1      10.349  -4.565   1.317  1.00  0.00    -0.300 OA
ENDBRANCH   1   2
BRANCH   1   5
ATOM      5  C   UNL     1       7.864  -2.627   1.855  1.00  0.00     0.043 C 
BRANCH   5   6
ATOM      6  C   UNL     1       7.176  -1.324   1.866  1.00  0.00    -0.044 A 
ATOM      7  C   UNL     1       7.879  -0.123   1.713  1.00  0.00     0.008 A 
ATOM      8  C   UNL     1       5.810  -1.275   2.029  1.00  0.00     0.054 A 
ATOM      9  C   UNL     1       7.179   1.070   1.731  1.00  0.00     0.051 A 
ATOM     10  C   UNL     1       5.108  -0.066   2.046  1.00  0.00     0.166 A 
ATOM     11  C   UNL     1       5.799   1.116   1.896  1.00  0.00     0.165 A 
ATOM     12  O   UNL     1       3.772   0.243   2.192  1.00  0.00    -0.454 OA
ATOM     13  O   UNL     1       4.862   2.137   1.952  1.00  0.00    -0.454 OA
ATOM     14  C   UNL     1       3.555   1.623   2.047  1.00  0.00     0.468 C 
ENDBRANCH   5   6
ENDBRANCH   1   5
TORSDOF 3
ENDMDL
MODEL 4
REMARK VINA RESULT:       1.9      9.597     10.996
REMARK SMILES CC(=O)CCc1ccc2c(c1)OCO2
REMARK SMILES IDX 4 1 2 2 1 3 3 4 5 5 6 6 7 7 11 8 8 9 10 10 9 11 12 12 14 13
REMARK SMILES IDX 13 14
REMARK H PARENT
REMARK Flexibility Score: inf
ROOT
ATOM      1  C   UNL     1       2.168  -7.641  -0.647  1.00  0.00     0.080 C 
ENDROOT
BRANCH   1   2
ATOM      2  C   UNL     1       2.302  -6.190  -0.341  1.00  0.00     0.130 C 
ATOM      3  C   UNL     1       1.934  -5.146  -1.335  1.00  0.00     0.087 C 
ATOM      4  O   UNL     1       2.721  -5.813   0.741  1.00  0.00    -0.300 OA
ENDBRANCH   1   2
BRANCH   1   5
ATOM      5  C   UNL     1       2.788  -8.493   0.444  1.00  0.00     0.043 C 
BRANCH   5   6
ATOM      6  C   UNL     1       1.909  -9.611   0.830  1.00  0.00    -0.044 A 
ATOM      7  C   UNL     1       2.428 -10.814   1.322  1.00  0.00     0.008 A 
ATOM      8  C   UNL     1       0.545  -9.479   0.711  1.00  0.00     0.054 A 
ATOM      9  C   UNL     1       1.554 -11.829   1.669  1.00  0.00     0.051 A 
ATOM     10  C   UNL     1      -0.334 -10.507   1.064  1.00  0.00     0.166 A 
ATOM     11  C   UNL     1       0.175 -11.692   1.547  1.00  0.00     0.165 A 
ATOM     12  O   UNL     1      -1.708 -10.619   1.038  1.00  0.00    -0.454 OA
ATOM     13  O   UNL     1      -0.908 -12.515   1.811  1.00  0.00    -0.454 OA
ATOM     14  C   UNL     1      -2.124 -11.843   1.589  1.00  0.00     0.468 C 
ENDBRANCH   5   6
ENDBRANCH   1   5
TORSDOF 3
ENDMDL
MODEL 5
REMARK VINA RESULT:       2.1      2.193      5.737
REMARK SMILES CC(=O)CCc1ccc2c(c1)OCO2
REMARK SMILES IDX 4 1 2 2 1 3 3 4 5 5 6 6 7 7 11 8 8 9 10 10 9 11 12 12 14 13
REMARK SMILES IDX 13 14
REMARK H PARENT
REMARK Flexibility Score: inf
ROOT
ATOM      1  C   UNL     1       6.500   2.150   1.360  1.00  0.00     0.080 C 
ENDROOT
BRANCH   1   2
ATOM      2  C   UNL     1       5.167   1.931   0.733  1.00  0.00     0.130 C 
ATOM      3  C   UNL     1       3.960   1.630   1.549  1.00  0.00     0.087 C 
ATOM      4  O   UNL     1       5.026   1.993  -0.478  1.00  0.00    -0.300 OA
ENDBRANCH   1   2
BRANCH   1   5
ATOM      5  C   UNL     1       6.703   1.239   2.554  1.00  0.00     0.043 C 
BRANCH   5   6
ATOM      6  C   UNL     1       7.008  -0.143   2.142  1.00  0.00    -0.044 A 
ATOM      7  C   UNL     1       6.020  -1.133   2.107  1.00  0.00     0.008 A 
ATOM      8  C   UNL     1       8.292  -0.478   1.777  1.00  0.00     0.054 A 
ATOM      9  C   UNL     1       6.365  -2.412   1.710  1.00  0.00     0.051 A 
ATOM     10  C   UNL     1       8.636  -1.773   1.377  1.00  0.00     0.166 A 
ATOM     11  C   UNL     1       7.664  -2.748   1.343  1.00  0.00     0.165 A 
ATOM     12  O   UNL     1       9.823  -2.348   0.974  1.00  0.00    -0.454 OA
ATOM     13  O   UNL     1       8.281  -3.913   0.915  1.00  0.00    -0.454 OA
ATOM     14  C   UNL     1       9.629  -3.683   0.583  1.00  0.00     0.468 C 
ENDBRANCH   5   6
ENDBRANCH   1   5
TORSDOF 3
ENDMDL
