@<TRIPOS>MOLECULE
/home/cewinharhar/GITHUB/reincatalyze/data/processed/docking_pred/2023-May-31-1438_sub9_nm5_bs15_s42_ex16_mel10_mts1000_k50_ec05_g099_lra9e-4_lrc3e-3/eb9358f7bad4db9539b7d0967c6d7dee777b6146_ligand_9.pdbqt
 14 15 0 0 0
SMALL
GASTEIGER

@<TRIPOS>ATOM
      1  C          5.5500    1.9090    1.2850 C.3     1  UNL1        0.0800
      2  C          5.1240    0.6880    2.0240 C.2     1  UNL1        0.1300
      3  C          6.0370   -0.4720    2.2080 C.3     1  UNL1        0.0870
      4  O          4.0050    0.6030    2.5030 O.2     1  UNL1       -0.3000
      5  C          5.4140    1.7210   -0.2130 C.3     1  UNL1        0.0430
      6  C          6.5780    1.0200   -0.7830 C.2     1  UNL1       -0.0440
      7  C          7.8870    1.4500   -0.5360 C.2     1  UNL1        0.0080
      8  C          6.3850   -0.0870   -1.5780 C.2     1  UNL1        0.0540
      9  C          8.9400    0.7520   -1.0970 C.2     1  UNL1        0.0510
     10  C          7.4540   -0.7900   -2.1430 C.2     1  UNL1        0.1660
     11  C          8.7410   -0.3670   -1.9010 C.2     1  UNL1        0.1650
     12  O          7.5220   -1.9020   -2.9560 O.2     1  UNL1       -0.4540
     13  O          9.5830   -1.2370   -2.5760 O.2     1  UNL1       -0.4540
     14  C          8.8560   -2.2780   -3.1830 C.3     1  UNL1        0.4680
@<TRIPOS>BOND
     1    14    12    1
     2    14    13    1
     3    12    10    1
     4    13    11    1
     5    10    11    2
     6    10     8    1
     7    11     9    1
     8     8     6    2
     9     9     7    2
    10     6     7    1
    11     6     5    1
    12     5     1    1
    13     1     2    1
    14     2     3    1
    15     2     4    2
