@<TRIPOS>MOLECULE
/home/cewinharhar/GITHUB/reincatalyze/data/processed/docking_pred/2023-May-31-1438_sub9_nm5_bs15_s42_ex16_mel10_mts1000_k50_ec05_g099_lra9e-4_lrc3e-3/eeadc03eb41629d2f630482e7f417ab6451359e8_ligand_9.pdbqt
 14 15 0 0 0
SMALL
GASTEIGER

@<TRIPOS>ATOM
      1  C          6.9090    0.8980    1.2610 C.3     1  UNL1        0.0800
      2  C          5.4490    1.1290    1.4480 C.2     1  UNL1        0.1300
      3  C          4.7130    2.1500    0.6560 C.3     1  UNL1        0.0870
      4  O          4.8120    0.4820    2.2630 O.2     1  UNL1       -0.3000
      5  C          7.3120    1.0690   -0.1900 C.3     1  UNL1        0.0430
      6  C          7.6440   -0.2200   -0.8220 C.2     1  UNL1       -0.0440
      7  C          7.6680   -0.3710   -2.2130 C.2     1  UNL1        0.0080
      8  C          7.9440   -1.3080   -0.0340 C.2     1  UNL1        0.0540
      9  C          7.9870   -1.6050   -2.7490 C.2     1  UNL1        0.0510
     10  C          8.2670   -2.5540   -0.5800 C.2     1  UNL1        0.1660
     11  C          8.2890   -2.7040   -1.9490 C.2     1  UNL1        0.1650
     12  O          8.5960   -3.7700   -0.0190 O.2     1  UNL1       -0.4540
     13  O          8.6350   -4.0210   -2.2030 O.2     1  UNL1       -0.4540
     14  C          8.9280   -4.7090   -1.0090 C.3     1  UNL1        0.4680
@<TRIPOS>BOND
     1     9     7    1
     2     9    11    2
     3     7     6    2
     4    13    11    1
     5    13    14    1
     6    11    10    1
     7    14    12    1
     8     6     5    1
     9     6     8    1
    10    10     8    2
    11    10    12    1
    12     5     1    1
    13     3     2    1
    14     1     2    1
    15     2     4    2
