@<TRIPOS>MOLECULE
/home/cewinharhar/GITHUB/reincatalyze/data/processed/docking_pred/2023-May-31-1438_sub9_nm5_bs15_s42_ex16_mel10_mts1000_k50_ec05_g099_lra9e-4_lrc3e-3/eeadc03eb41629d2f630482e7f417ab6451359e8_ligand_9.pdbqt
 14 15 0 0 0
SMALL
GASTEIGER

@<TRIPOS>ATOM
      1  C          6.3870    1.2180    0.9410 C.3     1  UNL1        0.0800
      2  C          5.6460    0.3780    1.9230 C.2     1  UNL1        0.1300
      3  C          6.2350   -0.8660    2.4880 C.3     1  UNL1        0.0870
      4  O          4.5260    0.6890    2.2950 O.2     1  UNL1       -0.3000
      5  C          5.8910    0.9800   -0.4710 C.3     1  UNL1        0.0430
      6  C          6.8230    0.1400   -1.2440 C.2     1  UNL1       -0.0440
      7  C          7.5060    0.6370   -2.3590 C.2     1  UNL1        0.0080
      8  C          7.0370   -1.1660   -0.8660 C.2     1  UNL1        0.0540
      9  C          8.3690   -0.1980   -3.0450 C.2     1  UNL1        0.0510
     10  C          7.9110   -2.0060   -1.5620 C.2     1  UNL1        0.1660
     11  C          8.5830   -1.5180   -2.6610 C.2     1  UNL1        0.1650
     12  O          8.2880   -3.3210   -1.3890 O.2     1  UNL1       -0.4540
     13  O          9.3670   -2.5540   -3.1440 O.2     1  UNL1       -0.4540
     14  C          9.2800   -3.6870   -2.3140 C.3     1  UNL1        0.4680
@<TRIPOS>BOND
     1    13    11    1
     2    13    14    1
     3     9    11    2
     4     9     7    1
     5    11    10    1
     6     7     6    2
     7    14    12    1
     8    10    12    1
     9    10     8    2
    10     6     8    1
    11     6     5    1
    12     5     1    1
    13     1     2    1
    14     2     4    2
    15     2     3    1
