@<TRIPOS>MOLECULE
/home/cewinharhar/GITHUB/reincatalyze/data/processed/docking_pred/2023-May-31-1438_sub9_nm5_bs15_s42_ex16_mel10_mts1000_k50_ec05_g099_lra9e-4_lrc3e-3/eeadc03eb41629d2f630482e7f417ab6451359e8_ligand_9.pdbqt
 14 15 0 0 0
SMALL
GASTEIGER

@<TRIPOS>ATOM
      1  C          5.7440    1.3380   -0.2950 C.3     1  UNL1        0.0800
      2  C          5.2110    1.2700    1.0940 C.2     1  UNL1        0.1300
      3  C          5.5340    0.1340    1.9990 C.3     1  UNL1        0.0870
      4  O          4.4880    2.1500    1.5320 O.2     1  UNL1       -0.3000
      5  C          7.2440    1.1220   -0.3210 C.3     1  UNL1        0.0430
      6  C          7.6000   -0.1720   -0.9300 C.2     1  UNL1       -0.0440
      7  C          7.6190   -0.3480   -2.3180 C.2     1  UNL1        0.0080
      8  C          7.9250   -1.2380   -0.1230 C.2     1  UNL1        0.0540
      9  C          7.9610   -1.5860   -2.8320 C.2     1  UNL1        0.0510
     10  C          8.2720   -2.4870   -0.6480 C.2     1  UNL1        0.1660
     11  C          8.2890   -2.6620   -2.0140 C.2     1  UNL1        0.1650
     12  O          8.6290   -3.6850   -0.0660 O.2     1  UNL1       -0.4540
     13  O          8.6620   -3.9770   -2.2450 O.2     1  UNL1       -0.4540
     14  C          8.9740   -4.6360   -1.0400 C.3     1  UNL1        0.4680
@<TRIPOS>BOND
     1     9     7    1
     2     9    11    2
     3     7     6    2
     4    13    11    1
     5    13    14    1
     6    11    10    1
     7    14    12    1
     8     6     5    1
     9     6     8    1
    10    10     8    2
    11    10    12    1
    12     5     1    1
    13     1     2    1
    14     2     4    2
    15     2     3    1
