@<TRIPOS>MOLECULE
/home/cewinharhar/GITHUB/reincatalyze/data/processed/docking_pred/2023-May-31-1438_sub9_nm5_bs15_s42_ex16_mel10_mts1000_k50_ec05_g099_lra9e-4_lrc3e-3/eeadc03eb41629d2f630482e7f417ab6451359e8_ligand_9.pdbqt
 14 15 0 0 0
SMALL
GASTEIGER

@<TRIPOS>ATOM
      1  C          5.4190   -0.0480    2.0190 C.3     1  UNL1        0.0800
      2  C          4.5680    1.1470    1.7630 C.2     1  UNL1        0.1300
      3  C          4.9030    2.1320    0.7000 C.3     1  UNL1        0.0870
      4  O          3.5630    1.3540    2.4240 O.2     1  UNL1       -0.3000
      5  C          6.8550    0.2000    1.6010 C.3     1  UNL1        0.0430
      6  C          7.2830   -0.7280    0.5390 C.2     1  UNL1       -0.0440
      7  C          7.1610   -0.3990   -0.8150 C.2     1  UNL1        0.0080
      8  C          7.8190   -1.9500    0.8770 C.2     1  UNL1        0.0540
      9  C          7.5800   -1.3100   -1.7680 C.2     1  UNL1        0.0510
     10  C          8.2430   -2.8670   -0.0900 C.2     1  UNL1        0.1660
     11  C          8.1220   -2.5440   -1.4230 C.2     1  UNL1        0.1650
     12  O          8.7990   -4.1260   -0.0110 O.2     1  UNL1       -0.4540
     13  O          8.6120   -3.6220   -2.1430 O.2     1  UNL1       -0.4540
     14  C          9.1350   -4.6090   -1.2860 C.3     1  UNL1        0.4680
@<TRIPOS>BOND
     1    13    11    1
     2    13    14    1
     3     9    11    2
     4     9     7    1
     5    11    10    1
     6    14    12    1
     7     7     6    2
     8    10    12    1
     9    10     8    2
    10     6     8    1
    11     6     5    1
    12     3     2    1
    13     5     1    1
    14     2     1    1
    15     2     4    2
