@<TRIPOS>MOLECULE
/home/cewinharhar/GITHUB/reincatalyze/data/processed/docking_pred/2023-May-31-1438_sub9_nm5_bs15_s42_ex16_mel10_mts1000_k50_ec05_g099_lra9e-4_lrc3e-3/eeadc03eb41629d2f630482e7f417ab6451359e8_ligand_9.pdbqt
 14 15 0 0 0
SMALL
GASTEIGER

@<TRIPOS>ATOM
      1  C          5.5730    1.8780    1.3150 C.3     1  UNL1        0.0800
      2  C          5.1200    0.6520    2.0290 C.2     1  UNL1        0.1300
      3  C          6.0060   -0.5320    2.1870 C.3     1  UNL1        0.0870
      4  O          4.0000    0.5840    2.5080 O.2     1  UNL1       -0.3000
      5  C          5.4340    1.7240   -0.1870 C.3     1  UNL1        0.0430
      6  C          6.5920    1.0250   -0.7730 C.2     1  UNL1       -0.0440
      7  C          7.9030    1.4640   -0.5500 C.2     1  UNL1        0.0080
      8  C          6.3920   -0.0870   -1.5590 C.2     1  UNL1        0.0540
      9  C          8.9500    0.7680   -1.1260 C.2     1  UNL1        0.0510
     10  C          7.4540   -0.7870   -2.1380 C.2     1  UNL1        0.1660
     11  C          8.7440   -0.3560   -1.9200 C.2     1  UNL1        0.1650
     12  O          7.5150   -1.9030   -2.9460 O.2     1  UNL1       -0.4540
     13  O          9.5780   -1.2250   -2.6050 O.2     1  UNL1       -0.4540
     14  C          8.8470   -2.2740   -3.1940 C.3     1  UNL1        0.4680
@<TRIPOS>BOND
     1    14    12    1
     2    14    13    1
     3    12    10    1
     4    13    11    1
     5    10    11    2
     6    10     8    1
     7    11     9    1
     8     8     6    2
     9     9     7    2
    10     6     7    1
    11     6     5    1
    12     5     1    1
    13     1     2    1
    14     2     3    1
    15     2     4    2
