MODEL 1
REMARK VINA RESULT:      -7.6      0.000      0.000
REMARK SMILES CC(=O)CCc1ccc2c(c1)OCO2
REMARK SMILES IDX 4 1 2 2 1 3 3 4 5 5 6 6 7 7 11 8 8 9 10 10 9 11 12 12 14 13
REMARK SMILES IDX 13 14
REMARK H PARENT
REMARK Flexibility Score: inf
ROOT
ATOM      1  C   UNL     1       5.573   1.878   1.315  1.00  0.00     0.080 C 
ENDROOT
BRANCH   1   2
ATOM      2  C   UNL     1       5.120   0.652   2.029  1.00  0.00     0.130 C 
ATOM      3  C   UNL     1       6.006  -0.532   2.187  1.00  0.00     0.087 C 
ATOM      4  O   UNL     1       4.000   0.584   2.508  1.00  0.00    -0.300 OA
ENDBRANCH   1   2
BRANCH   1   5
ATOM      5  C   UNL     1       5.434   1.724  -0.187  1.00  0.00     0.043 C 
BRANCH   5   6
ATOM      6  C   UNL     1       6.592   1.025  -0.773  1.00  0.00    -0.044 A 
ATOM      7  C   UNL     1       7.903   1.464  -0.550  1.00  0.00     0.008 A 
ATOM      8  C   UNL     1       6.392  -0.087  -1.559  1.00  0.00     0.054 A 
ATOM      9  C   UNL     1       8.950   0.768  -1.126  1.00  0.00     0.051 A 
ATOM     10  C   UNL     1       7.454  -0.787  -2.138  1.00  0.00     0.166 A 
ATOM     11  C   UNL     1       8.744  -0.356  -1.920  1.00  0.00     0.165 A 
ATOM     12  O   UNL     1       7.515  -1.903  -2.946  1.00  0.00    -0.454 OA
ATOM     13  O   UNL     1       9.578  -1.225  -2.605  1.00  0.00    -0.454 OA
ATOM     14  C   UNL     1       8.847  -2.274  -3.194  1.00  0.00     0.468 C 
ENDBRANCH   5   6
ENDBRANCH   1   5
TORSDOF 3
ENDMDL
MODEL 2
REMARK VINA RESULT:      -7.4      1.893      2.377
REMARK SMILES CC(=O)CCc1ccc2c(c1)OCO2
REMARK SMILES IDX 4 1 2 2 1 3 3 4 5 5 6 6 7 7 11 8 8 9 10 10 9 11 12 12 14 13
REMARK SMILES IDX 13 14
REMARK H PARENT
REMARK Flexibility Score: inf
ROOT
ATOM      1  C   UNL     1       5.744   1.338  -0.295  1.00  0.00     0.080 C 
ENDROOT
BRANCH   1   2
ATOM      2  C   UNL     1       5.211   1.270   1.094  1.00  0.00     0.130 C 
ATOM      3  C   UNL     1       5.534   0.134   1.999  1.00  0.00     0.087 C 
ATOM      4  O   UNL     1       4.488   2.150   1.532  1.00  0.00    -0.300 OA
ENDBRANCH   1   2
BRANCH   1   5
ATOM      5  C   UNL     1       7.244   1.122  -0.321  1.00  0.00     0.043 C 
BRANCH   5   6
ATOM      6  C   UNL     1       7.600  -0.172  -0.930  1.00  0.00    -0.044 A 
ATOM      7  C   UNL     1       7.619  -0.348  -2.318  1.00  0.00     0.008 A 
ATOM      8  C   UNL     1       7.925  -1.238  -0.123  1.00  0.00     0.054 A 
ATOM      9  C   UNL     1       7.961  -1.586  -2.832  1.00  0.00     0.051 A 
ATOM     10  C   UNL     1       8.272  -2.487  -0.648  1.00  0.00     0.166 A 
ATOM     11  C   UNL     1       8.289  -2.662  -2.014  1.00  0.00     0.165 A 
ATOM     12  O   UNL     1       8.629  -3.685  -0.066  1.00  0.00    -0.454 OA
ATOM     13  O   UNL     1       8.662  -3.977  -2.245  1.00  0.00    -0.454 OA
ATOM     14  C   UNL     1       8.974  -4.636  -1.040  1.00  0.00     0.468 C 
ENDBRANCH   5   6
ENDBRANCH   1   5
TORSDOF 3
ENDMDL
MODEL 3
REMARK VINA RESULT:      -7.2      2.064      2.632
REMARK SMILES CC(=O)CCc1ccc2c(c1)OCO2
REMARK SMILES IDX 4 1 2 2 1 3 3 4 5 5 6 6 7 7 11 8 8 9 10 10 9 11 12 12 14 13
REMARK SMILES IDX 13 14
REMARK H PARENT
REMARK Flexibility Score: inf
ROOT
ATOM      1  C   UNL     1       5.419  -0.048   2.019  1.00  0.00     0.080 C 
ENDROOT
BRANCH   1   2
ATOM      2  C   UNL     1       4.568   1.147   1.763  1.00  0.00     0.130 C 
ATOM      3  C   UNL     1       4.903   2.132   0.700  1.00  0.00     0.087 C 
ATOM      4  O   UNL     1       3.563   1.354   2.424  1.00  0.00    -0.300 OA
ENDBRANCH   1   2
BRANCH   1   5
ATOM      5  C   UNL     1       6.855   0.200   1.601  1.00  0.00     0.043 C 
BRANCH   5   6
ATOM      6  C   UNL     1       7.283  -0.728   0.539  1.00  0.00    -0.044 A 
ATOM      7  C   UNL     1       7.161  -0.399  -0.815  1.00  0.00     0.008 A 
ATOM      8  C   UNL     1       7.819  -1.950   0.877  1.00  0.00     0.054 A 
ATOM      9  C   UNL     1       7.580  -1.310  -1.768  1.00  0.00     0.051 A 
ATOM     10  C   UNL     1       8.243  -2.867  -0.090  1.00  0.00     0.166 A 
ATOM     11  C   UNL     1       8.122  -2.544  -1.423  1.00  0.00     0.165 A 
ATOM     12  O   UNL     1       8.799  -4.126  -0.011  1.00  0.00    -0.454 OA
ATOM     13  O   UNL     1       8.612  -3.622  -2.143  1.00  0.00    -0.454 OA
ATOM     14  C   UNL     1       9.135  -4.609  -1.286  1.00  0.00     0.468 C 
ENDBRANCH   5   6
ENDBRANCH   1   5
TORSDOF 3
ENDMDL
MODEL 4
REMARK VINA RESULT:      -7.1      1.242      1.446
REMARK SMILES CC(=O)CCc1ccc2c(c1)OCO2
REMARK SMILES IDX 4 1 2 2 1 3 3 4 5 5 6 6 7 7 11 8 8 9 10 10 9 11 12 12 14 13
REMARK SMILES IDX 13 14
REMARK H PARENT
REMARK Flexibility Score: inf
ROOT
ATOM      1  C   UNL     1       6.387   1.218   0.941  1.00  0.00     0.080 C 
ENDROOT
BRANCH   1   2
ATOM      2  C   UNL     1       5.646   0.378   1.923  1.00  0.00     0.130 C 
ATOM      3  C   UNL     1       6.235  -0.866   2.488  1.00  0.00     0.087 C 
ATOM      4  O   UNL     1       4.526   0.689   2.295  1.00  0.00    -0.300 OA
ENDBRANCH   1   2
BRANCH   1   5
ATOM      5  C   UNL     1       5.891   0.980  -0.471  1.00  0.00     0.043 C 
BRANCH   5   6
ATOM      6  C   UNL     1       6.823   0.140  -1.244  1.00  0.00    -0.044 A 
ATOM      7  C   UNL     1       7.506   0.637  -2.359  1.00  0.00     0.008 A 
ATOM      8  C   UNL     1       7.037  -1.166  -0.866  1.00  0.00     0.054 A 
ATOM      9  C   UNL     1       8.369  -0.198  -3.045  1.00  0.00     0.051 A 
ATOM     10  C   UNL     1       7.911  -2.006  -1.562  1.00  0.00     0.166 A 
ATOM     11  C   UNL     1       8.583  -1.518  -2.661  1.00  0.00     0.165 A 
ATOM     12  O   UNL     1       8.288  -3.321  -1.389  1.00  0.00    -0.454 OA
ATOM     13  O   UNL     1       9.367  -2.554  -3.144  1.00  0.00    -0.454 OA
ATOM     14  C   UNL     1       9.280  -3.687  -2.314  1.00  0.00     0.468 C 
ENDBRANCH   5   6
ENDBRANCH   1   5
TORSDOF 3
ENDMDL
MODEL 5
REMARK VINA RESULT:      -7.0      1.946      2.512
REMARK SMILES CC(=O)CCc1ccc2c(c1)OCO2
REMARK SMILES IDX 4 1 2 2 1 3 3 4 5 5 6 6 7 7 11 8 8 9 10 10 9 11 12 12 14 13
REMARK SMILES IDX 13 14
REMARK H PARENT
REMARK Flexibility Score: inf
ROOT
ATOM      1  C   UNL     1       6.909   0.898   1.261  1.00  0.00     0.080 C 
ENDROOT
BRANCH   1   2
ATOM      2  C   UNL     1       5.449   1.129   1.448  1.00  0.00     0.130 C 
ATOM      3  C   UNL     1       4.713   2.150   0.656  1.00  0.00     0.087 C 
ATOM      4  O   UNL     1       4.812   0.482   2.263  1.00  0.00    -0.300 OA
ENDBRANCH   1   2
BRANCH   1   5
ATOM      5  C   UNL     1       7.312   1.069  -0.190  1.00  0.00     0.043 C 
BRANCH   5   6
ATOM      6  C   UNL     1       7.644  -0.220  -0.822  1.00  0.00    -0.044 A 
ATOM      7  C   UNL     1       7.668  -0.371  -2.213  1.00  0.00     0.008 A 
ATOM      8  C   UNL     1       7.944  -1.308  -0.034  1.00  0.00     0.054 A 
ATOM      9  C   UNL     1       7.987  -1.605  -2.749  1.00  0.00     0.051 A 
ATOM     10  C   UNL     1       8.267  -2.554  -0.580  1.00  0.00     0.166 A 
ATOM     11  C   UNL     1       8.289  -2.704  -1.949  1.00  0.00     0.165 A 
ATOM     12  O   UNL     1       8.596  -3.770  -0.019  1.00  0.00    -0.454 OA
ATOM     13  O   UNL     1       8.635  -4.021  -2.203  1.00  0.00    -0.454 OA
ATOM     14  C   UNL     1       8.928  -4.709  -1.009  1.00  0.00     0.468 C 
ENDBRANCH   5   6
ENDBRANCH   1   5
TORSDOF 3
ENDMDL
