@<TRIPOS>MOLECULE
/home/cewinharhar/GITHUB/reincatalyze/data/processed/docking_pred/2023-May-31-1438_sub9_nm5_bs15_s42_ex16_mel10_mts1000_k50_ec05_g099_lra9e-4_lrc3e-3/f15420a79f585431148ea344134f913ab78e73cd_ligand_9.pdbqt
 14 15 0 0 0
SMALL
GASTEIGER

@<TRIPOS>ATOM
      1  C          5.9050   -0.3770    1.5260 C.3     1  UNL1        0.0800
      2  C          4.9820    0.7830    1.6650 C.2     1  UNL1        0.1300
      3  C          5.0570    1.9540    0.7510 C.3     1  UNL1        0.0870
      4  O          4.1320    0.8060    2.5400 O.2     1  UNL1       -0.3000
      5  C          7.2990    0.0720    1.1340 C.3     1  UNL1        0.0430
      6  C          7.6610   -0.3890   -0.2180 C.2     1  UNL1       -0.0440
      7  C          7.8180    0.5080   -1.2810 C.2     1  UNL1        0.0080
      8  C          7.8540   -1.7310   -0.4530 C.2     1  UNL1        0.0540
      9  C          8.1600    0.0180   -2.5280 C.2     1  UNL1        0.0510
     10  C          8.2000   -2.2220   -1.7160 C.2     1  UNL1        0.1660
     11  C          8.3540   -1.3400   -2.7620 C.2     1  UNL1        0.1650
     12  O          8.4420   -3.4910   -2.1970 O.2     1  UNL1       -0.4540
     13  O          8.6920   -2.0930   -3.8750 O.2     1  UNL1       -0.4540
     14  C          8.8470   -3.4520   -3.5410 C.3     1  UNL1        0.4680
@<TRIPOS>BOND
     1    13    14    1
     2    13    11    1
     3    14    12    1
     4    11     9    2
     5    11    10    1
     6     9     7    1
     7    12    10    1
     8    10     8    2
     9     7     6    2
    10     8     6    1
    11     6     5    1
    12     3     2    1
    13     5     1    1
    14     1     2    1
    15     2     4    2
