MODEL 1
REMARK VINA RESULT:      -8.1      0.000      0.000
REMARK SMILES CC(=O)CCc1ccc2c(c1)OCO2
REMARK SMILES IDX 4 1 2 2 1 3 3 4 5 5 6 6 7 7 11 8 8 9 10 10 9 11 12 12 14 13
REMARK SMILES IDX 13 14
REMARK H PARENT
REMARK Flexibility Score: inf
ROOT
ATOM      1  C   UNL     1       6.002   1.645   1.132  1.00  0.00     0.080 C 
ENDROOT
BRANCH   1   2
ATOM      2  C   UNL     1       5.448   0.551   1.976  1.00  0.00     0.130 C 
ATOM      3  C   UNL     1       6.249  -0.654   2.319  1.00  0.00     0.087 C 
ATOM      4  O   UNL     1       4.310   0.613   2.414  1.00  0.00    -0.300 OA
ENDBRANCH   1   2
BRANCH   1   5
ATOM      5  C   UNL     1       5.720   1.404  -0.338  1.00  0.00     0.043 C 
BRANCH   5   6
ATOM      6  C   UNL     1       6.795   0.627  -0.980  1.00  0.00    -0.044 A 
ATOM      7  C   UNL     1       8.139   1.002  -0.866  1.00  0.00     0.008 A 
ATOM      8  C   UNL     1       6.482  -0.496  -1.711  1.00  0.00     0.054 A 
ATOM      9  C   UNL     1       9.105   0.234  -1.491  1.00  0.00     0.051 A 
ATOM     10  C   UNL     1       7.462  -1.270  -2.340  1.00  0.00     0.166 A 
ATOM     11  C   UNL     1       8.785  -0.901  -2.229  1.00  0.00     0.165 A 
ATOM     12  O   UNL     1       7.407  -2.411  -3.110  1.00  0.00    -0.454 OA
ATOM     13  O   UNL     1       9.522  -1.834  -2.940  1.00  0.00    -0.454 OA
ATOM     14  C   UNL     1       8.697  -2.860  -3.440  1.00  0.00     0.468 C 
ENDBRANCH   5   6
ENDBRANCH   1   5
TORSDOF 3
ENDMDL
MODEL 2
REMARK VINA RESULT:      -7.3      1.229      1.675
REMARK SMILES CC(=O)CCc1ccc2c(c1)OCO2
REMARK SMILES IDX 4 1 2 2 1 3 3 4 5 5 6 6 7 7 11 8 8 9 10 10 9 11 12 12 14 13
REMARK SMILES IDX 13 14
REMARK H PARENT
REMARK Flexibility Score: inf
ROOT
ATOM      1  C   UNL     1       5.905  -0.377   1.526  1.00  0.00     0.080 C 
ENDROOT
BRANCH   1   2
ATOM      2  C   UNL     1       4.982   0.783   1.665  1.00  0.00     0.130 C 
ATOM      3  C   UNL     1       5.057   1.954   0.751  1.00  0.00     0.087 C 
ATOM      4  O   UNL     1       4.132   0.806   2.540  1.00  0.00    -0.300 OA
ENDBRANCH   1   2
BRANCH   1   5
ATOM      5  C   UNL     1       7.299   0.072   1.134  1.00  0.00     0.043 C 
BRANCH   5   6
ATOM      6  C   UNL     1       7.661  -0.389  -0.218  1.00  0.00    -0.044 A 
ATOM      7  C   UNL     1       7.818   0.508  -1.281  1.00  0.00     0.008 A 
ATOM      8  C   UNL     1       7.854  -1.731  -0.453  1.00  0.00     0.054 A 
ATOM      9  C   UNL     1       8.160   0.018  -2.528  1.00  0.00     0.051 A 
ATOM     10  C   UNL     1       8.200  -2.222  -1.716  1.00  0.00     0.166 A 
ATOM     11  C   UNL     1       8.354  -1.340  -2.762  1.00  0.00     0.165 A 
ATOM     12  O   UNL     1       8.442  -3.491  -2.197  1.00  0.00    -0.454 OA
ATOM     13  O   UNL     1       8.692  -2.093  -3.875  1.00  0.00    -0.454 OA
ATOM     14  C   UNL     1       8.847  -3.452  -3.541  1.00  0.00     0.468 C 
ENDBRANCH   5   6
ENDBRANCH   1   5
TORSDOF 3
ENDMDL
MODEL 3
REMARK VINA RESULT:      -7.2      1.591      5.567
REMARK SMILES CC(=O)CCc1ccc2c(c1)OCO2
REMARK SMILES IDX 4 1 2 2 1 3 3 4 5 5 6 6 7 7 11 8 8 9 10 10 9 11 12 12 14 13
REMARK SMILES IDX 13 14
REMARK H PARENT
REMARK Flexibility Score: inf
ROOT
ATOM      1  C   UNL     1       8.088  -2.559  -3.579  1.00  0.00     0.080 C 
ENDROOT
BRANCH   1   2
ATOM      2  C   UNL     1       9.227  -3.501  -3.396  1.00  0.00     0.130 C 
ATOM      3  C   UNL     1       9.018  -4.970  -3.295  1.00  0.00     0.087 C 
ATOM      4  O   UNL     1      10.374  -3.090  -3.322  1.00  0.00    -0.300 OA
ENDBRANCH   1   2
BRANCH   1   5
ATOM      5  C   UNL     1       8.439  -1.168  -3.091  1.00  0.00     0.043 C 
BRANCH   5   6
ATOM      6  C   UNL     1       7.693  -0.812  -1.871  1.00  0.00    -0.044 A 
ATOM      7  C   UNL     1       7.763  -1.597  -0.715  1.00  0.00     0.008 A 
ATOM      8  C   UNL     1       6.909   0.319  -1.857  1.00  0.00     0.054 A 
ATOM      9  C   UNL     1       7.041  -1.213   0.401  1.00  0.00     0.051 A 
ATOM     10  C   UNL     1       6.182   0.703  -0.726  1.00  0.00     0.166 A 
ATOM     11  C   UNL     1       6.248  -0.070   0.412  1.00  0.00     0.165 A 
ATOM     12  O   UNL     1       5.342   1.765  -0.464  1.00  0.00    -0.454 OA
ATOM     13  O   UNL     1       5.441   0.541   1.359  1.00  0.00    -0.454 OA
ATOM     14  C   UNL     1       4.919   1.755   0.875  1.00  0.00     0.468 C 
ENDBRANCH   5   6
ENDBRANCH   1   5
TORSDOF 3
ENDMDL
MODEL 4
REMARK VINA RESULT:      -7.2      1.234      1.365
REMARK SMILES CC(=O)CCc1ccc2c(c1)OCO2
REMARK SMILES IDX 4 1 2 2 1 3 3 4 5 5 6 6 7 7 11 8 8 9 10 10 9 11 12 12 14 13
REMARK SMILES IDX 13 14
REMARK H PARENT
REMARK Flexibility Score: inf
ROOT
ATOM      1  C   UNL     1       5.757   0.886   0.414  1.00  0.00     0.080 C 
ENDROOT
BRANCH   1   2
ATOM      2  C   UNL     1       5.390   0.351   1.755  1.00  0.00     0.130 C 
ATOM      3  C   UNL     1       6.188  -0.717   2.415  1.00  0.00     0.087 C 
ATOM      4  O   UNL     1       4.416   0.777   2.354  1.00  0.00    -0.300 OA
ENDBRANCH   1   2
BRANCH   1   5
ATOM      5  C   UNL     1       7.260   0.880   0.211  1.00  0.00     0.043 C 
BRANCH   5   6
ATOM      6  C   UNL     1       7.656   0.010  -0.911  1.00  0.00    -0.044 A 
ATOM      7  C   UNL     1       7.858   0.521  -2.198  1.00  0.00     0.008 A 
ATOM      8  C   UNL     1       7.837  -1.337  -0.699  1.00  0.00     0.054 A 
ATOM      9  C   UNL     1       8.230  -0.343  -3.212  1.00  0.00     0.051 A 
ATOM     10  C   UNL     1       8.214  -2.206  -1.727  1.00  0.00     0.166 A 
ATOM     11  C   UNL     1       8.412  -1.705  -2.994  1.00  0.00     0.165 A 
ATOM     12  O   UNL     1       8.453  -3.564  -1.770  1.00  0.00    -0.454 OA
ATOM     13  O   UNL     1       8.773  -2.775  -3.797  1.00  0.00    -0.454 OA
ATOM     14  C   UNL     1       8.900  -3.957  -3.042  1.00  0.00     0.468 C 
ENDBRANCH   5   6
ENDBRANCH   1   5
TORSDOF 3
ENDMDL
MODEL 5
REMARK VINA RESULT:      -7.1      1.609      5.464
REMARK SMILES CC(=O)CCc1ccc2c(c1)OCO2
REMARK SMILES IDX 4 1 2 2 1 3 3 4 5 5 6 6 7 7 11 8 8 9 10 10 9 11 12 12 14 13
REMARK SMILES IDX 13 14
REMARK H PARENT
REMARK Flexibility Score: inf
ROOT
ATOM      1  C   UNL     1       8.104  -2.459  -3.537  1.00  0.00     0.080 C 
ENDROOT
BRANCH   1   2
ATOM      2  C   UNL     1       9.202  -3.458  -3.409  1.00  0.00     0.130 C 
ATOM      3  C   UNL     1       8.925  -4.917  -3.333  1.00  0.00     0.087 C 
ATOM      4  O   UNL     1      10.368  -3.104  -3.363  1.00  0.00    -0.300 OA
ENDBRANCH   1   2
BRANCH   1   5
ATOM      5  C   UNL     1       8.535  -1.099  -3.026  1.00  0.00     0.043 C 
BRANCH   5   6
ATOM      6  C   UNL     1       7.746  -0.679  -1.855  1.00  0.00    -0.044 A 
ATOM      7  C   UNL     1       6.840   0.387  -1.925  1.00  0.00     0.008 A 
ATOM      8  C   UNL     1       7.892  -1.344  -0.659  1.00  0.00     0.054 A 
ATOM      9  C   UNL     1       6.126   0.735  -0.793  1.00  0.00     0.051 A 
ATOM     10  C   UNL     1       7.167  -0.988   0.482  1.00  0.00     0.166 A 
ATOM     11  C   UNL     1       6.277   0.060   0.414  1.00  0.00     0.165 A 
ATOM     12  O   UNL     1       7.134  -1.485   1.767  1.00  0.00    -0.454 OA
ATOM     13  O   UNL     1       5.710   0.186   1.673  1.00  0.00    -0.454 OA
ATOM     14  C   UNL     1       6.158  -0.831   2.536  1.00  0.00     0.468 C 
ENDBRANCH   5   6
ENDBRANCH   1   5
TORSDOF 3
ENDMDL
