@<TRIPOS>MOLECULE
/home/cewinharhar/GITHUB/reincatalyze/data/processed/docking_pred/2023-May-31-1438_sub9_nm5_bs15_s42_ex16_mel10_mts1000_k50_ec05_g099_lra9e-4_lrc3e-3/f15420a79f585431148ea344134f913ab78e73cd_ligand_9.pdbqt
 14 15 0 0 0
SMALL
GASTEIGER

@<TRIPOS>ATOM
      1  C          8.1040   -2.4590   -3.5370 C.3     1  UNL1        0.0800
      2  C          9.2020   -3.4580   -3.4090 C.2     1  UNL1        0.1300
      3  C          8.9250   -4.9170   -3.3330 C.3     1  UNL1        0.0870
      4  O         10.3680   -3.1040   -3.3630 O.2     1  UNL1       -0.3000
      5  C          8.5350   -1.0990   -3.0260 C.3     1  UNL1        0.0430
      6  C          7.7460   -0.6790   -1.8550 C.2     1  UNL1       -0.0440
      7  C          6.8400    0.3870   -1.9250 C.2     1  UNL1        0.0080
      8  C          7.8920   -1.3440   -0.6590 C.2     1  UNL1        0.0540
      9  C          6.1260    0.7350   -0.7930 C.2     1  UNL1        0.0510
     10  C          7.1670   -0.9880    0.4820 C.2     1  UNL1        0.1660
     11  C          6.2770    0.0600    0.4140 C.2     1  UNL1        0.1650
     12  O          7.1340   -1.4850    1.7670 O.2     1  UNL1       -0.4540
     13  O          5.7100    0.1860    1.6730 O.2     1  UNL1       -0.4540
     14  C          6.1580   -0.8310    2.5360 C.3     1  UNL1        0.4680
@<TRIPOS>BOND
     1     1     2    1
     2     1     5    1
     3     2     4    2
     4     2     3    1
     5     5     6    1
     6     7     6    2
     7     7     9    1
     8     6     8    1
     9     9    11    2
    10     8    10    2
    11    11    10    1
    12    11    13    1
    13    10    12    1
    14    13    14    1
    15    12    14    1
