@<TRIPOS>MOLECULE
/home/cewinharhar/GITHUB/reincatalyze/data/processed/docking_pred/2023-May-31-1438_sub9_nm5_bs15_s42_ex16_mel10_mts1000_k50_ec05_g099_lra9e-4_lrc3e-3/f15420a79f585431148ea344134f913ab78e73cd_ligand_9.pdbqt
 14 15 0 0 0
SMALL
GASTEIGER

@<TRIPOS>ATOM
      1  C          6.0020    1.6450    1.1320 C.3     1  UNL1        0.0800
      2  C          5.4480    0.5510    1.9760 C.2     1  UNL1        0.1300
      3  C          6.2490   -0.6540    2.3190 C.3     1  UNL1        0.0870
      4  O          4.3100    0.6130    2.4140 O.2     1  UNL1       -0.3000
      5  C          5.7200    1.4040   -0.3380 C.3     1  UNL1        0.0430
      6  C          6.7950    0.6270   -0.9800 C.2     1  UNL1       -0.0440
      7  C          8.1390    1.0020   -0.8660 C.2     1  UNL1        0.0080
      8  C          6.4820   -0.4960   -1.7110 C.2     1  UNL1        0.0540
      9  C          9.1050    0.2340   -1.4910 C.2     1  UNL1        0.0510
     10  C          7.4620   -1.2700   -2.3400 C.2     1  UNL1        0.1660
     11  C          8.7850   -0.9010   -2.2290 C.2     1  UNL1        0.1650
     12  O          7.4070   -2.4110   -3.1100 O.2     1  UNL1       -0.4540
     13  O          9.5220   -1.8340   -2.9400 O.2     1  UNL1       -0.4540
     14  C          8.6970   -2.8600   -3.4400 C.3     1  UNL1        0.4680
@<TRIPOS>BOND
     1    14    12    1
     2    14    13    1
     3    12    10    1
     4    13    11    1
     5    10    11    2
     6    10     8    1
     7    11     9    1
     8     8     6    2
     9     9     7    2
    10     6     7    1
    11     6     5    1
    12     5     1    1
    13     1     2    1
    14     2     3    1
    15     2     4    2
