@<TRIPOS>MOLECULE
/home/cewinharhar/GITHUB/reincatalyze/data/processed/docking_pred/2023-May-31-1438_sub9_nm5_bs15_s42_ex16_mel10_mts1000_k50_ec05_g099_lra9e-4_lrc3e-3/f15420a79f585431148ea344134f913ab78e73cd_ligand_9.pdbqt
 14 15 0 0 0
SMALL
GASTEIGER

@<TRIPOS>ATOM
      1  C          8.0880   -2.5590   -3.5790 C.3     1  UNL1        0.0800
      2  C          9.2270   -3.5010   -3.3960 C.2     1  UNL1        0.1300
      3  C          9.0180   -4.9700   -3.2950 C.3     1  UNL1        0.0870
      4  O         10.3740   -3.0900   -3.3220 O.2     1  UNL1       -0.3000
      5  C          8.4390   -1.1680   -3.0910 C.3     1  UNL1        0.0430
      6  C          7.6930   -0.8120   -1.8710 C.2     1  UNL1       -0.0440
      7  C          7.7630   -1.5970   -0.7150 C.2     1  UNL1        0.0080
      8  C          6.9090    0.3190   -1.8570 C.2     1  UNL1        0.0540
      9  C          7.0410   -1.2130    0.4010 C.2     1  UNL1        0.0510
     10  C          6.1820    0.7030   -0.7260 C.2     1  UNL1        0.1660
     11  C          6.2480   -0.0700    0.4120 C.2     1  UNL1        0.1650
     12  O          5.3420    1.7650   -0.4640 O.2     1  UNL1       -0.4540
     13  O          5.4410    0.5410    1.3590 O.2     1  UNL1       -0.4540
     14  C          4.9190    1.7550    0.8750 C.3     1  UNL1        0.4680
@<TRIPOS>BOND
     1     1     2    1
     2     1     5    1
     3     2     4    2
     4     2     3    1
     5     5     6    1
     6     6     8    2
     7     6     7    1
     8     8    10    1
     9    10    12    1
    10    10    11    2
    11     7     9    2
    12    12    14    1
    13     9    11    1
    14    11    13    1
    15    14    13    1
