@<TRIPOS>MOLECULE
/home/cewinharhar/GITHUB/reincatalyze/data/processed/docking_pred/2023-May-31-1438_sub9_nm5_bs15_s42_ex16_mel10_mts1000_k50_ec05_g099_lra9e-4_lrc3e-3/f15420a79f585431148ea344134f913ab78e73cd_ligand_9.pdbqt
 14 15 0 0 0
SMALL
GASTEIGER

@<TRIPOS>ATOM
      1  C          5.7570    0.8860    0.4140 C.3     1  UNL1        0.0800
      2  C          5.3900    0.3510    1.7550 C.2     1  UNL1        0.1300
      3  C          6.1880   -0.7170    2.4150 C.3     1  UNL1        0.0870
      4  O          4.4160    0.7770    2.3540 O.2     1  UNL1       -0.3000
      5  C          7.2600    0.8800    0.2110 C.3     1  UNL1        0.0430
      6  C          7.6560    0.0100   -0.9110 C.2     1  UNL1       -0.0440
      7  C          7.8580    0.5210   -2.1980 C.2     1  UNL1        0.0080
      8  C          7.8370   -1.3370   -0.6990 C.2     1  UNL1        0.0540
      9  C          8.2300   -0.3430   -3.2120 C.2     1  UNL1        0.0510
     10  C          8.2140   -2.2060   -1.7270 C.2     1  UNL1        0.1660
     11  C          8.4120   -1.7050   -2.9940 C.2     1  UNL1        0.1650
     12  O          8.4530   -3.5640   -1.7700 O.2     1  UNL1       -0.4540
     13  O          8.7730   -2.7750   -3.7970 O.2     1  UNL1       -0.4540
     14  C          8.9000   -3.9570   -3.0420 C.3     1  UNL1        0.4680
@<TRIPOS>BOND
     1    13    14    1
     2    13    11    1
     3     9    11    2
     4     9     7    1
     5    14    12    1
     6    11    10    1
     7     7     6    2
     8    12    10    1
     9    10     8    2
    10     6     8    1
    11     6     5    1
    12     5     1    1
    13     1     2    1
    14     2     4    2
    15     2     3    1
