@<TRIPOS>MOLECULE
/home/cewinharhar/GITHUB/reincatalyze/data/processed/docking_pred/2023-May-31-1438_sub9_nm5_bs15_s42_ex16_mel10_mts1000_k50_ec05_g099_lra9e-4_lrc3e-3/f1acaff2cf7a86b9bbc999bfeecc6491fc2a0881_ligand_9.pdbqt
 14 15 0 0 0
SMALL
GASTEIGER

@<TRIPOS>ATOM
      1  C          6.6240    0.4840    1.0490 C.3     1  UNL1        0.0800
      2  C          5.2940    1.0600    1.3930 C.2     1  UNL1        0.1300
      3  C          4.6830    2.1500    0.5860 C.3     1  UNL1        0.0870
      4  O          4.6640    0.6510    2.3540 O.2     1  UNL1       -0.3000
      5  C          6.9290    0.6470   -0.4270 C.3     1  UNL1        0.0430
      6  C          7.5020   -0.5820   -1.0050 C.2     1  UNL1       -0.0440
      7  C          7.8000   -0.6810   -2.3690 C.2     1  UNL1        0.0080
      8  C          7.7560   -1.6640   -0.1930 C.2     1  UNL1        0.0540
      9  C          8.3370   -1.8590   -2.8550 C.2     1  UNL1        0.0510
     10  C          8.2990   -2.8530   -0.6890 C.2     1  UNL1        0.1660
     11  C          8.5920   -2.9510   -2.0310 C.2     1  UNL1        0.1650
     12  O          8.6380   -4.0510   -0.0960 O.2     1  UNL1       -0.4540
     13  O          9.1110   -4.2200   -2.2360 O.2     1  UNL1       -0.4540
     14  C          9.2420   -4.9180   -1.0210 C.3     1  UNL1        0.4680
@<TRIPOS>BOND
     1     9     7    1
     2     9    11    2
     3     7     6    2
     4    13    11    1
     5    13    14    1
     6    11    10    1
     7    14    12    1
     8     6     5    1
     9     6     8    1
    10    10     8    2
    11    10    12    1
    12     5     1    1
    13     3     2    1
    14     1     2    1
    15     2     4    2
