MODEL 1
REMARK VINA RESULT:      -7.6      0.000      0.000
REMARK SMILES CC(=O)CCc1ccc2c(c1)OCO2
REMARK SMILES IDX 4 1 2 2 1 3 3 4 5 5 6 6 7 7 11 8 8 9 10 10 9 11 12 12 14 13
REMARK SMILES IDX 13 14
REMARK H PARENT
REMARK Flexibility Score: inf
ROOT
ATOM      1  C   UNL     1       5.546   1.900   1.296  1.00  0.00     0.080 C 
ENDROOT
BRANCH   1   2
ATOM      2  C   UNL     1       5.104   0.680   2.027  1.00  0.00     0.130 C 
ATOM      3  C   UNL     1       6.003  -0.491   2.206  1.00  0.00     0.087 C 
ATOM      4  O   UNL     1       3.983   0.606   2.503  1.00  0.00    -0.300 OA
ENDBRANCH   1   2
BRANCH   1   5
ATOM      5  C   UNL     1       5.409   1.723  -0.204  1.00  0.00     0.043 C 
BRANCH   5   6
ATOM      6  C   UNL     1       6.572   1.025  -0.780  1.00  0.00    -0.044 A 
ATOM      7  C   UNL     1       7.880   1.462  -0.545  1.00  0.00     0.008 A 
ATOM      8  C   UNL     1       6.378  -0.087  -1.568  1.00  0.00     0.054 A 
ATOM      9  C   UNL     1       8.932   0.766  -1.111  1.00  0.00     0.051 A 
ATOM     10  C   UNL     1       7.445  -0.788  -2.138  1.00  0.00     0.166 A 
ATOM     11  C   UNL     1       8.733  -0.357  -1.908  1.00  0.00     0.165 A 
ATOM     12  O   UNL     1       7.513  -1.903  -2.945  1.00  0.00    -0.454 OA
ATOM     13  O   UNL     1       9.574  -1.227  -2.585  1.00  0.00    -0.454 OA
ATOM     14  C   UNL     1       8.847  -2.274  -3.182  1.00  0.00     0.468 C 
ENDBRANCH   5   6
ENDBRANCH   1   5
TORSDOF 3
ENDMDL
MODEL 2
REMARK VINA RESULT:      -7.4      1.836      2.294
REMARK SMILES CC(=O)CCc1ccc2c(c1)OCO2
REMARK SMILES IDX 4 1 2 2 1 3 3 4 5 5 6 6 7 7 11 8 8 9 10 10 9 11 12 12 14 13
REMARK SMILES IDX 13 14
REMARK H PARENT
REMARK Flexibility Score: inf
ROOT
ATOM      1  C   UNL     1       5.779   1.518  -0.211  1.00  0.00     0.080 C 
ENDROOT
BRANCH   1   2
ATOM      2  C   UNL     1       5.104   1.291   1.097  1.00  0.00     0.130 C 
ATOM      3  C   UNL     1       5.417   0.107   1.942  1.00  0.00     0.087 C 
ATOM      4  O   UNL     1       4.269   2.075   1.517  1.00  0.00    -0.300 OA
ENDBRANCH   1   2
BRANCH   1   5
ATOM      5  C   UNL     1       7.258   1.197  -0.132  1.00  0.00     0.043 C 
BRANCH   5   6
ATOM      6  C   UNL     1       7.578  -0.075  -0.803  1.00  0.00    -0.044 A 
ATOM      7  C   UNL     1       7.545  -0.197  -2.197  1.00  0.00     0.008 A 
ATOM      8  C   UNL     1       7.921  -1.176  -0.052  1.00  0.00     0.054 A 
ATOM      9  C   UNL     1       7.856  -1.416  -2.772  1.00  0.00     0.051 A 
ATOM     10  C   UNL     1       8.235  -2.406  -0.637  1.00  0.00     0.166 A 
ATOM     11  C   UNL     1       8.202  -2.527  -2.009  1.00  0.00     0.165 A 
ATOM     12  O   UNL     1       8.601  -3.629  -0.116  1.00  0.00    -0.454 OA
ATOM     13  O   UNL     1       8.552  -3.835  -2.305  1.00  0.00    -0.454 OA
ATOM     14  C   UNL     1       8.901  -4.544  -1.139  1.00  0.00     0.468 C 
ENDBRANCH   5   6
ENDBRANCH   1   5
TORSDOF 3
ENDMDL
MODEL 3
REMARK VINA RESULT:      -7.2      2.078      2.646
REMARK SMILES CC(=O)CCc1ccc2c(c1)OCO2
REMARK SMILES IDX 4 1 2 2 1 3 3 4 5 5 6 6 7 7 11 8 8 9 10 10 9 11 12 12 14 13
REMARK SMILES IDX 13 14
REMARK H PARENT
REMARK Flexibility Score: inf
ROOT
ATOM      1  C   UNL     1       5.405  -0.044   1.992  1.00  0.00     0.080 C 
ENDROOT
BRANCH   1   2
ATOM      2  C   UNL     1       4.581   1.157   1.682  1.00  0.00     0.130 C 
ATOM      3  C   UNL     1       4.976   2.122   0.622  1.00  0.00     0.087 C 
ATOM      4  O   UNL     1       3.549   1.384   2.293  1.00  0.00    -0.300 OA
ENDBRANCH   1   2
BRANCH   1   5
ATOM      5  C   UNL     1       6.857   0.173   1.616  1.00  0.00     0.043 C 
BRANCH   5   6
ATOM      6  C   UNL     1       7.290  -0.752   0.553  1.00  0.00    -0.044 A 
ATOM      7  C   UNL     1       7.175  -0.417  -0.801  1.00  0.00     0.008 A 
ATOM      8  C   UNL     1       7.824  -1.975   0.888  1.00  0.00     0.054 A 
ATOM      9  C   UNL     1       7.599  -1.324  -1.755  1.00  0.00     0.051 A 
ATOM     10  C   UNL     1       8.252  -2.889  -0.080  1.00  0.00     0.166 A 
ATOM     11  C   UNL     1       8.138  -2.560  -1.413  1.00  0.00     0.165 A 
ATOM     12  O   UNL     1       8.807  -4.148  -0.003  1.00  0.00    -0.454 OA
ATOM     13  O   UNL     1       8.631  -3.636  -2.134  1.00  0.00    -0.454 OA
ATOM     14  C   UNL     1       9.150  -4.627  -1.279  1.00  0.00     0.468 C 
ENDBRANCH   5   6
ENDBRANCH   1   5
TORSDOF 3
ENDMDL
MODEL 4
REMARK VINA RESULT:      -7.0      1.259      1.490
REMARK SMILES CC(=O)CCc1ccc2c(c1)OCO2
REMARK SMILES IDX 4 1 2 2 1 3 3 4 5 5 6 6 7 7 11 8 8 9 10 10 9 11 12 12 14 13
REMARK SMILES IDX 13 14
REMARK H PARENT
REMARK Flexibility Score: inf
ROOT
ATOM      1  C   UNL     1       6.344   1.235   0.835  1.00  0.00     0.080 C 
ENDROOT
BRANCH   1   2
ATOM      2  C   UNL     1       5.687   0.403   1.881  1.00  0.00     0.130 C 
ATOM      3  C   UNL     1       6.327  -0.830   2.413  1.00  0.00     0.087 C 
ATOM      4  O   UNL     1       4.597   0.712   2.335  1.00  0.00    -0.300 OA
ENDBRANCH   1   2
BRANCH   1   5
ATOM      5  C   UNL     1       5.841   0.876  -0.549  1.00  0.00     0.043 C 
BRANCH   5   6
ATOM      6  C   UNL     1       6.814   0.050  -1.287  1.00  0.00    -0.044 A 
ATOM      7  C   UNL     1       7.539   0.562  -2.369  1.00  0.00     0.008 A 
ATOM      8  C   UNL     1       7.026  -1.256  -0.909  1.00  0.00     0.054 A 
ATOM      9  C   UNL     1       8.439  -0.259  -3.023  1.00  0.00     0.051 A 
ATOM     10  C   UNL     1       7.938  -2.082  -1.572  1.00  0.00     0.166 A 
ATOM     11  C   UNL     1       8.650  -1.580  -2.638  1.00  0.00     0.165 A 
ATOM     12  O   UNL     1       8.321  -3.394  -1.392  1.00  0.00    -0.454 OA
ATOM     13  O   UNL     1       9.465  -2.604  -3.095  1.00  0.00    -0.454 OA
ATOM     14  C   UNL     1       9.354  -3.744  -2.276  1.00  0.00     0.468 C 
ENDBRANCH   5   6
ENDBRANCH   1   5
TORSDOF 3
ENDMDL
MODEL 5
REMARK VINA RESULT:      -6.9      1.984      2.620
REMARK SMILES CC(=O)CCc1ccc2c(c1)OCO2
REMARK SMILES IDX 4 1 2 2 1 3 3 4 5 5 6 6 7 7 11 8 8 9 10 10 9 11 12 12 14 13
REMARK SMILES IDX 13 14
REMARK H PARENT
REMARK Flexibility Score: inf
ROOT
ATOM      1  C   UNL     1       6.624   0.484   1.049  1.00  0.00     0.080 C 
ENDROOT
BRANCH   1   2
ATOM      2  C   UNL     1       5.294   1.060   1.393  1.00  0.00     0.130 C 
ATOM      3  C   UNL     1       4.683   2.150   0.586  1.00  0.00     0.087 C 
ATOM      4  O   UNL     1       4.664   0.651   2.354  1.00  0.00    -0.300 OA
ENDBRANCH   1   2
BRANCH   1   5
ATOM      5  C   UNL     1       6.929   0.647  -0.427  1.00  0.00     0.043 C 
BRANCH   5   6
ATOM      6  C   UNL     1       7.502  -0.582  -1.005  1.00  0.00    -0.044 A 
ATOM      7  C   UNL     1       7.800  -0.681  -2.369  1.00  0.00     0.008 A 
ATOM      8  C   UNL     1       7.756  -1.664  -0.193  1.00  0.00     0.054 A 
ATOM      9  C   UNL     1       8.337  -1.859  -2.855  1.00  0.00     0.051 A 
ATOM     10  C   UNL     1       8.299  -2.853  -0.689  1.00  0.00     0.166 A 
ATOM     11  C   UNL     1       8.592  -2.951  -2.031  1.00  0.00     0.165 A 
ATOM     12  O   UNL     1       8.638  -4.051  -0.096  1.00  0.00    -0.454 OA
ATOM     13  O   UNL     1       9.111  -4.220  -2.236  1.00  0.00    -0.454 OA
ATOM     14  C   UNL     1       9.242  -4.918  -1.021  1.00  0.00     0.468 C 
ENDBRANCH   5   6
ENDBRANCH   1   5
TORSDOF 3
ENDMDL
