@<TRIPOS>MOLECULE
/home/cewinharhar/GITHUB/reincatalyze/data/processed/docking_pred/2023-May-31-1438_sub9_nm5_bs15_s42_ex16_mel10_mts1000_k50_ec05_g099_lra9e-4_lrc3e-3/f1acaff2cf7a86b9bbc999bfeecc6491fc2a0881_ligand_9.pdbqt
 14 15 0 0 0
SMALL
GASTEIGER

@<TRIPOS>ATOM
      1  C          5.5460    1.9000    1.2960 C.3     1  UNL1        0.0800
      2  C          5.1040    0.6800    2.0270 C.2     1  UNL1        0.1300
      3  C          6.0030   -0.4910    2.2060 C.3     1  UNL1        0.0870
      4  O          3.9830    0.6060    2.5030 O.2     1  UNL1       -0.3000
      5  C          5.4090    1.7230   -0.2040 C.3     1  UNL1        0.0430
      6  C          6.5720    1.0250   -0.7800 C.2     1  UNL1       -0.0440
      7  C          7.8800    1.4620   -0.5450 C.2     1  UNL1        0.0080
      8  C          6.3780   -0.0870   -1.5680 C.2     1  UNL1        0.0540
      9  C          8.9320    0.7660   -1.1110 C.2     1  UNL1        0.0510
     10  C          7.4450   -0.7880   -2.1380 C.2     1  UNL1        0.1660
     11  C          8.7330   -0.3570   -1.9080 C.2     1  UNL1        0.1650
     12  O          7.5130   -1.9030   -2.9450 O.2     1  UNL1       -0.4540
     13  O          9.5740   -1.2270   -2.5850 O.2     1  UNL1       -0.4540
     14  C          8.8470   -2.2740   -3.1820 C.3     1  UNL1        0.4680
@<TRIPOS>BOND
     1    14    12    1
     2    14    13    1
     3    12    10    1
     4    13    11    1
     5    10    11    2
     6    10     8    1
     7    11     9    1
     8     8     6    2
     9     9     7    2
    10     6     7    1
    11     6     5    1
    12     5     1    1
    13     1     2    1
    14     2     3    1
    15     2     4    2
