@<TRIPOS>MOLECULE
/home/cewinharhar/GITHUB/reincatalyze/data/processed/docking_pred/2023-May-31-1438_sub9_nm5_bs15_s42_ex16_mel10_mts1000_k50_ec05_g099_lra9e-4_lrc3e-3/f1acaff2cf7a86b9bbc999bfeecc6491fc2a0881_ligand_9.pdbqt
 14 15 0 0 0
SMALL
GASTEIGER

@<TRIPOS>ATOM
      1  C          5.4050   -0.0440    1.9920 C.3     1  UNL1        0.0800
      2  C          4.5810    1.1570    1.6820 C.2     1  UNL1        0.1300
      3  C          4.9760    2.1220    0.6220 C.3     1  UNL1        0.0870
      4  O          3.5490    1.3840    2.2930 O.2     1  UNL1       -0.3000
      5  C          6.8570    0.1730    1.6160 C.3     1  UNL1        0.0430
      6  C          7.2900   -0.7520    0.5530 C.2     1  UNL1       -0.0440
      7  C          7.1750   -0.4170   -0.8010 C.2     1  UNL1        0.0080
      8  C          7.8240   -1.9750    0.8880 C.2     1  UNL1        0.0540
      9  C          7.5990   -1.3240   -1.7550 C.2     1  UNL1        0.0510
     10  C          8.2520   -2.8890   -0.0800 C.2     1  UNL1        0.1660
     11  C          8.1380   -2.5600   -1.4130 C.2     1  UNL1        0.1650
     12  O          8.8070   -4.1480   -0.0030 O.2     1  UNL1       -0.4540
     13  O          8.6310   -3.6360   -2.1340 O.2     1  UNL1       -0.4540
     14  C          9.1500   -4.6270   -1.2790 C.3     1  UNL1        0.4680
@<TRIPOS>BOND
     1    13    11    1
     2    13    14    1
     3     9    11    2
     4     9     7    1
     5    11    10    1
     6    14    12    1
     7     7     6    2
     8    10    12    1
     9    10     8    2
    10     6     8    1
    11     6     5    1
    12     3     2    1
    13     5     1    1
    14     2     1    1
    15     2     4    2
