@<TRIPOS>MOLECULE
/home/cewinharhar/GITHUB/reincatalyze/data/processed/docking_pred/2023-May-31-1438_sub9_nm5_bs15_s42_ex16_mel10_mts1000_k50_ec05_g099_lra9e-4_lrc3e-3/f1acaff2cf7a86b9bbc999bfeecc6491fc2a0881_ligand_9.pdbqt
 14 15 0 0 0
SMALL
GASTEIGER

@<TRIPOS>ATOM
      1  C          5.7790    1.5180   -0.2110 C.3     1  UNL1        0.0800
      2  C          5.1040    1.2910    1.0970 C.2     1  UNL1        0.1300
      3  C          5.4170    0.1070    1.9420 C.3     1  UNL1        0.0870
      4  O          4.2690    2.0750    1.5170 O.2     1  UNL1       -0.3000
      5  C          7.2580    1.1970   -0.1320 C.3     1  UNL1        0.0430
      6  C          7.5780   -0.0750   -0.8030 C.2     1  UNL1       -0.0440
      7  C          7.5450   -0.1970   -2.1970 C.2     1  UNL1        0.0080
      8  C          7.9210   -1.1760   -0.0520 C.2     1  UNL1        0.0540
      9  C          7.8560   -1.4160   -2.7720 C.2     1  UNL1        0.0510
     10  C          8.2350   -2.4060   -0.6370 C.2     1  UNL1        0.1660
     11  C          8.2020   -2.5270   -2.0090 C.2     1  UNL1        0.1650
     12  O          8.6010   -3.6290   -0.1160 O.2     1  UNL1       -0.4540
     13  O          8.5520   -3.8350   -2.3050 O.2     1  UNL1       -0.4540
     14  C          8.9010   -4.5440   -1.1390 C.3     1  UNL1        0.4680
@<TRIPOS>BOND
     1     9     7    1
     2     9    11    2
     3    13    11    1
     4    13    14    1
     5     7     6    2
     6    11    10    1
     7    14    12    1
     8     6     5    1
     9     6     8    1
    10    10    12    1
    11    10     8    2
    12     1     5    1
    13     1     2    1
    14     2     4    2
    15     2     3    1
