@<TRIPOS>MOLECULE
/home/cewinharhar/GITHUB/reincatalyze/data/processed/docking_pred/2023-May-31-1438_sub9_nm5_bs15_s42_ex16_mel10_mts1000_k50_ec05_g099_lra9e-4_lrc3e-3/f1acaff2cf7a86b9bbc999bfeecc6491fc2a0881_ligand_9.pdbqt
 14 15 0 0 0
SMALL
GASTEIGER

@<TRIPOS>ATOM
      1  C          6.3440    1.2350    0.8350 C.3     1  UNL1        0.0800
      2  C          5.6870    0.4030    1.8810 C.2     1  UNL1        0.1300
      3  C          6.3270   -0.8300    2.4130 C.3     1  UNL1        0.0870
      4  O          4.5970    0.7120    2.3350 O.2     1  UNL1       -0.3000
      5  C          5.8410    0.8760   -0.5490 C.3     1  UNL1        0.0430
      6  C          6.8140    0.0500   -1.2870 C.2     1  UNL1       -0.0440
      7  C          7.5390    0.5620   -2.3690 C.2     1  UNL1        0.0080
      8  C          7.0260   -1.2560   -0.9090 C.2     1  UNL1        0.0540
      9  C          8.4390   -0.2590   -3.0230 C.2     1  UNL1        0.0510
     10  C          7.9380   -2.0820   -1.5720 C.2     1  UNL1        0.1660
     11  C          8.6500   -1.5800   -2.6380 C.2     1  UNL1        0.1650
     12  O          8.3210   -3.3940   -1.3920 O.2     1  UNL1       -0.4540
     13  O          9.4650   -2.6040   -3.0950 O.2     1  UNL1       -0.4540
     14  C          9.3540   -3.7440   -2.2760 C.3     1  UNL1        0.4680
@<TRIPOS>BOND
     1    13    11    1
     2    13    14    1
     3     9    11    2
     4     9     7    1
     5    11    10    1
     6     7     6    2
     7    14    12    1
     8    10    12    1
     9    10     8    2
    10     6     8    1
    11     6     5    1
    12     5     1    1
    13     1     2    1
    14     2     4    2
    15     2     3    1
