@<TRIPOS>MOLECULE
/home/cewinharhar/GITHUB/reincatalyze/data/processed/docking_pred/2023-May-31-1438_sub9_nm5_bs15_s42_ex16_mel10_mts1000_k50_ec05_g099_lra9e-4_lrc3e-3/f32d20faebe3d2be17d1bcf3c85c7c889e58fe23_ligand_9.pdbqt
 14 15 0 0 0
SMALL
GASTEIGER

@<TRIPOS>ATOM
      1  C          5.9120    1.5480    1.2020 C.3     1  UNL1        0.0800
      2  C          5.3990    0.4210    2.0300 C.2     1  UNL1        0.1300
      3  C          6.2330   -0.7760    2.3210 C.3     1  UNL1        0.0870
      4  O          4.2720    0.4480    2.4960 O.2     1  UNL1       -0.3000
      5  C          5.6780    1.2970   -0.2750 C.3     1  UNL1        0.0430
      6  C          6.8270    0.6230   -0.9040 C.2     1  UNL1       -0.0440
      7  C          8.1010    1.2040   -0.9160 C.2     1  UNL1        0.0080
      8  C          6.6570   -0.6090   -1.4940 C.2     1  UNL1        0.0540
      9  C          9.1420    0.5240   -1.5210 C.2     1  UNL1        0.0510
     10  C          7.7130   -1.2920   -2.1030 C.2     1  UNL1        0.1660
     11  C          8.9660   -0.7210   -2.1170 C.2     1  UNL1        0.1650
     12  O          7.7980   -2.5080   -2.7480 O.2     1  UNL1       -0.4540
     13  O          9.8040   -1.6070   -2.7760 O.2     1  UNL1       -0.4540
     14  C          9.1240   -2.7930   -3.1130 C.3     1  UNL1        0.4680
@<TRIPOS>BOND
     1    14    13    1
     2    14    12    1
     3    13    11    1
     4    12    10    1
     5    11    10    2
     6    11     9    1
     7    10     8    1
     8     9     7    2
     9     8     6    2
    10     7     6    1
    11     6     5    1
    12     5     1    1
    13     1     2    1
    14     2     3    1
    15     2     4    2
