@<TRIPOS>MOLECULE
/home/cewinharhar/GITHUB/reincatalyze/data/processed/docking_pred/2023-May-31-1438_sub9_nm5_bs15_s42_ex16_mel10_mts1000_k50_ec05_g099_lra9e-4_lrc3e-3/f32d20faebe3d2be17d1bcf3c85c7c889e58fe23_ligand_9.pdbqt
 14 15 0 0 0
SMALL
GASTEIGER

@<TRIPOS>ATOM
      1  C          5.8080    1.0660   -0.2870 C.3     1  UNL1        0.0800
      2  C          5.7410    1.2520    1.1900 C.2     1  UNL1        0.1300
      3  C          4.9070    0.3710    2.0500 C.3     1  UNL1        0.0870
      4  O          6.3730    2.1390    1.7390 O.2     1  UNL1       -0.3000
      5  C          7.2350    0.8460   -0.7500 C.3     1  UNL1        0.0430
      6  C          7.6980   -0.5220   -0.4600 C.2     1  UNL1       -0.0440
      7  C          7.9290   -0.9570    0.8500 C.2     1  UNL1        0.0080
      8  C          7.9100   -1.4040   -1.4960 C.2     1  UNL1        0.0540
      9  C          8.3620   -2.2530    1.0610 C.2     1  UNL1        0.0510
     10  C          8.3480   -2.7140   -1.2780 C.2     1  UNL1        0.1660
     11  C          8.5760   -3.1420    0.0110 C.2     1  UNL1        0.1650
     12  O          8.6280   -3.7640   -2.1250 O.2     1  UNL1       -0.4540
     13  O          8.9950   -4.4600   -0.0720 O.2     1  UNL1       -0.4540
     14  C          8.9550   -4.9230   -1.4010 C.3     1  UNL1        0.4680
@<TRIPOS>BOND
     1    12    14    1
     2    12    10    1
     3     8    10    1
     4     8     6    2
     5    14    13    1
     6    10    11    2
     7     5     6    1
     8     5     1    1
     9     6     7    1
    10     1     2    1
    11    13    11    1
    12    11     9    1
    13     7     9    2
    14     2     4    2
    15     2     3    1
