@<TRIPOS>MOLECULE
/home/cewinharhar/GITHUB/reincatalyze/data/processed/docking_pred/2023-May-31-1438_sub9_nm5_bs15_s42_ex16_mel10_mts1000_k50_ec05_g099_lra9e-4_lrc3e-3/f338baa35ded8d3cb3d8a5b9e0cebf8a24c11f6d_ligand_9.pdbqt
 14 15 0 0 0
SMALL
GASTEIGER

@<TRIPOS>ATOM
      1  C          5.5440    1.9070    1.2800 C.3     1  UNL1        0.0800
      2  C          5.1010    0.6870    2.0110 C.2     1  UNL1        0.1300
      3  C          5.9970   -0.4870    2.1860 C.3     1  UNL1        0.0870
      4  O          3.9810    0.6160    2.4900 O.2     1  UNL1       -0.3000
      5  C          5.4150    1.7270   -0.2200 C.3     1  UNL1        0.0430
      6  C          6.5800    1.0250   -0.7880 C.2     1  UNL1       -0.0440
      7  C          7.8880    1.4540   -0.5380 C.2     1  UNL1        0.0080
      8  C          6.3880   -0.0820   -1.5830 C.2     1  UNL1        0.0540
      9  C          8.9420    0.7540   -1.0970 C.2     1  UNL1        0.0510
     10  C          7.4560   -0.7860   -2.1460 C.2     1  UNL1        0.1660
     11  C          8.7440   -0.3640   -1.9010 C.2     1  UNL1        0.1650
     12  O          7.5250   -1.8980   -2.9580 O.2     1  UNL1       -0.4540
     13  O          9.5860   -1.2350   -2.5750 O.2     1  UNL1       -0.4540
     14  C          8.8590   -2.2760   -3.1830 C.3     1  UNL1        0.4680
@<TRIPOS>BOND
     1    14    12    1
     2    14    13    1
     3    12    10    1
     4    13    11    1
     5    10    11    2
     6    10     8    1
     7    11     9    1
     8     8     6    2
     9     9     7    2
    10     6     7    1
    11     6     5    1
    12     5     1    1
    13     1     2    1
    14     2     3    1
    15     2     4    2
