@<TRIPOS>MOLECULE
/home/cewinharhar/GITHUB/reincatalyze/data/processed/docking_pred/2023-May-31-1438_sub9_nm5_bs15_s42_ex16_mel10_mts1000_k50_ec05_g099_lra9e-4_lrc3e-3/f338baa35ded8d3cb3d8a5b9e0cebf8a24c11f6d_ligand_9.pdbqt
 14 15 0 0 0
SMALL
GASTEIGER

@<TRIPOS>ATOM
      1  C          5.5700    0.0350    1.9430 C.3     1  UNL1        0.0800
      2  C          4.6630    1.1740    1.6280 C.2     1  UNL1        0.1300
      3  C          4.9680    2.1350    0.5350 C.3     1  UNL1        0.0870
      4  O          3.6360    1.3520    2.2630 O.2     1  UNL1       -0.3000
      5  C          6.9760    0.2960    1.4400 C.3     1  UNL1        0.0430
      6  C          7.3740   -0.6730    0.4030 C.2     1  UNL1       -0.0440
      7  C          7.2560   -0.3780   -0.9600 C.2     1  UNL1        0.0080
      8  C          7.8760   -1.9000    0.7730 C.2     1  UNL1        0.0540
      9  C          7.6460   -1.3260   -1.8880 C.2     1  UNL1        0.0510
     10  C          8.2700   -2.8550   -0.1690 C.2     1  UNL1        0.1660
     11  C          8.1530   -2.5660   -1.5110 C.2     1  UNL1        0.1650
     12  O          8.7900   -4.1270   -0.0570 O.2     1  UNL1       -0.4540
     13  O          8.6110   -3.6770   -2.2020 O.2     1  UNL1       -0.4540
     14  C          9.1090   -4.6540   -1.3190 C.3     1  UNL1        0.4680
@<TRIPOS>BOND
     1    13    11    1
     2    13    14    1
     3     9    11    2
     4     9     7    1
     5    11    10    1
     6    14    12    1
     7     7     6    2
     8    10    12    1
     9    10     8    2
    10     6     8    1
    11     6     5    1
    12     3     2    1
    13     5     1    1
    14     2     1    1
    15     2     4    2
