@<TRIPOS>MOLECULE
/home/cewinharhar/GITHUB/reincatalyze/data/processed/docking_pred/2023-May-31-1438_sub9_nm5_bs15_s42_ex16_mel10_mts1000_k50_ec05_g099_lra9e-4_lrc3e-3/f338baa35ded8d3cb3d8a5b9e0cebf8a24c11f6d_ligand_9.pdbqt
 14 15 0 0 0
SMALL
GASTEIGER

@<TRIPOS>ATOM
      1  C          6.3310    1.2620    0.8560 C.3     1  UNL1        0.0800
      2  C          5.6720    0.4330    1.9040 C.2     1  UNL1        0.1300
      3  C          6.3240   -0.7800    2.4650 C.3     1  UNL1        0.0870
      4  O          4.5690    0.7290    2.3350 O.2     1  UNL1       -0.3000
      5  C          5.8280    0.9020   -0.5280 C.3     1  UNL1        0.0430
      6  C          6.8010    0.0780   -1.2660 C.2     1  UNL1       -0.0440
      7  C          7.5300    0.5940   -2.3440 C.2     1  UNL1        0.0080
      8  C          7.0070   -1.2310   -0.8950 C.2     1  UNL1        0.0540
      9  C          8.4310   -0.2270   -2.9990 C.2     1  UNL1        0.0510
     10  C          7.9180   -2.0570   -1.5600 C.2     1  UNL1        0.1660
     11  C          8.6360   -1.5500   -2.6210 C.2     1  UNL1        0.1650
     12  O          8.2970   -3.3710   -1.3860 O.2     1  UNL1       -0.4540
     13  O          9.4490   -2.5740   -3.0800 O.2     1  UNL1       -0.4540
     14  C          9.3320   -3.7190   -2.2690 C.3     1  UNL1        0.4680
@<TRIPOS>BOND
     1    13    11    1
     2    13    14    1
     3     9    11    2
     4     9     7    1
     5    11    10    1
     6     7     6    2
     7    14    12    1
     8    10    12    1
     9    10     8    2
    10     6     8    1
    11     6     5    1
    12     5     1    1
    13     1     2    1
    14     2     4    2
    15     2     3    1
