@<TRIPOS>MOLECULE
/home/cewinharhar/GITHUB/reincatalyze/data/processed/docking_pred/2023-May-31-1438_sub9_nm5_bs15_s42_ex16_mel10_mts1000_k50_ec05_g099_lra9e-4_lrc3e-3/f3c5d297feb9947f67baa3310bcd1cfc63c32b25_ligand_9.pdbqt
 14 15 0 0 0
SMALL
GASTEIGER

@<TRIPOS>ATOM
      1  C          6.6240    0.2210    1.7700 C.3     1  UNL1        0.0800
      2  C          5.3280    0.9370    1.6000 C.2     1  UNL1        0.1300
      3  C          5.1180    1.9230    0.5060 C.3     1  UNL1        0.0870
      4  O          4.3960    0.7330    2.3600 O.2     1  UNL1       -0.3000
      5  C          6.4980   -1.2420    1.3940 C.3     1  UNL1        0.0430
      6  C          7.2410   -1.5550    0.1600 C.2     1  UNL1       -0.0440
      7  C          6.8310   -1.0670   -1.0860 C.2     1  UNL1        0.0080
      8  C          8.3670   -2.3430    0.2240 C.2     1  UNL1        0.0540
      9  C          7.5690   -1.3940   -2.2090 C.2     1  UNL1        0.0510
     10  C          9.1100   -2.6700   -0.9140 C.2     1  UNL1        0.1660
     11  C          8.7070   -2.1920   -2.1410 C.2     1  UNL1        0.1650
     12  O         10.2470   -3.4240   -1.1100 O.2     1  UNL1       -0.4540
     13  O          9.6150   -2.6660   -3.0750 O.2     1  UNL1       -0.4540
     14  C         10.6590   -3.3770   -2.4520 C.3     1  UNL1        0.4680
@<TRIPOS>BOND
     1    13    14    1
     2    13    11    1
     3    14    12    1
     4     9    11    2
     5     9     7    1
     6    11    10    1
     7    12    10    1
     8     7     6    2
     9    10     8    2
    10     6     8    1
    11     6     5    1
    12     3     2    1
    13     5     1    1
    14     2     1    1
    15     2     4    2
