@<TRIPOS>MOLECULE
/home/cewinharhar/GITHUB/reincatalyze/data/processed/docking_pred/2023-May-31-1438_sub9_nm5_bs15_s42_ex16_mel10_mts1000_k50_ec05_g099_lra9e-4_lrc3e-3/f411d25023d78b520541a26d40866fe70d26d332_ligand_9.pdbqt
 14 15 0 0 0
SMALL
GASTEIGER

@<TRIPOS>ATOM
      1  C          4.9440    0.1210    1.5010 C.3     1  UNL1        0.0800
      2  C          5.3950    1.4950    1.1400 C.2     1  UNL1        0.1300
      3  C          5.0280    2.1200   -0.1590 C.3     1  UNL1        0.0870
      4  O          6.0820    2.1500    1.9060 O.2     1  UNL1       -0.3000
      5  C          5.7980   -0.4650    2.6080 C.3     1  UNL1        0.0430
      6  C          7.0000   -1.1310    2.0760 C.2     1  UNL1       -0.0440
      7  C          8.2570   -0.5170    2.1160 C.2     1  UNL1        0.0080
      8  C          6.8970   -2.3890    1.5260 C.2     1  UNL1        0.0540
      9  C          9.3500   -1.1910    1.6020 C.2     1  UNL1        0.0510
     10  C          8.0050   -3.0660    1.0090 C.2     1  UNL1        0.1660
     11  C          9.2420   -2.4620    1.0470 C.2     1  UNL1        0.1650
     12  O          8.1590   -4.3030    0.4180 O.2     1  UNL1       -0.4540
     13  O         10.1390   -3.3500    0.4740 O.2     1  UNL1       -0.4540
     14  C          9.5110   -4.5660    0.1450 C.3     1  UNL1        0.4680
@<TRIPOS>BOND
     1     3     2    1
     2    14    12    1
     3    14    13    1
     4    12    10    1
     5    13    11    1
     6    10    11    2
     7    10     8    1
     8    11     9    1
     9     2     1    1
    10     2     4    2
    11     1     5    1
    12     8     6    2
    13     9     7    2
    14     6     7    1
    15     6     5    1
