MODEL 1
REMARK VINA RESULT:       1.2      0.000      0.000
REMARK SMILES CC(=O)CCc1ccc2c(c1)OCO2
REMARK SMILES IDX 4 1 2 2 1 3 3 4 5 5 6 6 7 7 11 8 8 9 10 10 9 11 12 12 14 13
REMARK SMILES IDX 13 14
REMARK H PARENT
REMARK Flexibility Score: inf
ROOT
ATOM      1  C   UNL     1       6.493   2.114   1.509  1.00  0.00     0.080 C 
ENDROOT
BRANCH   1   2
ATOM      2  C   UNL     1       5.168   2.057   0.831  1.00  0.00     0.130 C 
ATOM      3  C   UNL     1       5.045   2.139  -0.649  1.00  0.00     0.087 C 
ATOM      4  O   UNL     1       4.139   1.941   1.476  1.00  0.00    -0.300 OA
ENDBRANCH   1   2
BRANCH   1   5
ATOM      5  C   UNL     1       6.577   1.107   2.639  1.00  0.00     0.043 C 
BRANCH   5   6
ATOM      6  C   UNL     1       6.910  -0.241   2.145  1.00  0.00    -0.044 A 
ATOM      7  C   UNL     1       5.920  -1.206   1.926  1.00  0.00     0.008 A 
ATOM      8  C   UNL     1       8.221  -0.569   1.888  1.00  0.00     0.054 A 
ATOM      9  C   UNL     1       6.291  -2.455   1.461  1.00  0.00     0.051 A 
ATOM     10  C   UNL     1       8.592  -1.833   1.417  1.00  0.00     0.166 A 
ATOM     11  C   UNL     1       7.619  -2.783   1.202  1.00  0.00     0.165 A 
ATOM     12  O   UNL     1       9.808  -2.395   1.092  1.00  0.00    -0.454 OA
ATOM     13  O   UNL     1       8.264  -3.921   0.744  1.00  0.00    -0.454 OA
ATOM     14  C   UNL     1       9.642  -3.689   0.573  1.00  0.00     0.468 C 
ENDBRANCH   5   6
ENDBRANCH   1   5
TORSDOF 3
ENDMDL
MODEL 2
REMARK VINA RESULT:       1.3      2.158      5.769
REMARK SMILES CC(=O)CCc1ccc2c(c1)OCO2
REMARK SMILES IDX 4 1 2 2 1 3 3 4 5 5 6 6 7 7 11 8 8 9 10 10 9 11 12 12 14 13
REMARK SMILES IDX 13 14
REMARK H PARENT
REMARK Flexibility Score: inf
ROOT
ATOM      1  C   UNL     1       8.796  -4.773  -0.375  1.00  0.00     0.080 C 
ENDROOT
BRANCH   1   2
ATOM      2  C   UNL     1       9.533  -4.680  -1.666  1.00  0.00     0.130 C 
ATOM      3  C   UNL     1      10.356  -5.808  -2.179  1.00  0.00     0.087 C 
ATOM      4  O   UNL     1       9.482  -3.667  -2.345  1.00  0.00    -0.300 OA
ENDBRANCH   1   2
BRANCH   1   5
ATOM      5  C   UNL     1       9.539  -4.057   0.735  1.00  0.00     0.043 C 
BRANCH   5   6
ATOM      6  C   UNL     1       8.880  -2.792   1.106  1.00  0.00    -0.044 A 
ATOM      7  C   UNL     1       9.600  -1.597   1.225  1.00  0.00     0.008 A 
ATOM      8  C   UNL     1       7.524  -2.772   1.341  1.00  0.00     0.054 A 
ATOM      9  C   UNL     1       8.928  -0.441   1.575  1.00  0.00     0.051 A 
ATOM     10  C   UNL     1       6.849  -1.600   1.694  1.00  0.00     0.166 A 
ATOM     11  C   UNL     1       7.557  -0.425   1.812  1.00  0.00     0.165 A 
ATOM     12  O   UNL     1       5.528  -1.325   1.976  1.00  0.00    -0.454 OA
ATOM     13  O   UNL     1       6.646   0.558   2.167  1.00  0.00    -0.454 OA
ATOM     14  C   UNL     1       5.334   0.049   2.193  1.00  0.00     0.468 C 
ENDBRANCH   5   6
ENDBRANCH   1   5
TORSDOF 3
ENDMDL
MODEL 3
REMARK VINA RESULT:       1.5      3.188      4.097
REMARK SMILES CC(=O)CCc1ccc2c(c1)OCO2
REMARK SMILES IDX 4 1 2 2 1 3 3 4 5 5 6 6 7 7 11 8 8 9 10 10 9 11 12 12 14 13
REMARK SMILES IDX 13 14
REMARK H PARENT
REMARK Flexibility Score: inf
ROOT
ATOM      1  C   UNL     1       1.980  -0.104   2.955  1.00  0.00     0.080 C 
ENDROOT
BRANCH   1   2
ATOM      2  C   UNL     1       0.525   0.183   3.095  1.00  0.00     0.130 C 
ATOM      3  C   UNL     1      -0.122   1.308   2.368  1.00  0.00     0.087 C 
ATOM      4  O   UNL     1      -0.182  -0.502   3.816  1.00  0.00    -0.300 OA
ENDBRANCH   1   2
BRANCH   1   5
ATOM      5  C   UNL     1       2.723   1.087   2.382  1.00  0.00     0.043 C 
BRANCH   5   6
ATOM      6  C   UNL     1       4.146   0.782   2.147  1.00  0.00    -0.044 A 
ATOM      7  C   UNL     1       5.076   1.790   1.869  1.00  0.00     0.008 A 
ATOM      8  C   UNL     1       4.582  -0.523   2.203  1.00  0.00     0.054 A 
ATOM      9  C   UNL     1       6.398   1.444   1.658  1.00  0.00     0.051 A 
ATOM     10  C   UNL     1       5.920  -0.868   1.989  1.00  0.00     0.166 A 
ATOM     11  C   UNL     1       6.835   0.124   1.714  1.00  0.00     0.165 A 
ATOM     12  O   UNL     1       6.591  -2.072   1.989  1.00  0.00    -0.454 OA
ATOM     13  O   UNL     1       8.063  -0.498   1.550  1.00  0.00    -0.454 OA
ATOM     14  C   UNL     1       7.971  -1.880   1.805  1.00  0.00     0.468 C 
ENDBRANCH   5   6
ENDBRANCH   1   5
TORSDOF 3
ENDMDL
MODEL 4
REMARK VINA RESULT:       2.4      1.057      1.957
REMARK SMILES CC(=O)CCc1ccc2c(c1)OCO2
REMARK SMILES IDX 4 1 2 2 1 3 3 4 5 5 6 6 7 7 11 8 8 9 10 10 9 11 12 12 14 13
REMARK SMILES IDX 13 14
REMARK H PARENT
REMARK Flexibility Score: inf
ROOT
ATOM      1  C   UNL     1       4.944   0.121   1.501  1.00  0.00     0.080 C 
ENDROOT
BRANCH   1   2
ATOM      2  C   UNL     1       5.395   1.495   1.140  1.00  0.00     0.130 C 
ATOM      3  C   UNL     1       5.028   2.120  -0.159  1.00  0.00     0.087 C 
ATOM      4  O   UNL     1       6.082   2.150   1.906  1.00  0.00    -0.300 OA
ENDBRANCH   1   2
BRANCH   1   5
ATOM      5  C   UNL     1       5.798  -0.465   2.608  1.00  0.00     0.043 C 
BRANCH   5   6
ATOM      6  C   UNL     1       7.000  -1.131   2.076  1.00  0.00    -0.044 A 
ATOM      7  C   UNL     1       8.257  -0.517   2.116  1.00  0.00     0.008 A 
ATOM      8  C   UNL     1       6.897  -2.389   1.526  1.00  0.00     0.054 A 
ATOM      9  C   UNL     1       9.350  -1.191   1.602  1.00  0.00     0.051 A 
ATOM     10  C   UNL     1       8.005  -3.066   1.009  1.00  0.00     0.166 A 
ATOM     11  C   UNL     1       9.242  -2.462   1.047  1.00  0.00     0.165 A 
ATOM     12  O   UNL     1       8.159  -4.303   0.418  1.00  0.00    -0.454 OA
ATOM     13  O   UNL     1      10.139  -3.350   0.474  1.00  0.00    -0.454 OA
ATOM     14  C   UNL     1       9.511  -4.566   0.145  1.00  0.00     0.468 C 
ENDBRANCH   5   6
ENDBRANCH   1   5
TORSDOF 3
ENDMDL
MODEL 5
REMARK VINA RESULT:       2.7      1.814      5.682
REMARK SMILES CC(=O)CCc1ccc2c(c1)OCO2
REMARK SMILES IDX 4 1 2 2 1 3 3 4 5 5 6 6 7 7 11 8 8 9 10 10 9 11 12 12 14 13
REMARK SMILES IDX 13 14
REMARK H PARENT
REMARK Flexibility Score: inf
ROOT
ATOM      1  C   UNL     1       9.553  -3.792   0.253  1.00  0.00     0.080 C 
ENDROOT
BRANCH   1   2
ATOM      2  C   UNL     1       9.239  -4.522  -1.007  1.00  0.00     0.130 C 
ATOM      3  C   UNL     1       8.888  -5.967  -1.005  1.00  0.00     0.087 C 
ATOM      4  O   UNL     1       9.261  -3.950  -2.084  1.00  0.00    -0.300 OA
ENDBRANCH   1   2
BRANCH   1   5
ATOM      5  C   UNL     1       8.363  -3.776   1.192  1.00  0.00     0.043 C 
BRANCH   5   6
ATOM      6  C   UNL     1       7.884  -2.405   1.443  1.00  0.00    -0.044 A 
ATOM      7  C   UNL     1       8.767  -1.321   1.514  1.00  0.00     0.008 A 
ATOM      8  C   UNL     1       6.537  -2.173   1.611  1.00  0.00     0.054 A 
ATOM      9  C   UNL     1       8.259  -0.057   1.751  1.00  0.00     0.051 A 
ATOM     10  C   UNL     1       6.029  -0.893   1.850  1.00  0.00     0.166 A 
ATOM     11  C   UNL     1       6.897   0.174   1.921  1.00  0.00     0.165 A 
ATOM     12  O   UNL     1       4.753  -0.410   2.049  1.00  0.00    -0.454 OA
ATOM     13  O   UNL     1       6.128   1.301   2.164  1.00  0.00    -0.454 OA
ATOM     14  C   UNL     1       4.755   0.990   2.161  1.00  0.00     0.468 C 
ENDBRANCH   5   6
ENDBRANCH   1   5
TORSDOF 3
ENDMDL
