@<TRIPOS>MOLECULE
/home/cewinharhar/GITHUB/reincatalyze/data/processed/docking_pred/2023-May-31-1438_sub9_nm5_bs15_s42_ex16_mel10_mts1000_k50_ec05_g099_lra9e-4_lrc3e-3/f411d25023d78b520541a26d40866fe70d26d332_ligand_9.pdbqt
 14 15 0 0 0
SMALL
GASTEIGER

@<TRIPOS>ATOM
      1  C          9.5530   -3.7920    0.2530 C.3     1  UNL1        0.0800
      2  C          9.2390   -4.5220   -1.0070 C.2     1  UNL1        0.1300
      3  C          8.8880   -5.9670   -1.0050 C.3     1  UNL1        0.0870
      4  O          9.2610   -3.9500   -2.0840 O.2     1  UNL1       -0.3000
      5  C          8.3630   -3.7760    1.1920 C.3     1  UNL1        0.0430
      6  C          7.8840   -2.4050    1.4430 C.2     1  UNL1       -0.0440
      7  C          8.7670   -1.3210    1.5140 C.2     1  UNL1        0.0080
      8  C          6.5370   -2.1730    1.6110 C.2     1  UNL1        0.0540
      9  C          8.2590   -0.0570    1.7510 C.2     1  UNL1        0.0510
     10  C          6.0290   -0.8930    1.8500 C.2     1  UNL1        0.1660
     11  C          6.8970    0.1740    1.9210 C.2     1  UNL1        0.1650
     12  O          4.7530   -0.4100    2.0490 O.2     1  UNL1       -0.4540
     13  O          6.1280    1.3010    2.1640 O.2     1  UNL1       -0.4540
     14  C          4.7550    0.9900    2.1610 C.3     1  UNL1        0.4680
@<TRIPOS>BOND
     1     4     2    2
     2     2     3    1
     3     2     1    1
     4     1     5    1
     5     5     6    1
     6     6     7    2
     7     6     8    1
     8     7     9    1
     9     8    10    2
    10     9    11    2
    11    10    11    1
    12    10    12    1
    13    11    13    1
    14    12    14    1
    15    14    13    1
