@<TRIPOS>MOLECULE
/home/cewinharhar/GITHUB/reincatalyze/data/processed/docking_pred/2023-May-31-1438_sub9_nm5_bs15_s42_ex16_mel10_mts1000_k50_ec05_g099_lra9e-4_lrc3e-3/f411d25023d78b520541a26d40866fe70d26d332_ligand_9.pdbqt
 14 15 0 0 0
SMALL
GASTEIGER

@<TRIPOS>ATOM
      1  C          1.9800   -0.1040    2.9550 C.3     1  UNL1        0.0800
      2  C          0.5250    0.1830    3.0950 C.2     1  UNL1        0.1300
      3  C         -0.1220    1.3080    2.3680 C.3     1  UNL1        0.0870
      4  O         -0.1820   -0.5020    3.8160 O.2     1  UNL1       -0.3000
      5  C          2.7230    1.0870    2.3820 C.3     1  UNL1        0.0430
      6  C          4.1460    0.7820    2.1470 C.2     1  UNL1       -0.0440
      7  C          5.0760    1.7900    1.8690 C.2     1  UNL1        0.0080
      8  C          4.5820   -0.5230    2.2030 C.2     1  UNL1        0.0540
      9  C          6.3980    1.4440    1.6580 C.2     1  UNL1        0.0510
     10  C          5.9200   -0.8680    1.9890 C.2     1  UNL1        0.1660
     11  C          6.8350    0.1240    1.7140 C.2     1  UNL1        0.1650
     12  O          6.5910   -2.0720    1.9890 O.2     1  UNL1       -0.4540
     13  O          8.0630   -0.4980    1.5500 O.2     1  UNL1       -0.4540
     14  C          7.9710   -1.8800    1.8050 C.3     1  UNL1        0.4680
@<TRIPOS>BOND
     1    13    11    1
     2    13    14    1
     3     9    11    2
     4     9     7    1
     5    11    10    1
     6    14    12    1
     7     7     6    2
     8    10    12    1
     9    10     8    2
    10     6     8    1
    11     6     5    1
    12     3     2    1
    13     5     1    1
    14     1     2    1
    15     2     4    2
