@<TRIPOS>MOLECULE
/home/cewinharhar/GITHUB/reincatalyze/data/processed/docking_pred/2023-May-31-1438_sub9_nm5_bs15_s42_ex16_mel10_mts1000_k50_ec05_g099_lra9e-4_lrc3e-3/f411d25023d78b520541a26d40866fe70d26d332_ligand_9.pdbqt
 14 15 0 0 0
SMALL
GASTEIGER

@<TRIPOS>ATOM
      1  C          6.4930    2.1140    1.5090 C.3     1  UNL1        0.0800
      2  C          5.1680    2.0570    0.8310 C.2     1  UNL1        0.1300
      3  C          5.0450    2.1390   -0.6490 C.3     1  UNL1        0.0870
      4  O          4.1390    1.9410    1.4760 O.2     1  UNL1       -0.3000
      5  C          6.5770    1.1070    2.6390 C.3     1  UNL1        0.0430
      6  C          6.9100   -0.2410    2.1450 C.2     1  UNL1       -0.0440
      7  C          5.9200   -1.2060    1.9260 C.2     1  UNL1        0.0080
      8  C          8.2210   -0.5690    1.8880 C.2     1  UNL1        0.0540
      9  C          6.2910   -2.4550    1.4610 C.2     1  UNL1        0.0510
     10  C          8.5920   -1.8330    1.4170 C.2     1  UNL1        0.1660
     11  C          7.6190   -2.7830    1.2020 C.2     1  UNL1        0.1650
     12  O          9.8080   -2.3950    1.0920 O.2     1  UNL1       -0.4540
     13  O          8.2640   -3.9210    0.7440 O.2     1  UNL1       -0.4540
     14  C          9.6420   -3.6890    0.5730 C.3     1  UNL1        0.4680
@<TRIPOS>BOND
     1     3     2    1
     2    14    13    1
     3    14    12    1
     4    13    11    1
     5     2     4    2
     6     2     1    1
     7    12    10    1
     8    11    10    2
     9    11     9    1
    10    10     8    1
    11     9     7    2
    12     1     5    1
    13     8     6    2
    14     7     6    1
    15     6     5    1
