@<TRIPOS>MOLECULE
/home/cewinharhar/GITHUB/reincatalyze/data/processed/docking_pred/2023-May-31-1438_sub9_nm5_bs15_s42_ex16_mel10_mts1000_k50_ec05_g099_lra9e-4_lrc3e-3/f411d25023d78b520541a26d40866fe70d26d332_ligand_9.pdbqt
 14 15 0 0 0
SMALL
GASTEIGER

@<TRIPOS>ATOM
      1  C          8.7960   -4.7730   -0.3750 C.3     1  UNL1        0.0800
      2  C          9.5330   -4.6800   -1.6660 C.2     1  UNL1        0.1300
      3  C         10.3560   -5.8080   -2.1790 C.3     1  UNL1        0.0870
      4  O          9.4820   -3.6670   -2.3450 O.2     1  UNL1       -0.3000
      5  C          9.5390   -4.0570    0.7350 C.3     1  UNL1        0.0430
      6  C          8.8800   -2.7920    1.1060 C.2     1  UNL1       -0.0440
      7  C          9.6000   -1.5970    1.2250 C.2     1  UNL1        0.0080
      8  C          7.5240   -2.7720    1.3410 C.2     1  UNL1        0.0540
      9  C          8.9280   -0.4410    1.5750 C.2     1  UNL1        0.0510
     10  C          6.8490   -1.6000    1.6940 C.2     1  UNL1        0.1660
     11  C          7.5570   -0.4250    1.8120 C.2     1  UNL1        0.1650
     12  O          5.5280   -1.3250    1.9760 O.2     1  UNL1       -0.4540
     13  O          6.6460    0.5580    2.1670 O.2     1  UNL1       -0.4540
     14  C          5.3340    0.0490    2.1930 C.3     1  UNL1        0.4680
@<TRIPOS>BOND
     1     4     2    2
     2     3     2    1
     3     2     1    1
     4     1     5    1
     5     5     6    1
     6     6     7    2
     7     6     8    1
     8     7     9    1
     9     8    10    2
    10     9    11    2
    11    10    11    1
    12    10    12    1
    13    11    13    1
    14    12    14    1
    15    13    14    1
