@<TRIPOS>MOLECULE
/home/cewinharhar/GITHUB/reincatalyze/data/processed/docking_pred/2023-May-31-1438_sub9_nm5_bs15_s42_ex16_mel10_mts1000_k50_ec05_g099_lra9e-4_lrc3e-3/f43d8cd6194682d8f3e5600fbc578d0750565092_ligand_9.pdbqt
 14 15 0 0 0
SMALL
GASTEIGER

@<TRIPOS>ATOM
      1  C          5.5120    1.9450    1.2550 C.3     1  UNL1        0.0800
      2  C          5.0940    0.7280    2.0050 C.2     1  UNL1        0.1300
      3  C          6.0080   -0.4320    2.1830 C.3     1  UNL1        0.0870
      4  O          3.9800    0.6480    2.4980 O.2     1  UNL1       -0.3000
      5  C          5.3860    1.7410   -0.2410 C.3     1  UNL1        0.0430
      6  C          6.5570    1.0400   -0.7980 C.2     1  UNL1       -0.0440
      7  C          7.8630    1.4740   -0.5390 C.2     1  UNL1        0.0080
      8  C          6.3750   -0.0710   -1.5900 C.2     1  UNL1        0.0540
      9  C          8.9230    0.7760   -1.0870 C.2     1  UNL1        0.0510
     10  C          7.4510   -0.7730   -2.1420 C.2     1  UNL1        0.1660
     11  C          8.7350   -0.3460   -1.8880 C.2     1  UNL1        0.1650
     12  O          7.5300   -1.8880   -2.9490 O.2     1  UNL1       -0.4540
     13  O          9.5850   -1.2170   -2.5520 O.2     1  UNL1       -0.4540
     14  C          8.8670   -2.2620   -3.1620 C.3     1  UNL1        0.4680
@<TRIPOS>BOND
     1    14    12    1
     2    14    13    1
     3    12    10    1
     4    13    11    1
     5    10    11    2
     6    10     8    1
     7    11     9    1
     8     8     6    2
     9     9     7    2
    10     6     7    1
    11     6     5    1
    12     5     1    1
    13     1     2    1
    14     2     3    1
    15     2     4    2
