MODEL 1
REMARK VINA RESULT:      -7.7      0.000      0.000
REMARK SMILES CC(=O)CCc1ccc2c(c1)OCO2
REMARK SMILES IDX 4 1 2 2 1 3 3 4 5 5 6 6 7 7 11 8 8 9 10 10 9 11 12 12 14 13
REMARK SMILES IDX 13 14
REMARK H PARENT
REMARK Flexibility Score: inf
ROOT
ATOM      1  C   UNL     1       5.512   1.945   1.255  1.00  0.00     0.080 C 
ENDROOT
BRANCH   1   2
ATOM      2  C   UNL     1       5.094   0.728   2.005  1.00  0.00     0.130 C 
ATOM      3  C   UNL     1       6.008  -0.432   2.183  1.00  0.00     0.087 C 
ATOM      4  O   UNL     1       3.980   0.648   2.498  1.00  0.00    -0.300 OA
ENDBRANCH   1   2
BRANCH   1   5
ATOM      5  C   UNL     1       5.386   1.741  -0.241  1.00  0.00     0.043 C 
BRANCH   5   6
ATOM      6  C   UNL     1       6.557   1.040  -0.798  1.00  0.00    -0.044 A 
ATOM      7  C   UNL     1       7.863   1.474  -0.539  1.00  0.00     0.008 A 
ATOM      8  C   UNL     1       6.375  -0.071  -1.590  1.00  0.00     0.054 A 
ATOM      9  C   UNL     1       8.923   0.776  -1.087  1.00  0.00     0.051 A 
ATOM     10  C   UNL     1       7.451  -0.773  -2.142  1.00  0.00     0.166 A 
ATOM     11  C   UNL     1       8.735  -0.346  -1.888  1.00  0.00     0.165 A 
ATOM     12  O   UNL     1       7.530  -1.888  -2.949  1.00  0.00    -0.454 OA
ATOM     13  O   UNL     1       9.585  -1.217  -2.552  1.00  0.00    -0.454 OA
ATOM     14  C   UNL     1       8.867  -2.262  -3.162  1.00  0.00     0.468 C 
ENDBRANCH   5   6
ENDBRANCH   1   5
TORSDOF 3
ENDMDL
MODEL 2
REMARK VINA RESULT:      -7.3      1.945      2.465
REMARK SMILES CC(=O)CCc1ccc2c(c1)OCO2
REMARK SMILES IDX 4 1 2 2 1 3 3 4 5 5 6 6 7 7 11 8 8 9 10 10 9 11 12 12 14 13
REMARK SMILES IDX 13 14
REMARK H PARENT
REMARK Flexibility Score: inf
ROOT
ATOM      1  C   UNL     1       5.927   1.386  -0.341  1.00  0.00     0.080 C 
ENDROOT
BRANCH   1   2
ATOM      2  C   UNL     1       5.312   1.304   1.013  1.00  0.00     0.130 C 
ATOM      3  C   UNL     1       5.635   0.196   1.951  1.00  0.00     0.087 C 
ATOM      4  O   UNL     1       4.519   2.150   1.394  1.00  0.00    -0.300 OA
ENDBRANCH   1   2
BRANCH   1   5
ATOM      5  C   UNL     1       7.410   1.076  -0.292  1.00  0.00     0.043 C 
BRANCH   5   6
ATOM      6  C   UNL     1       7.715  -0.234  -0.894  1.00  0.00    -0.044 A 
ATOM      7  C   UNL     1       7.704  -0.423  -2.281  1.00  0.00     0.008 A 
ATOM      8  C   UNL     1       8.020  -1.303  -0.083  1.00  0.00     0.054 A 
ATOM      9  C   UNL     1       7.999  -1.675  -2.789  1.00  0.00     0.051 A 
ATOM     10  C   UNL     1       8.318  -2.567  -0.602  1.00  0.00     0.166 A 
ATOM     11  C   UNL     1       8.307  -2.754  -1.966  1.00  0.00     0.165 A 
ATOM     12  O   UNL     1       8.648  -3.770  -0.015  1.00  0.00    -0.454 OA
ATOM     13  O   UNL     1       8.634  -4.082  -2.191  1.00  0.00    -0.454 OA
ATOM     14  C   UNL     1       8.947  -4.740  -0.986  1.00  0.00     0.468 C 
ENDBRANCH   5   6
ENDBRANCH   1   5
TORSDOF 3
ENDMDL
MODEL 3
REMARK VINA RESULT:      -7.2      2.057      2.633
REMARK SMILES CC(=O)CCc1ccc2c(c1)OCO2
REMARK SMILES IDX 4 1 2 2 1 3 3 4 5 5 6 6 7 7 11 8 8 9 10 10 9 11 12 12 14 13
REMARK SMILES IDX 13 14
REMARK H PARENT
REMARK Flexibility Score: inf
ROOT
ATOM      1  C   UNL     1       5.427  -0.048   2.012  1.00  0.00     0.080 C 
ENDROOT
BRANCH   1   2
ATOM      2  C   UNL     1       4.578   1.151   1.766  1.00  0.00     0.130 C 
ATOM      3  C   UNL     1       4.910   2.139   0.705  1.00  0.00     0.087 C 
ATOM      4  O   UNL     1       3.578   1.359   2.434  1.00  0.00    -0.300 OA
ENDBRANCH   1   2
BRANCH   1   5
ATOM      5  C   UNL     1       6.863   0.200   1.594  1.00  0.00     0.043 C 
BRANCH   5   6
ATOM      6  C   UNL     1       7.290  -0.728   0.531  1.00  0.00    -0.044 A 
ATOM      7  C   UNL     1       7.168  -0.396  -0.823  1.00  0.00     0.008 A 
ATOM      8  C   UNL     1       7.824  -1.950   0.867  1.00  0.00     0.054 A 
ATOM      9  C   UNL     1       7.586  -1.306  -1.777  1.00  0.00     0.051 A 
ATOM     10  C   UNL     1       8.246  -2.867  -0.102  1.00  0.00     0.166 A 
ATOM     11  C   UNL     1       8.126  -2.542  -1.434  1.00  0.00     0.165 A 
ATOM     12  O   UNL     1       8.801  -4.126  -0.025  1.00  0.00    -0.454 OA
ATOM     13  O   UNL     1       8.615  -3.619  -2.156  1.00  0.00    -0.454 OA
ATOM     14  C   UNL     1       9.137  -4.608  -1.301  1.00  0.00     0.468 C 
ENDBRANCH   5   6
ENDBRANCH   1   5
TORSDOF 3
ENDMDL
MODEL 4
REMARK VINA RESULT:      -7.1      1.991      2.535
REMARK SMILES CC(=O)CCc1ccc2c(c1)OCO2
REMARK SMILES IDX 4 1 2 2 1 3 3 4 5 5 6 6 7 7 11 8 8 9 10 10 9 11 12 12 14 13
REMARK SMILES IDX 13 14
REMARK H PARENT
REMARK Flexibility Score: inf
ROOT
ATOM      1  C   UNL     1       6.759   0.794   1.403  1.00  0.00     0.080 C 
ENDROOT
BRANCH   1   2
ATOM      2  C   UNL     1       5.319   1.171   1.464  1.00  0.00     0.130 C 
ATOM      3  C   UNL     1       4.728   2.150   0.514  1.00  0.00     0.087 C 
ATOM      4  O   UNL     1       4.579   0.683   2.303  1.00  0.00    -0.300 OA
ENDBRANCH   1   2
BRANCH   1   5
ATOM      5  C   UNL     1       7.329   1.020   0.017  1.00  0.00     0.043 C 
BRANCH   5   6
ATOM      6  C   UNL     1       7.665  -0.251  -0.650  1.00  0.00    -0.044 A 
ATOM      7  C   UNL     1       7.683  -0.365  -2.045  1.00  0.00     0.008 A 
ATOM      8  C   UNL     1       7.971  -1.359   0.108  1.00  0.00     0.054 A 
ATOM      9  C   UNL     1       8.006  -1.583  -2.614  1.00  0.00     0.051 A 
ATOM     10  C   UNL     1       8.297  -2.588  -0.473  1.00  0.00     0.166 A 
ATOM     11  C   UNL     1       8.315  -2.701  -1.846  1.00  0.00     0.165 A 
ATOM     12  O   UNL     1       8.633  -3.817   0.054  1.00  0.00    -0.454 OA
ATOM     13  O   UNL     1       8.666  -4.010  -2.136  1.00  0.00    -0.454 OA
ATOM     14  C   UNL     1       8.965  -4.728  -0.962  1.00  0.00     0.468 C 
ENDBRANCH   5   6
ENDBRANCH   1   5
TORSDOF 3
ENDMDL
MODEL 5
REMARK VINA RESULT:      -7.1      1.267      1.491
REMARK SMILES CC(=O)CCc1ccc2c(c1)OCO2
REMARK SMILES IDX 4 1 2 2 1 3 3 4 5 5 6 6 7 7 11 8 8 9 10 10 9 11 12 12 14 13
REMARK SMILES IDX 13 14
REMARK H PARENT
REMARK Flexibility Score: inf
ROOT
ATOM      1  C   UNL     1       6.402   1.182   0.943  1.00  0.00     0.080 C 
ENDROOT
BRANCH   1   2
ATOM      2  C   UNL     1       5.649   0.366   1.937  1.00  0.00     0.130 C 
ATOM      3  C   UNL     1       6.224  -0.873   2.526  1.00  0.00     0.087 C 
ATOM      4  O   UNL     1       4.530   0.694   2.298  1.00  0.00    -0.300 OA
ENDBRANCH   1   2
BRANCH   1   5
ATOM      5  C   UNL     1       5.903   0.931  -0.466  1.00  0.00     0.043 C 
BRANCH   5   6
ATOM      6  C   UNL     1       6.841   0.095  -1.237  1.00  0.00    -0.044 A 
ATOM      7  C   UNL     1       7.524   0.597  -2.350  1.00  0.00     0.008 A 
ATOM      8  C   UNL     1       7.061  -1.210  -0.859  1.00  0.00     0.054 A 
ATOM      9  C   UNL     1       8.394  -0.234  -3.034  1.00  0.00     0.051 A 
ATOM     10  C   UNL     1       7.941  -2.045  -1.554  1.00  0.00     0.166 A 
ATOM     11  C   UNL     1       8.612  -1.553  -2.651  1.00  0.00     0.165 A 
ATOM     12  O   UNL     1       8.323  -3.359  -1.381  1.00  0.00    -0.454 OA
ATOM     13  O   UNL     1       9.403  -2.585  -3.133  1.00  0.00    -0.454 OA
ATOM     14  C   UNL     1       9.319  -3.719  -2.304  1.00  0.00     0.468 C 
ENDBRANCH   5   6
ENDBRANCH   1   5
TORSDOF 3
ENDMDL
