@<TRIPOS>MOLECULE
/home/cewinharhar/GITHUB/reincatalyze/data/processed/docking_pred/2023-May-31-1438_sub9_nm5_bs15_s42_ex16_mel10_mts1000_k50_ec05_g099_lra9e-4_lrc3e-3/f43d8cd6194682d8f3e5600fbc578d0750565092_ligand_9.pdbqt
 14 15 0 0 0
SMALL
GASTEIGER

@<TRIPOS>ATOM
      1  C          5.9270    1.3860   -0.3410 C.3     1  UNL1        0.0800
      2  C          5.3120    1.3040    1.0130 C.2     1  UNL1        0.1300
      3  C          5.6350    0.1960    1.9510 C.3     1  UNL1        0.0870
      4  O          4.5190    2.1500    1.3940 O.2     1  UNL1       -0.3000
      5  C          7.4100    1.0760   -0.2920 C.3     1  UNL1        0.0430
      6  C          7.7150   -0.2340   -0.8940 C.2     1  UNL1       -0.0440
      7  C          7.7040   -0.4230   -2.2810 C.2     1  UNL1        0.0080
      8  C          8.0200   -1.3030   -0.0830 C.2     1  UNL1        0.0540
      9  C          7.9990   -1.6750   -2.7890 C.2     1  UNL1        0.0510
     10  C          8.3180   -2.5670   -0.6020 C.2     1  UNL1        0.1660
     11  C          8.3070   -2.7540   -1.9660 C.2     1  UNL1        0.1650
     12  O          8.6480   -3.7700   -0.0150 O.2     1  UNL1       -0.4540
     13  O          8.6340   -4.0820   -2.1910 O.2     1  UNL1       -0.4540
     14  C          8.9470   -4.7400   -0.9860 C.3     1  UNL1        0.4680
@<TRIPOS>BOND
     1     9     7    1
     2     9    11    2
     3     7     6    2
     4    13    11    1
     5    13    14    1
     6    11    10    1
     7    14    12    1
     8     6     5    1
     9     6     8    1
    10    10     8    2
    11    10    12    1
    12     1     5    1
    13     1     2    1
    14     2     4    2
    15     2     3    1
