@<TRIPOS>MOLECULE
/home/cewinharhar/GITHUB/reincatalyze/data/processed/docking_pred/2023-May-31-1438_sub9_nm5_bs15_s42_ex16_mel10_mts1000_k50_ec05_g099_lra9e-4_lrc3e-3/f43d8cd6194682d8f3e5600fbc578d0750565092_ligand_9.pdbqt
 14 15 0 0 0
SMALL
GASTEIGER

@<TRIPOS>ATOM
      1  C          6.4020    1.1820    0.9430 C.3     1  UNL1        0.0800
      2  C          5.6490    0.3660    1.9370 C.2     1  UNL1        0.1300
      3  C          6.2240   -0.8730    2.5260 C.3     1  UNL1        0.0870
      4  O          4.5300    0.6940    2.2980 O.2     1  UNL1       -0.3000
      5  C          5.9030    0.9310   -0.4660 C.3     1  UNL1        0.0430
      6  C          6.8410    0.0950   -1.2370 C.2     1  UNL1       -0.0440
      7  C          7.5240    0.5970   -2.3500 C.2     1  UNL1        0.0080
      8  C          7.0610   -1.2100   -0.8590 C.2     1  UNL1        0.0540
      9  C          8.3940   -0.2340   -3.0340 C.2     1  UNL1        0.0510
     10  C          7.9410   -2.0450   -1.5540 C.2     1  UNL1        0.1660
     11  C          8.6120   -1.5530   -2.6510 C.2     1  UNL1        0.1650
     12  O          8.3230   -3.3590   -1.3810 O.2     1  UNL1       -0.4540
     13  O          9.4030   -2.5850   -3.1330 O.2     1  UNL1       -0.4540
     14  C          9.3190   -3.7190   -2.3040 C.3     1  UNL1        0.4680
@<TRIPOS>BOND
     1    13    11    1
     2    13    14    1
     3     9    11    2
     4     9     7    1
     5    11    10    1
     6     7     6    2
     7    14    12    1
     8    10    12    1
     9    10     8    2
    10     6     8    1
    11     6     5    1
    12     5     1    1
    13     1     2    1
    14     2     4    2
    15     2     3    1
