@<TRIPOS>MOLECULE
/home/cewinharhar/GITHUB/reincatalyze/data/processed/docking_pred/2023-May-31-1438_sub9_nm5_bs15_s42_ex16_mel10_mts1000_k50_ec05_g099_lra9e-4_lrc3e-3/f43d8cd6194682d8f3e5600fbc578d0750565092_ligand_9.pdbqt
 14 15 0 0 0
SMALL
GASTEIGER

@<TRIPOS>ATOM
      1  C          5.4270   -0.0480    2.0120 C.3     1  UNL1        0.0800
      2  C          4.5780    1.1510    1.7660 C.2     1  UNL1        0.1300
      3  C          4.9100    2.1390    0.7050 C.3     1  UNL1        0.0870
      4  O          3.5780    1.3590    2.4340 O.2     1  UNL1       -0.3000
      5  C          6.8630    0.2000    1.5940 C.3     1  UNL1        0.0430
      6  C          7.2900   -0.7280    0.5310 C.2     1  UNL1       -0.0440
      7  C          7.1680   -0.3960   -0.8230 C.2     1  UNL1        0.0080
      8  C          7.8240   -1.9500    0.8670 C.2     1  UNL1        0.0540
      9  C          7.5860   -1.3060   -1.7770 C.2     1  UNL1        0.0510
     10  C          8.2460   -2.8670   -0.1020 C.2     1  UNL1        0.1660
     11  C          8.1260   -2.5420   -1.4340 C.2     1  UNL1        0.1650
     12  O          8.8010   -4.1260   -0.0250 O.2     1  UNL1       -0.4540
     13  O          8.6150   -3.6190   -2.1560 O.2     1  UNL1       -0.4540
     14  C          9.1370   -4.6080   -1.3010 C.3     1  UNL1        0.4680
@<TRIPOS>BOND
     1    13    11    1
     2    13    14    1
     3     9    11    2
     4     9     7    1
     5    11    10    1
     6    14    12    1
     7     7     6    2
     8    10    12    1
     9    10     8    2
    10     6     8    1
    11     6     5    1
    12     3     2    1
    13     5     1    1
    14     2     1    1
    15     2     4    2
