MODEL 1
REMARK VINA RESULT:      -7.6      0.000      0.000
REMARK SMILES CC(=O)CCc1ccc2c(c1)OCO2
REMARK SMILES IDX 4 1 2 2 1 3 3 4 5 5 6 6 7 7 11 8 8 9 10 10 9 11 12 12 14 13
REMARK SMILES IDX 13 14
REMARK H PARENT
REMARK Flexibility Score: inf
ROOT
ATOM      1  C   UNL     1       5.548   1.901   1.286  1.00  0.00     0.080 C 
ENDROOT
BRANCH   1   2
ATOM      2  C   UNL     1       5.103   0.678   2.011  1.00  0.00     0.130 C 
ATOM      3  C   UNL     1       5.996  -0.499   2.178  1.00  0.00     0.087 C 
ATOM      4  O   UNL     1       3.983   0.607   2.491  1.00  0.00    -0.300 OA
ENDBRANCH   1   2
BRANCH   1   5
ATOM      5  C   UNL     1       5.419   1.729  -0.215  1.00  0.00     0.043 C 
BRANCH   5   6
ATOM      6  C   UNL     1       6.581   1.026  -0.786  1.00  0.00    -0.044 A 
ATOM      7  C   UNL     1       7.891   1.456  -0.543  1.00  0.00     0.008 A 
ATOM      8  C   UNL     1       6.386  -0.083  -1.578  1.00  0.00     0.054 A 
ATOM      9  C   UNL     1       8.942   0.756  -1.106  1.00  0.00     0.051 A 
ATOM     10  C   UNL     1       7.453  -0.788  -2.143  1.00  0.00     0.166 A 
ATOM     11  C   UNL     1       8.742  -0.364  -1.906  1.00  0.00     0.165 A 
ATOM     12  O   UNL     1       7.519  -1.902  -2.953  1.00  0.00    -0.454 OA
ATOM     13  O   UNL     1       9.581  -1.237  -2.580  1.00  0.00    -0.454 OA
ATOM     14  C   UNL     1       8.852  -2.280  -3.183  1.00  0.00     0.468 C 
ENDBRANCH   5   6
ENDBRANCH   1   5
TORSDOF 3
ENDMDL
MODEL 2
REMARK VINA RESULT:      -7.4      1.934      2.417
REMARK SMILES CC(=O)CCc1ccc2c(c1)OCO2
REMARK SMILES IDX 4 1 2 2 1 3 3 4 5 5 6 6 7 7 11 8 8 9 10 10 9 11 12 12 14 13
REMARK SMILES IDX 13 14
REMARK H PARENT
REMARK Flexibility Score: inf
ROOT
ATOM      1  C   UNL     1       5.784   1.340  -0.315  1.00  0.00     0.080 C 
ENDROOT
BRANCH   1   2
ATOM      2  C   UNL     1       5.152   1.263   1.032  1.00  0.00     0.130 C 
ATOM      3  C   UNL     1       5.393   0.112   1.943  1.00  0.00     0.087 C 
ATOM      4  O   UNL     1       4.413   2.149   1.429  1.00  0.00    -0.300 OA
ENDBRANCH   1   2
BRANCH   1   5
ATOM      5  C   UNL     1       7.272   1.062  -0.241  1.00  0.00     0.043 C 
BRANCH   5   6
ATOM      6  C   UNL     1       7.618  -0.229  -0.861  1.00  0.00    -0.044 A 
ATOM      7  C   UNL     1       7.643  -0.392  -2.251  1.00  0.00     0.008 A 
ATOM      8  C   UNL     1       7.928  -1.307  -0.063  1.00  0.00     0.054 A 
ATOM      9  C   UNL     1       7.976  -1.628  -2.775  1.00  0.00     0.051 A 
ATOM     10  C   UNL     1       8.265  -2.554  -0.598  1.00  0.00     0.166 A 
ATOM     11  C   UNL     1       8.289  -2.716  -1.966  1.00  0.00     0.165 A 
ATOM     12  O   UNL     1       8.606  -3.761  -0.026  1.00  0.00    -0.454 OA
ATOM     13  O   UNL     1       8.649  -4.032  -2.207  1.00  0.00    -0.454 OA
ATOM     14  C   UNL     1       8.948  -4.706  -1.008  1.00  0.00     0.468 C 
ENDBRANCH   5   6
ENDBRANCH   1   5
TORSDOF 3
ENDMDL
MODEL 3
REMARK VINA RESULT:      -7.2      2.056      2.615
REMARK SMILES CC(=O)CCc1ccc2c(c1)OCO2
REMARK SMILES IDX 4 1 2 2 1 3 3 4 5 5 6 6 7 7 11 8 8 9 10 10 9 11 12 12 14 13
REMARK SMILES IDX 13 14
REMARK H PARENT
REMARK Flexibility Score: inf
ROOT
ATOM      1  C   UNL     1       5.463  -0.022   2.028  1.00  0.00     0.080 C 
ENDROOT
BRANCH   1   2
ATOM      2  C   UNL     1       4.578   1.149   1.772  1.00  0.00     0.130 C 
ATOM      3  C   UNL     1       4.884   2.140   0.706  1.00  0.00     0.087 C 
ATOM      4  O   UNL     1       3.570   1.329   2.435  1.00  0.00    -0.300 OA
ENDBRANCH   1   2
BRANCH   1   5
ATOM      5  C   UNL     1       6.881   0.248   1.564  1.00  0.00     0.043 C 
BRANCH   5   6
ATOM      6  C   UNL     1       7.299  -0.693   0.510  1.00  0.00    -0.044 A 
ATOM      7  C   UNL     1       7.173  -0.376  -0.847  1.00  0.00     0.008 A 
ATOM      8  C   UNL     1       7.829  -1.915   0.857  1.00  0.00     0.054 A 
ATOM      9  C   UNL     1       7.584  -1.298  -1.793  1.00  0.00     0.051 A 
ATOM     10  C   UNL     1       8.243  -2.843  -0.103  1.00  0.00     0.166 A 
ATOM     11  C   UNL     1       8.119  -2.532  -1.439  1.00  0.00     0.165 A 
ATOM     12  O   UNL     1       8.793  -4.105  -0.014  1.00  0.00    -0.454 OA
ATOM     13  O   UNL     1       8.601  -3.620  -2.150  1.00  0.00    -0.454 OA
ATOM     14  C   UNL     1       9.121  -4.602  -1.286  1.00  0.00     0.468 C 
ENDBRANCH   5   6
ENDBRANCH   1   5
TORSDOF 3
ENDMDL
MODEL 4
REMARK VINA RESULT:      -7.1      1.254      1.470
REMARK SMILES CC(=O)CCc1ccc2c(c1)OCO2
REMARK SMILES IDX 4 1 2 2 1 3 3 4 5 5 6 6 7 7 11 8 8 9 10 10 9 11 12 12 14 13
REMARK SMILES IDX 13 14
REMARK H PARENT
REMARK Flexibility Score: inf
ROOT
ATOM      1  C   UNL     1       6.377   1.214   0.880  1.00  0.00     0.080 C 
ENDROOT
BRANCH   1   2
ATOM      2  C   UNL     1       5.684   0.406   1.922  1.00  0.00     0.130 C 
ATOM      3  C   UNL     1       6.305  -0.812   2.507  1.00  0.00     0.087 C 
ATOM      4  O   UNL     1       4.578   0.723   2.328  1.00  0.00    -0.300 OA
ENDBRANCH   1   2
BRANCH   1   5
ATOM      5  C   UNL     1       5.856   0.889  -0.506  1.00  0.00     0.043 C 
BRANCH   5   6
ATOM      6  C   UNL     1       6.814   0.074  -1.273  1.00  0.00    -0.044 A 
ATOM      7  C   UNL     1       7.510   0.599  -2.368  1.00  0.00     0.008 A 
ATOM      8  C   UNL     1       7.040  -1.234  -0.911  1.00  0.00     0.054 A 
ATOM      9  C   UNL     1       8.398  -0.213  -3.050  1.00  0.00     0.051 A 
ATOM     10  C   UNL     1       7.940  -2.051  -1.603  1.00  0.00     0.166 A 
ATOM     11  C   UNL     1       8.624  -1.536  -2.682  1.00  0.00     0.165 A 
ATOM     12  O   UNL     1       8.333  -3.363  -1.443  1.00  0.00    -0.454 OA
ATOM     13  O   UNL     1       9.432  -2.553  -3.166  1.00  0.00    -0.454 OA
ATOM     14  C   UNL     1       9.346  -3.700  -2.355  1.00  0.00     0.468 C 
ENDBRANCH   5   6
ENDBRANCH   1   5
TORSDOF 3
ENDMDL
MODEL 5
REMARK VINA RESULT:      -6.9      1.982      2.648
REMARK SMILES CC(=O)CCc1ccc2c(c1)OCO2
REMARK SMILES IDX 4 1 2 2 1 3 3 4 5 5 6 6 7 7 11 8 8 9 10 10 9 11 12 12 14 13
REMARK SMILES IDX 13 14
REMARK H PARENT
REMARK Flexibility Score: inf
ROOT
ATOM      1  C   UNL     1       6.818   0.644   0.886  1.00  0.00     0.080 C 
ENDROOT
BRANCH   1   2
ATOM      2  C   UNL     1       5.464   1.096   1.313  1.00  0.00     0.130 C 
ATOM      3  C   UNL     1       4.723   2.150   0.569  1.00  0.00     0.087 C 
ATOM      4  O   UNL     1       4.922   0.611   2.292  1.00  0.00    -0.300 OA
ENDBRANCH   1   2
BRANCH   1   5
ATOM      5  C   UNL     1       6.960   0.680  -0.623  1.00  0.00     0.043 C 
BRANCH   5   6
ATOM      6  C   UNL     1       7.528  -0.575  -1.148  1.00  0.00    -0.044 A 
ATOM      7  C   UNL     1       7.842  -0.727  -2.503  1.00  0.00     0.008 A 
ATOM      8  C   UNL     1       7.760  -1.629  -0.293  1.00  0.00     0.054 A 
ATOM      9  C   UNL     1       8.373  -1.927  -2.939  1.00  0.00     0.051 A 
ATOM     10  C   UNL     1       8.298  -2.840  -0.739  1.00  0.00     0.166 A 
ATOM     11  C   UNL     1       8.607  -2.990  -2.072  1.00  0.00     0.165 A 
ATOM     12  O   UNL     1       8.617  -4.019  -0.098  1.00  0.00    -0.454 OA
ATOM     13  O   UNL     1       9.115  -4.271  -2.224  1.00  0.00    -0.454 OA
ATOM     14  C   UNL     1       9.224  -4.925  -0.982  1.00  0.00     0.468 C 
ENDBRANCH   5   6
ENDBRANCH   1   5
TORSDOF 3
ENDMDL
