@<TRIPOS>MOLECULE
/home/cewinharhar/GITHUB/reincatalyze/data/processed/docking_pred/2023-May-31-1438_sub9_nm5_bs15_s42_ex16_mel10_mts1000_k50_ec05_g099_lra9e-4_lrc3e-3/f5d21a1fca5b46740ede221944c3c0743e15dd7f_ligand_9.pdbqt
 14 15 0 0 0
SMALL
GASTEIGER

@<TRIPOS>ATOM
      1  C          5.7690    1.3620   -0.2360 C.3     1  UNL1        0.0800
      2  C          5.1200    1.2710    1.1010 C.2     1  UNL1        0.1300
      3  C          5.3550    0.1140    2.0060 C.3     1  UNL1        0.0870
      4  O          4.3710    2.1500    1.4960 O.2     1  UNL1       -0.3000
      5  C          7.2580    1.0890   -0.1460 C.3     1  UNL1        0.0430
      6  C          7.6180   -0.1890   -0.7840 C.2     1  UNL1       -0.0440
      7  C          7.6340   -0.3350   -2.1760 C.2     1  UNL1        0.0080
      8  C          7.9520   -1.2720   -0.0020 C.2     1  UNL1        0.0540
      9  C          7.9820   -1.5590   -2.7190 C.2     1  UNL1        0.0510
     10  C          8.3030   -2.5070   -0.5560 C.2     1  UNL1        0.1660
     11  C          8.3180   -2.6510   -1.9250 C.2     1  UNL1        0.1650
     12  O          8.6680   -3.7150   -0.0020 O.2     1  UNL1       -0.4540
     13  O          8.6960   -3.9590   -2.1860 O.2     1  UNL1       -0.4540
     14  C          9.0160   -4.6420   -0.9980 C.3     1  UNL1        0.4680
@<TRIPOS>BOND
     1     9     7    1
     2     9    11    2
     3    13    11    1
     4    13    14    1
     5     7     6    2
     6    11    10    1
     7    14    12    1
     8     6     5    1
     9     6     8    1
    10    10     8    2
    11    10    12    1
    12     1     5    1
    13     1     2    1
    14     2     4    2
    15     2     3    1
