MODEL 1
REMARK VINA RESULT:      -7.7      0.000      0.000
REMARK SMILES CC(=O)CCc1ccc2c(c1)OCO2
REMARK SMILES IDX 4 1 2 2 1 3 3 4 5 5 6 6 7 7 11 8 8 9 10 10 9 11 12 12 14 13
REMARK SMILES IDX 13 14
REMARK H PARENT
REMARK Flexibility Score: inf
ROOT
ATOM      1  C   UNL     1       5.518   1.889   1.290  1.00  0.00     0.080 C 
ENDROOT
BRANCH   1   2
ATOM      2  C   UNL     1       5.076   0.667   2.016  1.00  0.00     0.130 C 
ATOM      3  C   UNL     1       5.963  -0.519   2.161  1.00  0.00     0.087 C 
ATOM      4  O   UNL     1       3.965   0.602   2.517  1.00  0.00    -0.300 OA
ENDBRANCH   1   2
BRANCH   1   5
ATOM      5  C   UNL     1       5.390   1.715  -0.211  1.00  0.00     0.043 C 
BRANCH   5   6
ATOM      6  C   UNL     1       6.557   1.018  -0.781  1.00  0.00    -0.044 A 
ATOM      7  C   UNL     1       7.864   1.453  -0.532  1.00  0.00     0.008 A 
ATOM      8  C   UNL     1       6.369  -0.089  -1.576  1.00  0.00     0.054 A 
ATOM      9  C   UNL     1       8.921   0.759  -1.094  1.00  0.00     0.051 A 
ATOM     10  C   UNL     1       7.441  -0.788  -2.141  1.00  0.00     0.166 A 
ATOM     11  C   UNL     1       8.727  -0.360  -1.898  1.00  0.00     0.165 A 
ATOM     12  O   UNL     1       7.514  -1.899  -2.954  1.00  0.00    -0.454 OA
ATOM     13  O   UNL     1       9.572  -1.226  -2.573  1.00  0.00    -0.454 OA
ATOM     14  C   UNL     1       8.849  -2.270  -3.181  1.00  0.00     0.468 C 
ENDBRANCH   5   6
ENDBRANCH   1   5
TORSDOF 3
ENDMDL
MODEL 2
REMARK VINA RESULT:      -7.4      1.935      2.387
REMARK SMILES CC(=O)CCc1ccc2c(c1)OCO2
REMARK SMILES IDX 4 1 2 2 1 3 3 4 5 5 6 6 7 7 11 8 8 9 10 10 9 11 12 12 14 13
REMARK SMILES IDX 13 14
REMARK H PARENT
REMARK Flexibility Score: inf
ROOT
ATOM      1  C   UNL     1       5.769   1.362  -0.236  1.00  0.00     0.080 C 
ENDROOT
BRANCH   1   2
ATOM      2  C   UNL     1       5.120   1.271   1.101  1.00  0.00     0.130 C 
ATOM      3  C   UNL     1       5.355   0.114   2.006  1.00  0.00     0.087 C 
ATOM      4  O   UNL     1       4.371   2.150   1.496  1.00  0.00    -0.300 OA
ENDBRANCH   1   2
BRANCH   1   5
ATOM      5  C   UNL     1       7.258   1.089  -0.146  1.00  0.00     0.043 C 
BRANCH   5   6
ATOM      6  C   UNL     1       7.618  -0.189  -0.784  1.00  0.00    -0.044 A 
ATOM      7  C   UNL     1       7.634  -0.335  -2.176  1.00  0.00     0.008 A 
ATOM      8  C   UNL     1       7.952  -1.272  -0.002  1.00  0.00     0.054 A 
ATOM      9  C   UNL     1       7.982  -1.559  -2.719  1.00  0.00     0.051 A 
ATOM     10  C   UNL     1       8.303  -2.507  -0.556  1.00  0.00     0.166 A 
ATOM     11  C   UNL     1       8.318  -2.651  -1.925  1.00  0.00     0.165 A 
ATOM     12  O   UNL     1       8.668  -3.715  -0.002  1.00  0.00    -0.454 OA
ATOM     13  O   UNL     1       8.696  -3.959  -2.186  1.00  0.00    -0.454 OA
ATOM     14  C   UNL     1       9.016  -4.642  -0.998  1.00  0.00     0.468 C 
ENDBRANCH   5   6
ENDBRANCH   1   5
TORSDOF 3
ENDMDL
MODEL 3
REMARK VINA RESULT:      -7.2      2.061      2.634
REMARK SMILES CC(=O)CCc1ccc2c(c1)OCO2
REMARK SMILES IDX 4 1 2 2 1 3 3 4 5 5 6 6 7 7 11 8 8 9 10 10 9 11 12 12 14 13
REMARK SMILES IDX 13 14
REMARK H PARENT
REMARK Flexibility Score: inf
ROOT
ATOM      1  C   UNL     1       5.396  -0.074   2.016  1.00  0.00     0.080 C 
ENDROOT
BRANCH   1   2
ATOM      2  C   UNL     1       4.566   1.138   1.770  1.00  0.00     0.130 C 
ATOM      3  C   UNL     1       4.919   2.125   0.715  1.00  0.00     0.087 C 
ATOM      4  O   UNL     1       3.565   1.356   2.433  1.00  0.00    -0.300 OA
ENDBRANCH   1   2
BRANCH   1   5
ATOM      5  C   UNL     1       6.843   0.161   1.628  1.00  0.00     0.043 C 
BRANCH   5   6
ATOM      6  C   UNL     1       7.277  -0.753   0.557  1.00  0.00    -0.044 A 
ATOM      7  C   UNL     1       7.160  -0.409  -0.794  1.00  0.00     0.008 A 
ATOM      8  C   UNL     1       7.815  -1.978   0.882  1.00  0.00     0.054 A 
ATOM      9  C   UNL     1       7.585  -1.307  -1.756  1.00  0.00     0.051 A 
ATOM     10  C   UNL     1       8.245  -2.882  -0.093  1.00  0.00     0.166 A 
ATOM     11  C   UNL     1       8.128  -2.544  -1.423  1.00  0.00     0.165 A 
ATOM     12  O   UNL     1       8.804  -4.141  -0.027  1.00  0.00    -0.454 OA
ATOM     13  O   UNL     1       8.624  -3.613  -2.153  1.00  0.00    -0.454 OA
ATOM     14  C   UNL     1       9.147  -4.609  -1.306  1.00  0.00     0.468 C 
ENDBRANCH   5   6
ENDBRANCH   1   5
TORSDOF 3
ENDMDL
MODEL 4
REMARK VINA RESULT:      -7.1      1.238      1.432
REMARK SMILES CC(=O)CCc1ccc2c(c1)OCO2
REMARK SMILES IDX 4 1 2 2 1 3 3 4 5 5 6 6 7 7 11 8 8 9 10 10 9 11 12 12 14 13
REMARK SMILES IDX 13 14
REMARK H PARENT
REMARK Flexibility Score: inf
ROOT
ATOM      1  C   UNL     1       6.342   1.306   0.878  1.00  0.00     0.080 C 
ENDROOT
BRANCH   1   2
ATOM      2  C   UNL     1       5.700   0.434   1.902  1.00  0.00     0.130 C 
ATOM      3  C   UNL     1       6.406  -0.741   2.480  1.00  0.00     0.087 C 
ATOM      4  O   UNL     1       4.568   0.661   2.297  1.00  0.00    -0.300 OA
ENDBRANCH   1   2
BRANCH   1   5
ATOM      5  C   UNL     1       5.829   0.990  -0.513  1.00  0.00     0.043 C 
BRANCH   5   6
ATOM      6  C   UNL     1       6.782   0.161  -1.271  1.00  0.00    -0.044 A 
ATOM      7  C   UNL     1       7.488   0.671  -2.367  1.00  0.00     0.008 A 
ATOM      8  C   UNL     1       6.993  -1.148  -0.901  1.00  0.00     0.054 A 
ATOM      9  C   UNL     1       8.371  -0.154  -3.040  1.00  0.00     0.051 A 
ATOM     10  C   UNL     1       7.887  -1.978  -1.585  1.00  0.00     0.166 A 
ATOM     11  C   UNL     1       8.581  -1.477  -2.663  1.00  0.00     0.165 A 
ATOM     12  O   UNL     1       8.266  -3.293  -1.415  1.00  0.00    -0.454 OA
ATOM     13  O   UNL     1       9.381  -2.505  -3.138  1.00  0.00    -0.454 OA
ATOM     14  C   UNL     1       9.279  -3.646  -2.321  1.00  0.00     0.468 C 
ENDBRANCH   5   6
ENDBRANCH   1   5
TORSDOF 3
ENDMDL
MODEL 5
REMARK VINA RESULT:      -7.1      1.981      2.528
REMARK SMILES CC(=O)CCc1ccc2c(c1)OCO2
REMARK SMILES IDX 4 1 2 2 1 3 3 4 5 5 6 6 7 7 11 8 8 9 10 10 9 11 12 12 14 13
REMARK SMILES IDX 13 14
REMARK H PARENT
REMARK Flexibility Score: inf
ROOT
ATOM      1  C   UNL     1       6.832   0.767   1.345  1.00  0.00     0.080 C 
ENDROOT
BRANCH   1   2
ATOM      2  C   UNL     1       5.390   1.103   1.502  1.00  0.00     0.130 C 
ATOM      3  C   UNL     1       4.738   2.150   0.670  1.00  0.00     0.087 C 
ATOM      4  O   UNL     1       4.697   0.525   2.323  1.00  0.00    -0.300 OA
ENDBRANCH   1   2
BRANCH   1   5
ATOM      5  C   UNL     1       7.297   0.985  -0.081  1.00  0.00     0.043 C 
BRANCH   5   6
ATOM      6  C   UNL     1       7.659  -0.284  -0.738  1.00  0.00    -0.044 A 
ATOM      7  C   UNL     1       7.721  -0.396  -2.132  1.00  0.00     0.008 A 
ATOM      8  C   UNL     1       7.948  -1.390   0.028  1.00  0.00     0.054 A 
ATOM      9  C   UNL     1       8.068  -1.612  -2.692  1.00  0.00     0.051 A 
ATOM     10  C   UNL     1       8.299  -2.617  -0.543  1.00  0.00     0.166 A 
ATOM     11  C   UNL     1       8.359  -2.729  -1.915  1.00  0.00     0.165 A 
ATOM     12  O   UNL     1       8.625  -3.845  -0.007  1.00  0.00    -0.454 OA
ATOM     13  O   UNL     1       8.726  -4.036  -2.194  1.00  0.00    -0.454 OA
ATOM     14  C   UNL     1       8.993  -4.753  -1.013  1.00  0.00     0.468 C 
ENDBRANCH   5   6
ENDBRANCH   1   5
TORSDOF 3
ENDMDL
