@<TRIPOS>MOLECULE
/home/cewinharhar/GITHUB/reincatalyze/data/processed/docking_pred/2023-May-31-1438_sub9_nm5_bs15_s42_ex16_mel10_mts1000_k50_ec05_g099_lra9e-4_lrc3e-3/f5d21a1fca5b46740ede221944c3c0743e15dd7f_ligand_9.pdbqt
 14 15 0 0 0
SMALL
GASTEIGER

@<TRIPOS>ATOM
      1  C          6.8320    0.7670    1.3450 C.3     1  UNL1        0.0800
      2  C          5.3900    1.1030    1.5020 C.2     1  UNL1        0.1300
      3  C          4.7380    2.1500    0.6700 C.3     1  UNL1        0.0870
      4  O          4.6970    0.5250    2.3230 O.2     1  UNL1       -0.3000
      5  C          7.2970    0.9850   -0.0810 C.3     1  UNL1        0.0430
      6  C          7.6590   -0.2840   -0.7380 C.2     1  UNL1       -0.0440
      7  C          7.7210   -0.3960   -2.1320 C.2     1  UNL1        0.0080
      8  C          7.9480   -1.3900    0.0280 C.2     1  UNL1        0.0540
      9  C          8.0680   -1.6120   -2.6920 C.2     1  UNL1        0.0510
     10  C          8.2990   -2.6170   -0.5430 C.2     1  UNL1        0.1660
     11  C          8.3590   -2.7290   -1.9150 C.2     1  UNL1        0.1650
     12  O          8.6250   -3.8450   -0.0070 O.2     1  UNL1       -0.4540
     13  O          8.7260   -4.0360   -2.1940 O.2     1  UNL1       -0.4540
     14  C          8.9930   -4.7530   -1.0130 C.3     1  UNL1        0.4680
@<TRIPOS>BOND
     1     9     7    1
     2     9    11    2
     3    13    11    1
     4    13    14    1
     5     7     6    2
     6    11    10    1
     7    14    12    1
     8     6     5    1
     9     6     8    1
    10    10    12    1
    11    10     8    2
    12     5     1    1
    13     3     2    1
    14     1     2    1
    15     2     4    2
