@<TRIPOS>MOLECULE
/home/cewinharhar/GITHUB/reincatalyze/data/processed/docking_pred/2023-May-31-1438_sub9_nm5_bs15_s42_ex16_mel10_mts1000_k50_ec05_g099_lra9e-4_lrc3e-3/f5d21a1fca5b46740ede221944c3c0743e15dd7f_ligand_9.pdbqt
 14 15 0 0 0
SMALL
GASTEIGER

@<TRIPOS>ATOM
      1  C          6.3420    1.3060    0.8780 C.3     1  UNL1        0.0800
      2  C          5.7000    0.4340    1.9020 C.2     1  UNL1        0.1300
      3  C          6.4060   -0.7410    2.4800 C.3     1  UNL1        0.0870
      4  O          4.5680    0.6610    2.2970 O.2     1  UNL1       -0.3000
      5  C          5.8290    0.9900   -0.5130 C.3     1  UNL1        0.0430
      6  C          6.7820    0.1610   -1.2710 C.2     1  UNL1       -0.0440
      7  C          7.4880    0.6710   -2.3670 C.2     1  UNL1        0.0080
      8  C          6.9930   -1.1480   -0.9010 C.2     1  UNL1        0.0540
      9  C          8.3710   -0.1540   -3.0400 C.2     1  UNL1        0.0510
     10  C          7.8870   -1.9780   -1.5850 C.2     1  UNL1        0.1660
     11  C          8.5810   -1.4770   -2.6630 C.2     1  UNL1        0.1650
     12  O          8.2660   -3.2930   -1.4150 O.2     1  UNL1       -0.4540
     13  O          9.3810   -2.5050   -3.1380 O.2     1  UNL1       -0.4540
     14  C          9.2790   -3.6460   -2.3210 C.3     1  UNL1        0.4680
@<TRIPOS>BOND
     1    13    11    1
     2    13    14    1
     3     9    11    2
     4     9     7    1
     5    11    10    1
     6     7     6    2
     7    14    12    1
     8    10    12    1
     9    10     8    2
    10     6     8    1
    11     6     5    1
    12     5     1    1
    13     1     2    1
    14     2     4    2
    15     2     3    1
