@<TRIPOS>MOLECULE
/home/cewinharhar/GITHUB/reincatalyze/data/processed/docking_pred/2023-May-31-1438_sub9_nm5_bs15_s42_ex16_mel10_mts1000_k50_ec05_g099_lra9e-4_lrc3e-3/f5fb071253116e33fb6a6057d91faa3d89d34546_ligand_9.pdbqt
 14 15 0 0 0
SMALL
GASTEIGER

@<TRIPOS>ATOM
      1  C          5.9600    1.4820    0.9150 C.3     1  UNL1        0.0800
      2  C          5.4280    0.4910    1.8920 C.2     1  UNL1        0.1300
      3  C          6.1950   -0.7280    2.2640 C.3     1  UNL1        0.0870
      4  O          4.3390    0.6530    2.4190 O.2     1  UNL1       -0.3000
      5  C          5.8530    0.9650   -0.5060 C.3     1  UNL1        0.0430
      6  C          7.0950    0.3010   -0.9410 C.2     1  UNL1       -0.0440
      7  C          8.3430    0.9200   -0.8080 C.2     1  UNL1        0.0080
      8  C          7.0370   -0.9590   -1.4910 C.2     1  UNL1        0.0540
      9  C          9.4740    0.2480   -1.2330 C.2     1  UNL1        0.0510
     10  C          8.1840   -1.6350   -1.9190 C.2     1  UNL1        0.1660
     11  C          9.4120   -1.0260   -1.7890 C.2     1  UNL1        0.1650
     12  O          8.3870   -2.8740   -2.4890 O.2     1  UNL1       -0.4540
     13  O         10.3540   -1.9130   -2.2870 O.2     1  UNL1       -0.4540
     14  C          9.7570   -3.1330   -2.6570 C.3     1  UNL1        0.4680
@<TRIPOS>BOND
     1    14    12    1
     2    14    13    1
     3    12    10    1
     4    13    11    1
     5    10    11    2
     6    10     8    1
     7    11     9    1
     8     8     6    2
     9     9     7    2
    10     6     7    1
    11     6     5    1
    12     5     1    1
    13     1     2    1
    14     2     3    1
    15     2     4    2
