@<TRIPOS>MOLECULE
/home/cewinharhar/GITHUB/reincatalyze/data/processed/docking_pred/2023-May-31-1438_sub9_nm5_bs15_s42_ex16_mel10_mts1000_k50_ec05_g099_lra9e-4_lrc3e-3/f5fb071253116e33fb6a6057d91faa3d89d34546_ligand_9.pdbqt
 14 15 0 0 0
SMALL
GASTEIGER

@<TRIPOS>ATOM
      1  C          5.8730    0.7200    0.1740 C.3     1  UNL1        0.0800
      2  C          5.5960    0.2340    1.5550 C.2     1  UNL1        0.1300
      3  C          6.2670   -0.9730    2.1070 C.3     1  UNL1        0.0870
      4  O          4.8030    0.8160    2.2760 O.2     1  UNL1       -0.3000
      5  C          7.3500    1.0020   -0.0240 C.3     1  UNL1        0.0430
      6  C          7.9810    0.0110   -0.9140 C.2     1  UNL1       -0.0440
      7  C          7.5380   -0.1820   -2.2270 C.2     1  UNL1        0.0080
      8  C          9.0330   -0.7470   -0.4530 C.2     1  UNL1        0.0540
      9  C          8.1690   -1.1260   -3.0170 C.2     1  UNL1        0.0510
     10  C          9.6690   -1.7000   -1.2550 C.2     1  UNL1        0.1660
     11  C          9.2330   -1.8910   -2.5480 C.2     1  UNL1        0.1650
     12  O         10.7180   -2.5660   -1.0330 O.2     1  UNL1       -0.4540
     13  O         10.0330   -2.8790   -3.0990 O.2     1  UNL1       -0.4540
     14  C         11.0460   -3.2710   -2.2030 C.3     1  UNL1        0.4680
@<TRIPOS>BOND
     1    13    11    1
     2    13    14    1
     3     9    11    2
     4     9     7    1
     5    11    10    1
     6     7     6    2
     7    14    12    1
     8    10    12    1
     9    10     8    2
    10     6     8    1
    11     6     5    1
    12     5     1    1
    13     1     2    1
    14     2     3    1
    15     2     4    2
