@<TRIPOS>MOLECULE
/home/cewinharhar/GITHUB/reincatalyze/data/processed/docking_pred/2023-May-31-1438_sub9_nm5_bs15_s42_ex16_mel10_mts1000_k50_ec05_g099_lra9e-4_lrc3e-3/f6b0a6d65051a5b20d9eb350202399160ef0f891_ligand_9.pdbqt
 14 15 0 0 0
SMALL
GASTEIGER

@<TRIPOS>ATOM
      1  C          6.8450    0.8280    1.2670 C.3     1  UNL1        0.0800
      2  C          5.4080    1.1790    1.4400 C.2     1  UNL1        0.1300
      3  C          4.7250    2.1440    0.5360 C.3     1  UNL1        0.0870
      4  O          4.7440    0.6830    2.3360 O.2     1  UNL1       -0.3000
      5  C          7.2850    1.0040   -0.1730 C.3     1  UNL1        0.0430
      6  C          7.6240   -0.2840   -0.8030 C.2     1  UNL1       -0.0440
      7  C          7.6290   -0.4420   -2.1930 C.2     1  UNL1        0.0080
      8  C          7.9480   -1.3650   -0.0130 C.2     1  UNL1        0.0540
      9  C          7.9560   -1.6750   -2.7270 C.2     1  UNL1        0.0510
     10  C          8.2790   -2.6090   -0.5590 C.2     1  UNL1        0.1660
     11  C          8.2830   -2.7650   -1.9270 C.2     1  UNL1        0.1650
     12  O          8.6320   -3.8170    0.0040 O.2     1  UNL1       -0.4540
     13  O          8.6420   -4.0800   -2.1790 O.2     1  UNL1       -0.4540
     14  C          8.9610   -4.7580   -0.9860 C.3     1  UNL1        0.4680
@<TRIPOS>BOND
     1     9     7    1
     2     9    11    2
     3     7     6    2
     4    13    11    1
     5    13    14    1
     6    11    10    1
     7    14    12    1
     8     6     5    1
     9     6     8    1
    10    10     8    2
    11    10    12    1
    12     5     1    1
    13     3     2    1
    14     1     2    1
    15     2     4    2
