MODEL 1
REMARK VINA RESULT:      -7.6      0.000      0.000
REMARK SMILES CC(=O)CCc1ccc2c(c1)OCO2
REMARK SMILES IDX 4 1 2 2 1 3 3 4 5 5 6 6 7 7 11 8 8 9 10 10 9 11 12 12 14 13
REMARK SMILES IDX 13 14
REMARK H PARENT
REMARK Flexibility Score: inf
ROOT
ATOM      1  C   UNL     1       5.548   1.901   1.286  1.00  0.00     0.080 C 
ENDROOT
BRANCH   1   2
ATOM      2  C   UNL     1       5.103   0.678   2.011  1.00  0.00     0.130 C 
ATOM      3  C   UNL     1       5.996  -0.499   2.178  1.00  0.00     0.087 C 
ATOM      4  O   UNL     1       3.983   0.607   2.491  1.00  0.00    -0.300 OA
ENDBRANCH   1   2
BRANCH   1   5
ATOM      5  C   UNL     1       5.419   1.729  -0.215  1.00  0.00     0.043 C 
BRANCH   5   6
ATOM      6  C   UNL     1       6.581   1.026  -0.786  1.00  0.00    -0.044 A 
ATOM      7  C   UNL     1       7.891   1.456  -0.543  1.00  0.00     0.008 A 
ATOM      8  C   UNL     1       6.386  -0.083  -1.578  1.00  0.00     0.054 A 
ATOM      9  C   UNL     1       8.942   0.756  -1.106  1.00  0.00     0.051 A 
ATOM     10  C   UNL     1       7.453  -0.788  -2.143  1.00  0.00     0.166 A 
ATOM     11  C   UNL     1       8.742  -0.364  -1.906  1.00  0.00     0.165 A 
ATOM     12  O   UNL     1       7.519  -1.902  -2.953  1.00  0.00    -0.454 OA
ATOM     13  O   UNL     1       9.581  -1.237  -2.580  1.00  0.00    -0.454 OA
ATOM     14  C   UNL     1       8.852  -2.280  -3.183  1.00  0.00     0.468 C 
ENDBRANCH   5   6
ENDBRANCH   1   5
TORSDOF 3
ENDMDL
MODEL 2
REMARK VINA RESULT:      -7.4      1.793      2.209
REMARK SMILES CC(=O)CCc1ccc2c(c1)OCO2
REMARK SMILES IDX 4 1 2 2 1 3 3 4 5 5 6 6 7 7 11 8 8 9 10 10 9 11 12 12 14 13
REMARK SMILES IDX 13 14
REMARK H PARENT
REMARK Flexibility Score: inf
ROOT
ATOM      1  C   UNL     1       5.611   1.496  -0.154  1.00  0.00     0.080 C 
ENDROOT
BRANCH   1   2
ATOM      2  C   UNL     1       4.971   1.253   1.169  1.00  0.00     0.130 C 
ATOM      3  C   UNL     1       5.379   0.115   2.036  1.00  0.00     0.087 C 
ATOM      4  O   UNL     1       4.087   1.986   1.582  1.00  0.00    -0.300 OA
ENDBRANCH   1   2
BRANCH   1   5
ATOM      5  C   UNL     1       7.105   1.247  -0.096  1.00  0.00     0.043 C 
BRANCH   5   6
ATOM      6  C   UNL     1       7.477  -0.005  -0.779  1.00  0.00    -0.044 A 
ATOM      7  C   UNL     1       7.466  -0.110  -2.175  1.00  0.00     0.008 A 
ATOM      8  C   UNL     1       7.847  -1.103  -0.036  1.00  0.00     0.054 A 
ATOM      9  C   UNL     1       7.825  -1.311  -2.760  1.00  0.00     0.051 A 
ATOM     10  C   UNL     1       8.210  -2.315  -0.633  1.00  0.00     0.166 A 
ATOM     11  C   UNL     1       8.199  -2.419  -2.006  1.00  0.00     0.165 A 
ATOM     12  O   UNL     1       8.610  -3.531  -0.122  1.00  0.00    -0.454 OA
ATOM     13  O   UNL     1       8.597  -3.711  -2.313  1.00  0.00    -0.454 OA
ATOM     14  C   UNL     1       8.954  -4.422  -1.152  1.00  0.00     0.468 C 
ENDBRANCH   5   6
ENDBRANCH   1   5
TORSDOF 3
ENDMDL
MODEL 3
REMARK VINA RESULT:      -7.2      2.056      2.615
REMARK SMILES CC(=O)CCc1ccc2c(c1)OCO2
REMARK SMILES IDX 4 1 2 2 1 3 3 4 5 5 6 6 7 7 11 8 8 9 10 10 9 11 12 12 14 13
REMARK SMILES IDX 13 14
REMARK H PARENT
REMARK Flexibility Score: inf
ROOT
ATOM      1  C   UNL     1       5.463  -0.022   2.028  1.00  0.00     0.080 C 
ENDROOT
BRANCH   1   2
ATOM      2  C   UNL     1       4.578   1.149   1.772  1.00  0.00     0.130 C 
ATOM      3  C   UNL     1       4.884   2.140   0.706  1.00  0.00     0.087 C 
ATOM      4  O   UNL     1       3.570   1.329   2.435  1.00  0.00    -0.300 OA
ENDBRANCH   1   2
BRANCH   1   5
ATOM      5  C   UNL     1       6.881   0.248   1.564  1.00  0.00     0.043 C 
BRANCH   5   6
ATOM      6  C   UNL     1       7.299  -0.693   0.510  1.00  0.00    -0.044 A 
ATOM      7  C   UNL     1       7.173  -0.376  -0.847  1.00  0.00     0.008 A 
ATOM      8  C   UNL     1       7.829  -1.915   0.857  1.00  0.00     0.054 A 
ATOM      9  C   UNL     1       7.584  -1.298  -1.793  1.00  0.00     0.051 A 
ATOM     10  C   UNL     1       8.243  -2.843  -0.103  1.00  0.00     0.166 A 
ATOM     11  C   UNL     1       8.119  -2.532  -1.439  1.00  0.00     0.165 A 
ATOM     12  O   UNL     1       8.793  -4.105  -0.014  1.00  0.00    -0.454 OA
ATOM     13  O   UNL     1       8.601  -3.620  -2.150  1.00  0.00    -0.454 OA
ATOM     14  C   UNL     1       9.121  -4.602  -1.286  1.00  0.00     0.468 C 
ENDBRANCH   5   6
ENDBRANCH   1   5
TORSDOF 3
ENDMDL
MODEL 4
REMARK VINA RESULT:      -7.1      1.254      1.470
REMARK SMILES CC(=O)CCc1ccc2c(c1)OCO2
REMARK SMILES IDX 4 1 2 2 1 3 3 4 5 5 6 6 7 7 11 8 8 9 10 10 9 11 12 12 14 13
REMARK SMILES IDX 13 14
REMARK H PARENT
REMARK Flexibility Score: inf
ROOT
ATOM      1  C   UNL     1       6.377   1.214   0.880  1.00  0.00     0.080 C 
ENDROOT
BRANCH   1   2
ATOM      2  C   UNL     1       5.684   0.406   1.922  1.00  0.00     0.130 C 
ATOM      3  C   UNL     1       6.305  -0.812   2.507  1.00  0.00     0.087 C 
ATOM      4  O   UNL     1       4.578   0.723   2.328  1.00  0.00    -0.300 OA
ENDBRANCH   1   2
BRANCH   1   5
ATOM      5  C   UNL     1       5.856   0.889  -0.506  1.00  0.00     0.043 C 
BRANCH   5   6
ATOM      6  C   UNL     1       6.814   0.074  -1.273  1.00  0.00    -0.044 A 
ATOM      7  C   UNL     1       7.510   0.599  -2.368  1.00  0.00     0.008 A 
ATOM      8  C   UNL     1       7.040  -1.234  -0.911  1.00  0.00     0.054 A 
ATOM      9  C   UNL     1       8.398  -0.213  -3.050  1.00  0.00     0.051 A 
ATOM     10  C   UNL     1       7.940  -2.051  -1.603  1.00  0.00     0.166 A 
ATOM     11  C   UNL     1       8.624  -1.536  -2.682  1.00  0.00     0.165 A 
ATOM     12  O   UNL     1       8.333  -3.363  -1.443  1.00  0.00    -0.454 OA
ATOM     13  O   UNL     1       9.432  -2.553  -3.166  1.00  0.00    -0.454 OA
ATOM     14  C   UNL     1       9.346  -3.700  -2.355  1.00  0.00     0.468 C 
ENDBRANCH   5   6
ENDBRANCH   1   5
TORSDOF 3
ENDMDL
MODEL 5
REMARK VINA RESULT:      -7.1      1.974      2.548
REMARK SMILES CC(=O)CCc1ccc2c(c1)OCO2
REMARK SMILES IDX 4 1 2 2 1 3 3 4 5 5 6 6 7 7 11 8 8 9 10 10 9 11 12 12 14 13
REMARK SMILES IDX 13 14
REMARK H PARENT
REMARK Flexibility Score: inf
ROOT
ATOM      1  C   UNL     1       6.845   0.828   1.267  1.00  0.00     0.080 C 
ENDROOT
BRANCH   1   2
ATOM      2  C   UNL     1       5.408   1.179   1.440  1.00  0.00     0.130 C 
ATOM      3  C   UNL     1       4.725   2.144   0.536  1.00  0.00     0.087 C 
ATOM      4  O   UNL     1       4.744   0.683   2.336  1.00  0.00    -0.300 OA
ENDBRANCH   1   2
BRANCH   1   5
ATOM      5  C   UNL     1       7.285   1.004  -0.173  1.00  0.00     0.043 C 
BRANCH   5   6
ATOM      6  C   UNL     1       7.624  -0.284  -0.803  1.00  0.00    -0.044 A 
ATOM      7  C   UNL     1       7.629  -0.442  -2.193  1.00  0.00     0.008 A 
ATOM      8  C   UNL     1       7.948  -1.365  -0.013  1.00  0.00     0.054 A 
ATOM      9  C   UNL     1       7.956  -1.675  -2.727  1.00  0.00     0.051 A 
ATOM     10  C   UNL     1       8.279  -2.609  -0.559  1.00  0.00     0.166 A 
ATOM     11  C   UNL     1       8.283  -2.765  -1.927  1.00  0.00     0.165 A 
ATOM     12  O   UNL     1       8.632  -3.817   0.004  1.00  0.00    -0.454 OA
ATOM     13  O   UNL     1       8.642  -4.080  -2.179  1.00  0.00    -0.454 OA
ATOM     14  C   UNL     1       8.961  -4.758  -0.986  1.00  0.00     0.468 C 
ENDBRANCH   5   6
ENDBRANCH   1   5
TORSDOF 3
ENDMDL
