@<TRIPOS>MOLECULE
/home/cewinharhar/GITHUB/reincatalyze/data/processed/docking_pred/2023-May-31-1438_sub9_nm5_bs15_s42_ex16_mel10_mts1000_k50_ec05_g099_lra9e-4_lrc3e-3/f6e3ea477952fa895fac814ddb6280364cb1460b_ligand_9.pdbqt
 14 15 0 0 0
SMALL
GASTEIGER

@<TRIPOS>ATOM
      1  C          5.4370   -0.0390    2.0160 C.3     1  UNL1        0.0800
      2  C          4.5770    1.1500    1.7610 C.2     1  UNL1        0.1300
      3  C          4.8960    2.1300    0.6880 C.3     1  UNL1        0.0870
      4  O          3.5780    1.3560    2.4310 O.2     1  UNL1       -0.3000
      5  C          6.8670    0.2140    1.5820 C.3     1  UNL1        0.0430
      6  C          7.2880   -0.7150    0.5170 C.2     1  UNL1       -0.0440
      7  C          7.1560   -0.3850   -0.8370 C.2     1  UNL1        0.0080
      8  C          7.8260   -1.9370    0.8510 C.2     1  UNL1        0.0540
      9  C          7.5680   -1.2970   -1.7920 C.2     1  UNL1        0.0510
     10  C          8.2420   -2.8540   -0.1190 C.2     1  UNL1        0.1660
     11  C          8.1120   -2.5310   -1.4510 C.2     1  UNL1        0.1650
     12  O          8.7980   -4.1130   -0.0430 O.2     1  UNL1       -0.4540
     13  O          8.5970   -3.6100   -2.1740 O.2     1  UNL1       -0.4540
     14  C          9.1260   -4.5970   -1.3210 C.3     1  UNL1        0.4680
@<TRIPOS>BOND
     1    13    11    1
     2    13    14    1
     3     9    11    2
     4     9     7    1
     5    11    10    1
     6    14    12    1
     7     7     6    2
     8    10    12    1
     9    10     8    2
    10     6     8    1
    11     6     5    1
    12     3     2    1
    13     5     1    1
    14     2     1    1
    15     2     4    2
