MODEL 1
REMARK VINA RESULT:      -7.6      0.000      0.000
REMARK SMILES CC(=O)CCc1ccc2c(c1)OCO2
REMARK SMILES IDX 4 1 2 2 1 3 3 4 5 5 6 6 7 7 11 8 8 9 10 10 9 11 12 12 14 13
REMARK SMILES IDX 13 14
REMARK H PARENT
REMARK Flexibility Score: inf
ROOT
ATOM      1  C   UNL     1       5.539   1.935   1.261  1.00  0.00     0.080 C 
ENDROOT
BRANCH   1   2
ATOM      2  C   UNL     1       5.111   0.718   2.006  1.00  0.00     0.130 C 
ATOM      3  C   UNL     1       6.022  -0.443   2.195  1.00  0.00     0.087 C 
ATOM      4  O   UNL     1       3.992   0.639   2.487  1.00  0.00    -0.300 OA
ENDBRANCH   1   2
BRANCH   1   5
ATOM      5  C   UNL     1       5.409   1.737  -0.237  1.00  0.00     0.043 C 
BRANCH   5   6
ATOM      6  C   UNL     1       6.575   1.032  -0.798  1.00  0.00    -0.044 A 
ATOM      7  C   UNL     1       7.883   1.460  -0.543  1.00  0.00     0.008 A 
ATOM      8  C   UNL     1       6.385  -0.076  -1.592  1.00  0.00     0.054 A 
ATOM      9  C   UNL     1       8.939   0.759  -1.096  1.00  0.00     0.051 A 
ATOM     10  C   UNL     1       7.456  -0.783  -2.148  1.00  0.00     0.166 A 
ATOM     11  C   UNL     1       8.743  -0.361  -1.899  1.00  0.00     0.165 A 
ATOM     12  O   UNL     1       7.528  -1.896  -2.958  1.00  0.00    -0.454 OA
ATOM     13  O   UNL     1       9.587  -1.235  -2.566  1.00  0.00    -0.454 OA
ATOM     14  C   UNL     1       8.862  -2.276  -3.176  1.00  0.00     0.468 C 
ENDBRANCH   5   6
ENDBRANCH   1   5
TORSDOF 3
ENDMDL
MODEL 2
REMARK VINA RESULT:      -7.4      1.940      2.408
REMARK SMILES CC(=O)CCc1ccc2c(c1)OCO2
REMARK SMILES IDX 4 1 2 2 1 3 3 4 5 5 6 6 7 7 11 8 8 9 10 10 9 11 12 12 14 13
REMARK SMILES IDX 13 14
REMARK H PARENT
REMARK Flexibility Score: inf
ROOT
ATOM      1  C   UNL     1       5.745   1.301  -0.286  1.00  0.00     0.080 C 
ENDROOT
BRANCH   1   2
ATOM      2  C   UNL     1       5.169   1.240   1.086  1.00  0.00     0.130 C 
ATOM      3  C   UNL     1       5.407   0.077   1.983  1.00  0.00     0.087 C 
ATOM      4  O   UNL     1       4.479   2.150   1.517  1.00  0.00    -0.300 OA
ENDBRANCH   1   2
BRANCH   1   5
ATOM      5  C   UNL     1       7.245   1.077  -0.264  1.00  0.00     0.043 C 
BRANCH   5   6
ATOM      6  C   UNL     1       7.613  -0.216  -0.868  1.00  0.00    -0.044 A 
ATOM      7  C   UNL     1       7.649  -0.393  -2.256  1.00  0.00     0.008 A 
ATOM      8  C   UNL     1       7.935  -1.280  -0.057  1.00  0.00     0.054 A 
ATOM      9  C   UNL     1       8.004  -1.628  -2.765  1.00  0.00     0.051 A 
ATOM     10  C   UNL     1       8.293  -2.528  -0.577  1.00  0.00     0.166 A 
ATOM     11  C   UNL     1       8.327  -2.703  -1.943  1.00  0.00     0.165 A 
ATOM     12  O   UNL     1       8.649  -3.724   0.009  1.00  0.00    -0.454 OA
ATOM     13  O   UNL     1       8.709  -4.016  -2.169  1.00  0.00    -0.454 OA
ATOM     14  C   UNL     1       9.010  -4.673  -0.961  1.00  0.00     0.468 C 
ENDBRANCH   5   6
ENDBRANCH   1   5
TORSDOF 3
ENDMDL
MODEL 3
REMARK VINA RESULT:      -7.2      2.048      2.619
REMARK SMILES CC(=O)CCc1ccc2c(c1)OCO2
REMARK SMILES IDX 4 1 2 2 1 3 3 4 5 5 6 6 7 7 11 8 8 9 10 10 9 11 12 12 14 13
REMARK SMILES IDX 13 14
REMARK H PARENT
REMARK Flexibility Score: inf
ROOT
ATOM      1  C   UNL     1       5.437  -0.039   2.016  1.00  0.00     0.080 C 
ENDROOT
BRANCH   1   2
ATOM      2  C   UNL     1       4.577   1.150   1.761  1.00  0.00     0.130 C 
ATOM      3  C   UNL     1       4.896   2.130   0.688  1.00  0.00     0.087 C 
ATOM      4  O   UNL     1       3.578   1.356   2.431  1.00  0.00    -0.300 OA
ENDBRANCH   1   2
BRANCH   1   5
ATOM      5  C   UNL     1       6.867   0.214   1.582  1.00  0.00     0.043 C 
BRANCH   5   6
ATOM      6  C   UNL     1       7.288  -0.715   0.517  1.00  0.00    -0.044 A 
ATOM      7  C   UNL     1       7.156  -0.385  -0.837  1.00  0.00     0.008 A 
ATOM      8  C   UNL     1       7.826  -1.937   0.851  1.00  0.00     0.054 A 
ATOM      9  C   UNL     1       7.568  -1.297  -1.792  1.00  0.00     0.051 A 
ATOM     10  C   UNL     1       8.242  -2.854  -0.119  1.00  0.00     0.166 A 
ATOM     11  C   UNL     1       8.112  -2.531  -1.451  1.00  0.00     0.165 A 
ATOM     12  O   UNL     1       8.798  -4.113  -0.043  1.00  0.00    -0.454 OA
ATOM     13  O   UNL     1       8.597  -3.610  -2.174  1.00  0.00    -0.454 OA
ATOM     14  C   UNL     1       9.126  -4.597  -1.321  1.00  0.00     0.468 C 
ENDBRANCH   5   6
ENDBRANCH   1   5
TORSDOF 3
ENDMDL
MODEL 4
REMARK VINA RESULT:      -7.1      1.249      1.452
REMARK SMILES CC(=O)CCc1ccc2c(c1)OCO2
REMARK SMILES IDX 4 1 2 2 1 3 3 4 5 5 6 6 7 7 11 8 8 9 10 10 9 11 12 12 14 13
REMARK SMILES IDX 13 14
REMARK H PARENT
REMARK Flexibility Score: inf
ROOT
ATOM      1  C   UNL     1       6.376   1.183   0.959  1.00  0.00     0.080 C 
ENDROOT
BRANCH   1   2
ATOM      2  C   UNL     1       5.644   0.347   1.951  1.00  0.00     0.130 C 
ATOM      3  C   UNL     1       6.240  -0.892   2.519  1.00  0.00     0.087 C 
ATOM      4  O   UNL     1       4.526   0.657   2.329  1.00  0.00    -0.300 OA
ENDBRANCH   1   2
BRANCH   1   5
ATOM      5  C   UNL     1       5.874   0.932  -0.449  1.00  0.00     0.043 C 
BRANCH   5   6
ATOM      6  C   UNL     1       6.820   0.112  -1.228  1.00  0.00    -0.044 A 
ATOM      7  C   UNL     1       7.507   0.634  -2.329  1.00  0.00     0.008 A 
ATOM      8  C   UNL     1       7.041  -1.199  -0.871  1.00  0.00     0.054 A 
ATOM      9  C   UNL     1       8.383  -0.182  -3.022  1.00  0.00     0.051 A 
ATOM     10  C   UNL     1       7.927  -2.020  -1.574  1.00  0.00     0.166 A 
ATOM     11  C   UNL     1       8.604  -1.507  -2.659  1.00  0.00     0.165 A 
ATOM     12  O   UNL     1       8.313  -3.334  -1.420  1.00  0.00    -0.454 OA
ATOM     13  O   UNL     1       9.400  -2.528  -3.153  1.00  0.00    -0.454 OA
ATOM     14  C   UNL     1       9.315  -3.677  -2.344  1.00  0.00     0.468 C 
ENDBRANCH   5   6
ENDBRANCH   1   5
TORSDOF 3
ENDMDL
MODEL 5
REMARK VINA RESULT:      -6.8      1.188      5.171
REMARK SMILES CC(=O)CCc1ccc2c(c1)OCO2
REMARK SMILES IDX 4 1 2 2 1 3 3 4 5 5 6 6 7 7 11 8 8 9 10 10 9 11 12 12 14 13
REMARK SMILES IDX 13 14
REMARK H PARENT
REMARK Flexibility Score: inf
ROOT
ATOM      1  C   UNL     1       8.302   0.193  -2.680  1.00  0.00     0.080 C 
ENDROOT
BRANCH   1   2
ATOM      2  C   UNL     1       8.035  -1.270  -2.766  1.00  0.00     0.130 C 
ATOM      3  C   UNL     1       9.123  -2.247  -3.038  1.00  0.00     0.087 C 
ATOM      4  O   UNL     1       6.908  -1.711  -2.615  1.00  0.00    -0.300 OA
ENDBRANCH   1   2
BRANCH   1   5
ATOM      5  C   UNL     1       8.831   0.576  -1.312  1.00  0.00     0.043 C 
BRANCH   5   6
ATOM      6  C   UNL     1       7.804   0.424  -0.266  1.00  0.00    -0.044 A 
ATOM      7  C   UNL     1       7.913  -0.550   0.733  1.00  0.00     0.008 A 
ATOM      8  C   UNL     1       6.708   1.256  -0.261  1.00  0.00     0.054 A 
ATOM      9  C   UNL     1       6.919  -0.645   1.689  1.00  0.00     0.051 A 
ATOM     10  C   UNL     1       5.705   1.156   0.708  1.00  0.00     0.166 A 
ATOM     11  C   UNL     1       5.811   0.198   1.691  1.00  0.00     0.165 A 
ATOM     12  O   UNL     1       4.535   1.853   0.926  1.00  0.00    -0.454 OA
ATOM     13  O   UNL     1       4.694   0.328   2.500  1.00  0.00    -0.454 OA
ATOM     14  C   UNL     1       3.904   1.424   2.105  1.00  0.00     0.468 C 
ENDBRANCH   5   6
ENDBRANCH   1   5
TORSDOF 3
ENDMDL
