MODEL 1
REMARK VINA RESULT:      -7.6      0.000      0.000
REMARK SMILES CC(=O)CCc1ccc2c(c1)OCO2
REMARK SMILES IDX 4 1 2 2 1 3 3 4 5 5 6 6 7 7 11 8 8 9 10 10 9 11 12 12 14 13
REMARK SMILES IDX 13 14
REMARK H PARENT
REMARK Flexibility Score: inf
ROOT
ATOM      1  C   UNL     1       5.562   1.906   1.281  1.00  0.00     0.080 C 
ENDROOT
BRANCH   1   2
ATOM      2  C   UNL     1       5.109   0.692   2.016  1.00  0.00     0.130 C 
ATOM      3  C   UNL     1       5.994  -0.490   2.190  1.00  0.00     0.087 C 
ATOM      4  O   UNL     1       3.990   0.633   2.499  1.00  0.00    -0.300 OA
ENDBRANCH   1   2
BRANCH   1   5
ATOM      5  C   UNL     1       5.426   1.725  -0.218  1.00  0.00     0.043 C 
BRANCH   5   6
ATOM      6  C   UNL     1       6.588   1.023  -0.791  1.00  0.00    -0.044 A 
ATOM      7  C   UNL     1       7.897   1.459  -0.556  1.00  0.00     0.008 A 
ATOM      8  C   UNL     1       6.393  -0.091  -1.575  1.00  0.00     0.054 A 
ATOM      9  C   UNL     1       8.949   0.759  -1.119  1.00  0.00     0.051 A 
ATOM     10  C   UNL     1       7.460  -0.795  -2.142  1.00  0.00     0.166 A 
ATOM     11  C   UNL     1       8.748  -0.366  -1.912  1.00  0.00     0.165 A 
ATOM     12  O   UNL     1       7.526  -1.914  -2.946  1.00  0.00    -0.454 OA
ATOM     13  O   UNL     1       9.587  -1.240  -2.586  1.00  0.00    -0.454 OA
ATOM     14  C   UNL     1       8.859  -2.288  -3.179  1.00  0.00     0.468 C 
ENDBRANCH   5   6
ENDBRANCH   1   5
TORSDOF 3
ENDMDL
MODEL 2
REMARK VINA RESULT:      -7.4      1.932      2.392
REMARK SMILES CC(=O)CCc1ccc2c(c1)OCO2
REMARK SMILES IDX 4 1 2 2 1 3 3 4 5 5 6 6 7 7 11 8 8 9 10 10 9 11 12 12 14 13
REMARK SMILES IDX 13 14
REMARK H PARENT
REMARK Flexibility Score: inf
ROOT
ATOM      1  C   UNL     1       5.775   1.370  -0.279  1.00  0.00     0.080 C 
ENDROOT
BRANCH   1   2
ATOM      2  C   UNL     1       5.177   1.266   1.082  1.00  0.00     0.130 C 
ATOM      3  C   UNL     1       5.428   0.091   1.958  1.00  0.00     0.087 C 
ATOM      4  O   UNL     1       4.457   2.150   1.518  1.00  0.00    -0.300 OA
ENDBRANCH   1   2
BRANCH   1   5
ATOM      5  C   UNL     1       7.270   1.120  -0.243  1.00  0.00     0.043 C 
BRANCH   5   6
ATOM      6  C   UNL     1       7.621  -0.179  -0.844  1.00  0.00    -0.044 A 
ATOM      7  C   UNL     1       7.650  -0.361  -2.231  1.00  0.00     0.008 A 
ATOM      8  C   UNL     1       7.933  -1.245  -0.031  1.00  0.00     0.054 A 
ATOM      9  C   UNL     1       7.988  -1.602  -2.738  1.00  0.00     0.051 A 
ATOM     10  C   UNL     1       8.275  -2.498  -0.548  1.00  0.00     0.166 A 
ATOM     11  C   UNL     1       8.302  -2.678  -1.913  1.00  0.00     0.165 A 
ATOM     12  O   UNL     1       8.620  -3.696   0.041  1.00  0.00    -0.454 OA
ATOM     13  O   UNL     1       8.668  -3.996  -2.136  1.00  0.00    -0.454 OA
ATOM     14  C   UNL     1       8.966  -4.652  -0.927  1.00  0.00     0.468 C 
ENDBRANCH   5   6
ENDBRANCH   1   5
TORSDOF 3
ENDMDL
MODEL 3
REMARK VINA RESULT:      -7.2      2.048      2.625
REMARK SMILES CC(=O)CCc1ccc2c(c1)OCO2
REMARK SMILES IDX 4 1 2 2 1 3 3 4 5 5 6 6 7 7 11 8 8 9 10 10 9 11 12 12 14 13
REMARK SMILES IDX 13 14
REMARK H PARENT
REMARK Flexibility Score: inf
ROOT
ATOM      1  C   UNL     1       5.398  -0.068   2.011  1.00  0.00     0.080 C 
ENDROOT
BRANCH   1   2
ATOM      2  C   UNL     1       4.568   1.145   1.768  1.00  0.00     0.130 C 
ATOM      3  C   UNL     1       4.916   2.131   0.710  1.00  0.00     0.087 C 
ATOM      4  O   UNL     1       3.571   1.365   2.436  1.00  0.00    -0.300 OA
ENDBRANCH   1   2
BRANCH   1   5
ATOM      5  C   UNL     1       6.843   0.167   1.617  1.00  0.00     0.043 C 
BRANCH   5   6
ATOM      6  C   UNL     1       7.273  -0.749   0.545  1.00  0.00    -0.044 A 
ATOM      7  C   UNL     1       7.147  -0.406  -0.806  1.00  0.00     0.008 A 
ATOM      8  C   UNL     1       7.814  -1.973   0.869  1.00  0.00     0.054 A 
ATOM      9  C   UNL     1       7.568  -1.306  -1.769  1.00  0.00     0.051 A 
ATOM     10  C   UNL     1       8.239  -2.878  -0.108  1.00  0.00     0.166 A 
ATOM     11  C   UNL     1       8.115  -2.542  -1.437  1.00  0.00     0.165 A 
ATOM     12  O   UNL     1       8.800  -4.136  -0.043  1.00  0.00    -0.454 OA
ATOM     13  O   UNL     1       8.608  -3.611  -2.169  1.00  0.00    -0.454 OA
ATOM     14  C   UNL     1       9.136  -4.605  -1.323  1.00  0.00     0.468 C 
ENDBRANCH   5   6
ENDBRANCH   1   5
TORSDOF 3
ENDMDL
MODEL 4
REMARK VINA RESULT:      -7.1      1.239      1.440
REMARK SMILES CC(=O)CCc1ccc2c(c1)OCO2
REMARK SMILES IDX 4 1 2 2 1 3 3 4 5 5 6 6 7 7 11 8 8 9 10 10 9 11 12 12 14 13
REMARK SMILES IDX 13 14
REMARK H PARENT
REMARK Flexibility Score: inf
ROOT
ATOM      1  C   UNL     1       6.361   1.238   0.904  1.00  0.00     0.080 C 
ENDROOT
BRANCH   1   2
ATOM      2  C   UNL     1       5.661   0.414   1.929  1.00  0.00     0.130 C 
ATOM      3  C   UNL     1       6.289  -0.799   2.518  1.00  0.00     0.087 C 
ATOM      4  O   UNL     1       4.543   0.714   2.317  1.00  0.00    -0.300 OA
ENDBRANCH   1   2
BRANCH   1   5
ATOM      5  C   UNL     1       5.850   0.933  -0.490  1.00  0.00     0.043 C 
BRANCH   5   6
ATOM      6  C   UNL     1       6.806   0.112  -1.255  1.00  0.00    -0.044 A 
ATOM      7  C   UNL     1       7.502   0.629  -2.353  1.00  0.00     0.008 A 
ATOM      8  C   UNL     1       7.028  -1.196  -0.887  1.00  0.00     0.054 A 
ATOM      9  C   UNL     1       8.387  -0.188  -3.032  1.00  0.00     0.051 A 
ATOM     10  C   UNL     1       7.925  -2.018  -1.576  1.00  0.00     0.166 A 
ATOM     11  C   UNL     1       8.609  -1.510  -2.658  1.00  0.00     0.165 A 
ATOM     12  O   UNL     1       8.314  -3.330  -1.411  1.00  0.00    -0.454 OA
ATOM     13  O   UNL     1       9.414  -2.531  -3.138  1.00  0.00    -0.454 OA
ATOM     14  C   UNL     1       9.326  -3.675  -2.322  1.00  0.00     0.468 C 
ENDBRANCH   5   6
ENDBRANCH   1   5
TORSDOF 3
ENDMDL
MODEL 5
REMARK VINA RESULT:      -7.1      1.974      2.516
REMARK SMILES CC(=O)CCc1ccc2c(c1)OCO2
REMARK SMILES IDX 4 1 2 2 1 3 3 4 5 5 6 6 7 7 11 8 8 9 10 10 9 11 12 12 14 13
REMARK SMILES IDX 13 14
REMARK H PARENT
REMARK Flexibility Score: inf
ROOT
ATOM      1  C   UNL     1       6.800   0.802   1.431  1.00  0.00     0.080 C 
ENDROOT
BRANCH   1   2
ATOM      2  C   UNL     1       5.371   1.220   1.454  1.00  0.00     0.130 C 
ATOM      3  C   UNL     1       4.812   2.147   0.434  1.00  0.00     0.087 C 
ATOM      4  O   UNL     1       4.612   0.810   2.317  1.00  0.00    -0.300 OA
ENDBRANCH   1   2
BRANCH   1   5
ATOM      5  C   UNL     1       7.421   1.040   0.069  1.00  0.00     0.043 C 
BRANCH   5   6
ATOM      6  C   UNL     1       7.730  -0.226  -0.619  1.00  0.00    -0.044 A 
ATOM      7  C   UNL     1       7.723  -0.323  -2.016  1.00  0.00     0.008 A 
ATOM      8  C   UNL     1       8.038  -1.347   0.119  1.00  0.00     0.054 A 
ATOM      9  C   UNL     1       8.022  -1.537  -2.606  1.00  0.00     0.051 A 
ATOM     10  C   UNL     1       8.340  -2.572  -0.483  1.00  0.00     0.166 A 
ATOM     11  C   UNL     1       8.332  -2.668  -1.857  1.00  0.00     0.165 A 
ATOM     12  O   UNL     1       8.672  -3.811   0.023  1.00  0.00    -0.454 OA
ATOM     13  O   UNL     1       8.663  -3.977  -2.169  1.00  0.00    -0.454 OA
ATOM     14  C   UNL     1       8.975  -4.713  -1.010  1.00  0.00     0.468 C 
ENDBRANCH   5   6
ENDBRANCH   1   5
TORSDOF 3
ENDMDL
