@<TRIPOS>MOLECULE
/home/cewinharhar/GITHUB/reincatalyze/data/processed/docking_pred/2023-May-31-1438_sub9_nm5_bs15_s42_ex16_mel10_mts1000_k50_ec05_g099_lra9e-4_lrc3e-3/f74925e0f2dbd9eb14447f51d5c862455f02ecd6_ligand_9.pdbqt
 14 15 0 0 0
SMALL
GASTEIGER

@<TRIPOS>ATOM
      1  C          6.3610    1.2380    0.9040 C.3     1  UNL1        0.0800
      2  C          5.6610    0.4140    1.9290 C.2     1  UNL1        0.1300
      3  C          6.2890   -0.7990    2.5180 C.3     1  UNL1        0.0870
      4  O          4.5430    0.7140    2.3170 O.2     1  UNL1       -0.3000
      5  C          5.8500    0.9330   -0.4900 C.3     1  UNL1        0.0430
      6  C          6.8060    0.1120   -1.2550 C.2     1  UNL1       -0.0440
      7  C          7.5020    0.6290   -2.3530 C.2     1  UNL1        0.0080
      8  C          7.0280   -1.1960   -0.8870 C.2     1  UNL1        0.0540
      9  C          8.3870   -0.1880   -3.0320 C.2     1  UNL1        0.0510
     10  C          7.9250   -2.0180   -1.5760 C.2     1  UNL1        0.1660
     11  C          8.6090   -1.5100   -2.6580 C.2     1  UNL1        0.1650
     12  O          8.3140   -3.3300   -1.4110 O.2     1  UNL1       -0.4540
     13  O          9.4140   -2.5310   -3.1380 O.2     1  UNL1       -0.4540
     14  C          9.3260   -3.6750   -2.3220 C.3     1  UNL1        0.4680
@<TRIPOS>BOND
     1    13    11    1
     2    13    14    1
     3     9    11    2
     4     9     7    1
     5    11    10    1
     6     7     6    2
     7    14    12    1
     8    10    12    1
     9    10     8    2
    10     6     8    1
    11     6     5    1
    12     5     1    1
    13     1     2    1
    14     2     4    2
    15     2     3    1
