@<TRIPOS>MOLECULE
/home/cewinharhar/GITHUB/reincatalyze/data/processed/docking_pred/2023-May-31-1438_sub9_nm5_bs15_s42_ex16_mel10_mts1000_k50_ec05_g099_lra9e-4_lrc3e-3/f74925e0f2dbd9eb14447f51d5c862455f02ecd6_ligand_9.pdbqt
 14 15 0 0 0
SMALL
GASTEIGER

@<TRIPOS>ATOM
      1  C          5.3980   -0.0680    2.0110 C.3     1  UNL1        0.0800
      2  C          4.5680    1.1450    1.7680 C.2     1  UNL1        0.1300
      3  C          4.9160    2.1310    0.7100 C.3     1  UNL1        0.0870
      4  O          3.5710    1.3650    2.4360 O.2     1  UNL1       -0.3000
      5  C          6.8430    0.1670    1.6170 C.3     1  UNL1        0.0430
      6  C          7.2730   -0.7490    0.5450 C.2     1  UNL1       -0.0440
      7  C          7.1470   -0.4060   -0.8060 C.2     1  UNL1        0.0080
      8  C          7.8140   -1.9730    0.8690 C.2     1  UNL1        0.0540
      9  C          7.5680   -1.3060   -1.7690 C.2     1  UNL1        0.0510
     10  C          8.2390   -2.8780   -0.1080 C.2     1  UNL1        0.1660
     11  C          8.1150   -2.5420   -1.4370 C.2     1  UNL1        0.1650
     12  O          8.8000   -4.1360   -0.0430 O.2     1  UNL1       -0.4540
     13  O          8.6080   -3.6110   -2.1690 O.2     1  UNL1       -0.4540
     14  C          9.1360   -4.6050   -1.3230 C.3     1  UNL1        0.4680
@<TRIPOS>BOND
     1    13    11    1
     2    13    14    1
     3     9    11    2
     4     9     7    1
     5    11    10    1
     6    14    12    1
     7     7     6    2
     8    10    12    1
     9    10     8    2
    10     6     8    1
    11     6     5    1
    12     3     2    1
    13     5     1    1
    14     2     1    1
    15     2     4    2
