@<TRIPOS>MOLECULE
/home/cewinharhar/GITHUB/reincatalyze/data/processed/docking_pred/2023-May-31-1438_sub9_nm5_bs15_s42_ex16_mel10_mts1000_k50_ec05_g099_lra9e-4_lrc3e-3/f74925e0f2dbd9eb14447f51d5c862455f02ecd6_ligand_9.pdbqt
 14 15 0 0 0
SMALL
GASTEIGER

@<TRIPOS>ATOM
      1  C          6.8000    0.8020    1.4310 C.3     1  UNL1        0.0800
      2  C          5.3710    1.2200    1.4540 C.2     1  UNL1        0.1300
      3  C          4.8120    2.1470    0.4340 C.3     1  UNL1        0.0870
      4  O          4.6120    0.8100    2.3170 O.2     1  UNL1       -0.3000
      5  C          7.4210    1.0400    0.0690 C.3     1  UNL1        0.0430
      6  C          7.7300   -0.2260   -0.6190 C.2     1  UNL1       -0.0440
      7  C          7.7230   -0.3230   -2.0160 C.2     1  UNL1        0.0080
      8  C          8.0380   -1.3470    0.1190 C.2     1  UNL1        0.0540
      9  C          8.0220   -1.5370   -2.6060 C.2     1  UNL1        0.0510
     10  C          8.3400   -2.5720   -0.4830 C.2     1  UNL1        0.1660
     11  C          8.3320   -2.6680   -1.8570 C.2     1  UNL1        0.1650
     12  O          8.6720   -3.8110    0.0230 O.2     1  UNL1       -0.4540
     13  O          8.6630   -3.9770   -2.1690 O.2     1  UNL1       -0.4540
     14  C          8.9750   -4.7130   -1.0100 C.3     1  UNL1        0.4680
@<TRIPOS>BOND
     1     9     7    1
     2     9    11    2
     3    13    11    1
     4    13    14    1
     5     7     6    2
     6    11    10    1
     7    14    12    1
     8     6     5    1
     9     6     8    1
    10    10    12    1
    11    10     8    2
    12     5     1    1
    13     3     2    1
    14     1     2    1
    15     2     4    2
