@<TRIPOS>MOLECULE
/home/cewinharhar/GITHUB/reincatalyze/data/processed/docking_pred/2023-May-31-1438_sub9_nm5_bs15_s42_ex16_mel10_mts1000_k50_ec05_g099_lra9e-4_lrc3e-3/faf685cb0c2e1ff185f0c147bdf23d27aa2a460b_ligand_9.pdbqt
 14 15 0 0 0
SMALL
GASTEIGER

@<TRIPOS>ATOM
      1  C          8.0660   -1.7520   -2.3110 C.3     1  UNL1        0.0800
      2  C          8.7630   -0.4390   -2.3950 C.2     1  UNL1        0.1300
      3  C          8.2500    0.6640   -3.2510 C.3     1  UNL1        0.0870
      4  O          9.7840   -0.2300   -1.7600 O.2     1  UNL1       -0.3000
      5  C          8.1950   -2.3560   -0.9270 C.3     1  UNL1        0.0430
      6  C          7.3420   -1.6620    0.0540 C.2     1  UNL1       -0.0440
      7  C          7.2450   -2.0990    1.3810 C.2     1  UNL1        0.0080
      8  C          6.6200   -0.5560   -0.3320 C.2     1  UNL1        0.0540
      9  C          6.4290   -1.4070    2.2570 C.2     1  UNL1        0.0510
     10  C          5.7960    0.1400    0.5580 C.2     1  UNL1        0.1660
     11  C          5.7000   -0.2890    1.8630 C.2     1  UNL1        0.1650
     12  O          4.9890    1.2500    0.4200 O.2     1  UNL1       -0.4540
     13  O          4.8280    0.5750    2.5060 O.2     1  UNL1       -0.4540
     14  C          4.4250    1.6190    1.6510 C.3     1  UNL1        0.4680
@<TRIPOS>BOND
     1     3     2    1
     2     2     1    1
     3     2     4    2
     4     1     5    1
     5     5     6    1
     6     8     6    2
     7     8    10    1
     8     6     7    1
     9    12    10    1
    10    12    14    1
    11    10    11    2
    12     7     9    2
    13    14    13    1
    14    11     9    1
    15    11    13    1
