MODEL 1
REMARK VINA RESULT:      -6.6      0.000      0.000
REMARK SMILES CC(=O)CCc1ccc2c(c1)OCO2
REMARK SMILES IDX 4 1 2 2 1 3 3 4 5 5 6 6 7 7 11 8 8 9 10 10 9 11 12 12 14 13
REMARK SMILES IDX 13 14
REMARK H PARENT
REMARK Flexibility Score: inf
ROOT
ATOM      1  C   UNL     1       5.437  -0.238   2.169  1.00  0.00     0.080 C 
ENDROOT
BRANCH   1   2
ATOM      2  C   UNL     1       4.480   0.881   1.943  1.00  0.00     0.130 C 
ATOM      3  C   UNL     1       4.670   1.859   0.839  1.00  0.00     0.087 C 
ATOM      4  O   UNL     1       3.506   1.028   2.663  1.00  0.00    -0.300 OA
ENDBRANCH   1   2
BRANCH   1   5
ATOM      5  C   UNL     1       6.820   0.107   1.654  1.00  0.00     0.043 C 
BRANCH   5   6
ATOM      6  C   UNL     1       7.249  -0.811   0.583  1.00  0.00    -0.044 A 
ATOM      7  C   UNL     1       7.073  -0.493  -0.768  1.00  0.00     0.008 A 
ATOM      8  C   UNL     1       7.839  -2.011   0.909  1.00  0.00     0.054 A 
ATOM      9  C   UNL     1       7.496  -1.394  -1.730  1.00  0.00     0.051 A 
ATOM     10  C   UNL     1       8.266  -2.917  -0.066  1.00  0.00     0.166 A 
ATOM     11  C   UNL     1       8.092  -2.606  -1.396  1.00  0.00     0.165 A 
ATOM     12  O   UNL     1       8.869  -4.155   0.001  1.00  0.00    -0.454 OA
ATOM     13  O   UNL     1       8.600  -3.670  -2.126  1.00  0.00    -0.454 OA
ATOM     14  C   UNL     1       9.184  -4.632  -1.282  1.00  0.00     0.468 C 
ENDBRANCH   5   6
ENDBRANCH   1   5
TORSDOF 3
ENDMDL
MODEL 2
REMARK VINA RESULT:      -5.9      1.047      1.980
REMARK SMILES CC(=O)CCc1ccc2c(c1)OCO2
REMARK SMILES IDX 4 1 2 2 1 3 3 4 5 5 6 6 7 7 11 8 8 9 10 10 9 11 12 12 14 13
REMARK SMILES IDX 13 14
REMARK H PARENT
REMARK Flexibility Score: inf
ROOT
ATOM      1  C   UNL     1       5.261  -0.216   2.289  1.00  0.00     0.080 C 
ENDROOT
BRANCH   1   2
ATOM      2  C   UNL     1       4.364   0.934   1.987  1.00  0.00     0.130 C 
ATOM      3  C   UNL     1       4.650   1.874   0.871  1.00  0.00     0.087 C 
ATOM      4  O   UNL     1       3.363   1.140   2.653  1.00  0.00    -0.300 OA
ENDBRANCH   1   2
BRANCH   1   5
ATOM      5  C   UNL     1       6.707   0.117   1.982  1.00  0.00     0.043 C 
BRANCH   5   6
ATOM      6  C   UNL     1       7.258  -0.756   0.931  1.00  0.00    -0.044 A 
ATOM      7  C   UNL     1       7.605  -2.087   1.190  1.00  0.00     0.008 A 
ATOM      8  C   UNL     1       7.439  -0.262  -0.341  1.00  0.00     0.054 A 
ATOM      9  C   UNL     1       8.117  -2.859   0.163  1.00  0.00     0.051 A 
ATOM     10  C   UNL     1       7.956  -1.047  -1.376  1.00  0.00     0.166 A 
ATOM     11  C   UNL     1       8.298  -2.356  -1.121  1.00  0.00     0.165 A 
ATOM     12  O   UNL     1       8.226  -0.792  -2.704  1.00  0.00    -0.454 OA
ATOM     13  O   UNL     1       8.776  -2.884  -2.311  1.00  0.00    -0.454 OA
ATOM     14  C   UNL     1       8.663  -1.954  -3.361  1.00  0.00     0.468 C 
ENDBRANCH   5   6
ENDBRANCH   1   5
TORSDOF 3
ENDMDL
MODEL 3
REMARK VINA RESULT:      -5.8      1.855      5.417
REMARK SMILES CC(=O)CCc1ccc2c(c1)OCO2
REMARK SMILES IDX 4 1 2 2 1 3 3 4 5 5 6 6 7 7 11 8 8 9 10 10 9 11 12 12 14 13
REMARK SMILES IDX 13 14
REMARK H PARENT
REMARK Flexibility Score: inf
ROOT
ATOM      1  C   UNL     1       8.066  -1.752  -2.311  1.00  0.00     0.080 C 
ENDROOT
BRANCH   1   2
ATOM      2  C   UNL     1       8.763  -0.439  -2.395  1.00  0.00     0.130 C 
ATOM      3  C   UNL     1       8.250   0.664  -3.251  1.00  0.00     0.087 C 
ATOM      4  O   UNL     1       9.784  -0.230  -1.760  1.00  0.00    -0.300 OA
ENDBRANCH   1   2
BRANCH   1   5
ATOM      5  C   UNL     1       8.195  -2.356  -0.927  1.00  0.00     0.043 C 
BRANCH   5   6
ATOM      6  C   UNL     1       7.342  -1.662   0.054  1.00  0.00    -0.044 A 
ATOM      7  C   UNL     1       7.245  -2.099   1.381  1.00  0.00     0.008 A 
ATOM      8  C   UNL     1       6.620  -0.556  -0.332  1.00  0.00     0.054 A 
ATOM      9  C   UNL     1       6.429  -1.407   2.257  1.00  0.00     0.051 A 
ATOM     10  C   UNL     1       5.796   0.140   0.558  1.00  0.00     0.166 A 
ATOM     11  C   UNL     1       5.700  -0.289   1.863  1.00  0.00     0.165 A 
ATOM     12  O   UNL     1       4.989   1.250   0.420  1.00  0.00    -0.454 OA
ATOM     13  O   UNL     1       4.828   0.575   2.506  1.00  0.00    -0.454 OA
ATOM     14  C   UNL     1       4.425   1.619   1.651  1.00  0.00     0.468 C 
ENDBRANCH   5   6
ENDBRANCH   1   5
TORSDOF 3
ENDMDL
MODEL 4
REMARK VINA RESULT:      -5.7      1.394      6.126
REMARK SMILES CC(=O)CCc1ccc2c(c1)OCO2
REMARK SMILES IDX 4 1 2 2 1 3 3 4 5 5 6 6 7 7 11 8 8 9 10 10 9 11 12 12 14 13
REMARK SMILES IDX 13 14
REMARK H PARENT
REMARK Flexibility Score: inf
ROOT
ATOM      1  C   UNL     1       8.704  -4.032  -0.500  1.00  0.00     0.080 C 
ENDROOT
BRANCH   1   2
ATOM      2  C   UNL     1       9.296  -4.903  -1.554  1.00  0.00     0.130 C 
ATOM      3  C   UNL     1       8.968  -6.350  -1.645  1.00  0.00     0.087 C 
ATOM      4  O   UNL     1      10.075  -4.449  -2.377  1.00  0.00    -0.300 OA
ENDBRANCH   1   2
BRANCH   1   5
ATOM      5  C   UNL     1       8.309  -2.680  -1.062  1.00  0.00     0.043 C 
BRANCH   5   6
ATOM      6  C   UNL     1       7.502  -1.905  -0.103  1.00  0.00    -0.044 A 
ATOM      7  C   UNL     1       7.470  -2.228   1.258  1.00  0.00     0.008 A 
ATOM      8  C   UNL     1       6.759  -0.834  -0.546  1.00  0.00     0.054 A 
ATOM      9  C   UNL     1       6.695  -1.464   2.111  1.00  0.00     0.051 A 
ATOM     10  C   UNL     1       5.977  -0.064   0.321  1.00  0.00     0.166 A 
ATOM     11  C   UNL     1       5.944  -0.382   1.660  1.00  0.00     0.165 A 
ATOM     12  O   UNL     1       5.162   1.031   0.128  1.00  0.00    -0.454 OA
ATOM     13  O   UNL     1       5.102   0.535   2.269  1.00  0.00    -0.454 OA
ATOM     14  C   UNL     1       4.655   1.503   1.351  1.00  0.00     0.468 C 
ENDBRANCH   5   6
ENDBRANCH   1   5
TORSDOF 3
ENDMDL
MODEL 5
REMARK VINA RESULT:      -5.7      1.836      2.133
REMARK SMILES CC(=O)CCc1ccc2c(c1)OCO2
REMARK SMILES IDX 4 1 2 2 1 3 3 4 5 5 6 6 7 7 11 8 8 9 10 10 9 11 12 12 14 13
REMARK SMILES IDX 13 14
REMARK H PARENT
REMARK Flexibility Score: inf
ROOT
ATOM      1  C   UNL     1       5.618   0.223   2.532  1.00  0.00     0.080 C 
ENDROOT
BRANCH   1   2
ATOM      2  C   UNL     1       4.503   1.059   2.007  1.00  0.00     0.130 C 
ATOM      3  C   UNL     1       4.638   1.839   0.748  1.00  0.00     0.087 C 
ATOM      4  O   UNL     1       3.439   1.128   2.600  1.00  0.00    -0.300 OA
ENDBRANCH   1   2
BRANCH   1   5
ATOM      5  C   UNL     1       5.750  -1.071   1.754  1.00  0.00     0.043 C 
BRANCH   5   6
ATOM      6  C   UNL     1       6.774  -0.973   0.698  1.00  0.00    -0.044 A 
ATOM      7  C   UNL     1       8.005  -0.348   0.928  1.00  0.00     0.008 A 
ATOM      8  C   UNL     1       6.524  -1.505  -0.546  1.00  0.00     0.054 A 
ATOM      9  C   UNL     1       8.928  -0.286  -0.101  1.00  0.00     0.051 A 
ATOM     10  C   UNL     1       7.461  -1.441  -1.582  1.00  0.00     0.166 A 
ATOM     11  C   UNL     1       8.672  -0.826  -1.358  1.00  0.00     0.165 A 
ATOM     12  O   UNL     1       7.451  -1.887  -2.887  1.00  0.00    -0.454 OA
ATOM     13  O   UNL     1       9.389  -0.908  -2.541  1.00  0.00    -0.454 OA
ATOM     14  C   UNL     1       8.688  -1.653  -3.509  1.00  0.00     0.468 C 
ENDBRANCH   5   6
ENDBRANCH   1   5
TORSDOF 3
ENDMDL
