@<TRIPOS>MOLECULE
/home/cewinharhar/GITHUB/reincatalyze/data/processed/docking_pred/2023-May-31-1438_sub9_nm5_bs15_s42_ex16_mel10_mts1000_k50_ec05_g099_lra9e-4_lrc3e-3/fc1d4194c005f01296b9c57c803e441f6dc40ccd_ligand_9.pdbqt
 14 15 0 0 0
SMALL
GASTEIGER

@<TRIPOS>ATOM
      1  C          6.3410    1.2520    0.9070 C.3     1  UNL1        0.0800
      2  C          5.6420    0.4200    1.9260 C.2     1  UNL1        0.1300
      3  C          6.2780   -0.7880    2.5170 C.3     1  UNL1        0.0870
      4  O          4.5200    0.7090    2.3070 O.2     1  UNL1       -0.3000
      5  C          5.8380    0.9480   -0.4910 C.3     1  UNL1        0.0430
      6  C          6.7950    0.1230   -1.2490 C.2     1  UNL1       -0.0440
      7  C          7.4960    0.6360   -2.3470 C.2     1  UNL1        0.0080
      8  C          7.0150   -1.1830   -0.8760 C.2     1  UNL1        0.0540
      9  C          8.3830   -0.1850   -3.0200 C.2     1  UNL1        0.0510
     10  C          7.9130   -2.0090   -1.5600 C.2     1  UNL1        0.1660
     11  C          8.6020   -1.5050   -2.6410 C.2     1  UNL1        0.1650
     12  O          8.3000   -3.3210   -1.3880 O.2     1  UNL1       -0.4540
     13  O          9.4080   -2.5290   -3.1150 O.2     1  UNL1       -0.4540
     14  C          9.3150   -3.6700   -2.2950 C.3     1  UNL1        0.4680
@<TRIPOS>BOND
     1    13    11    1
     2    13    14    1
     3     9    11    2
     4     9     7    1
     5    11    10    1
     6     7     6    2
     7    14    12    1
     8    10    12    1
     9    10     8    2
    10     6     8    1
    11     6     5    1
    12     5     1    1
    13     1     2    1
    14     2     4    2
    15     2     3    1
