@<TRIPOS>MOLECULE
/home/cewinharhar/GITHUB/reincatalyze/data/processed/docking_pred/2023-May-31-1438_sub9_nm5_bs15_s42_ex16_mel10_mts1000_k50_ec05_g099_lra9e-4_lrc3e-3/fd0126b23dad862f417327e64da043fff24e40de_ligand_9.pdbqt
 14 15 0 0 0
SMALL
GASTEIGER

@<TRIPOS>ATOM
      1  C          5.8610    1.5850    0.9030 C.3     1  UNL1        0.0800
      2  C          5.3750    0.5560    1.8640 C.2     1  UNL1        0.1300
      3  C          6.1910   -0.6410    2.2050 C.3     1  UNL1        0.0870
      4  O          4.2860    0.6660    2.4030 O.2     1  UNL1       -0.3000
      5  C          5.7770    1.0860   -0.5260 C.3     1  UNL1        0.0430
      6  C          7.0210    0.4160   -0.9450 C.2     1  UNL1       -0.0440
      7  C          8.2730    1.0140   -0.7610 C.2     1  UNL1        0.0080
      8  C          6.9620   -0.8280   -1.5310 C.2     1  UNL1        0.0540
      9  C          9.4070    0.3370   -1.1730 C.2     1  UNL1        0.0510
     10  C          8.1110   -1.5080   -1.9460 C.2     1  UNL1        0.1660
     11  C          9.3440   -0.9200   -1.7660 C.2     1  UNL1        0.1650
     12  O          8.3130   -2.7330   -2.5440 O.2     1  UNL1       -0.4540
     13  O         10.2870   -1.8060   -2.2610 O.2     1  UNL1       -0.4540
     14  C          9.6840   -3.0070   -2.6820 C.3     1  UNL1        0.4680
@<TRIPOS>BOND
     1    14    12    1
     2    14    13    1
     3    12    10    1
     4    13    11    1
     5    10    11    2
     6    10     8    1
     7    11     9    1
     8     8     6    2
     9     9     7    2
    10     6     7    1
    11     6     5    1
    12     5     1    1
    13     1     2    1
    14     2     3    1
    15     2     4    2
