MODEL 1
REMARK VINA RESULT:      -8.2      0.000      0.000
REMARK SMILES CC(=O)CCc1ccc2c(c1)OCO2
REMARK SMILES IDX 4 1 2 2 1 3 3 4 5 5 6 6 7 7 11 8 8 9 10 10 9 11 12 12 14 13
REMARK SMILES IDX 13 14
REMARK H PARENT
REMARK Flexibility Score: inf
ROOT
ATOM      1  C   UNL     1       5.861   1.585   0.903  1.00  0.00     0.080 C 
ENDROOT
BRANCH   1   2
ATOM      2  C   UNL     1       5.375   0.556   1.864  1.00  0.00     0.130 C 
ATOM      3  C   UNL     1       6.191  -0.641   2.205  1.00  0.00     0.087 C 
ATOM      4  O   UNL     1       4.286   0.666   2.403  1.00  0.00    -0.300 OA
ENDBRANCH   1   2
BRANCH   1   5
ATOM      5  C   UNL     1       5.777   1.086  -0.526  1.00  0.00     0.043 C 
BRANCH   5   6
ATOM      6  C   UNL     1       7.021   0.416  -0.945  1.00  0.00    -0.044 A 
ATOM      7  C   UNL     1       8.273   1.014  -0.761  1.00  0.00     0.008 A 
ATOM      8  C   UNL     1       6.962  -0.828  -1.531  1.00  0.00     0.054 A 
ATOM      9  C   UNL     1       9.407   0.337  -1.173  1.00  0.00     0.051 A 
ATOM     10  C   UNL     1       8.111  -1.508  -1.946  1.00  0.00     0.166 A 
ATOM     11  C   UNL     1       9.344  -0.920  -1.766  1.00  0.00     0.165 A 
ATOM     12  O   UNL     1       8.313  -2.733  -2.544  1.00  0.00    -0.454 OA
ATOM     13  O   UNL     1      10.287  -1.806  -2.261  1.00  0.00    -0.454 OA
ATOM     14  C   UNL     1       9.684  -3.007  -2.682  1.00  0.00     0.468 C 
ENDBRANCH   5   6
ENDBRANCH   1   5
TORSDOF 3
ENDMDL
MODEL 2
REMARK VINA RESULT:      -7.7      1.110      1.774
REMARK SMILES CC(=O)CCc1ccc2c(c1)OCO2
REMARK SMILES IDX 4 1 2 2 1 3 3 4 5 5 6 6 7 7 11 8 8 9 10 10 9 11 12 12 14 13
REMARK SMILES IDX 13 14
REMARK H PARENT
REMARK Flexibility Score: inf
ROOT
ATOM      1  C   UNL     1       5.889   1.272  -0.292  1.00  0.00     0.080 C 
ENDROOT
BRANCH   1   2
ATOM      2  C   UNL     1       5.299   1.122   1.067  1.00  0.00     0.130 C 
ATOM      3  C   UNL     1       5.634  -0.036   1.940  1.00  0.00     0.087 C 
ATOM      4  O   UNL     1       4.517   1.950   1.507  1.00  0.00    -0.300 OA
ENDBRANCH   1   2
BRANCH   1   5
ATOM      5  C   UNL     1       7.404   1.274  -0.237  1.00  0.00     0.043 C 
BRANCH   5   6
ATOM      6  C   UNL     1       7.981   0.180  -1.039  1.00  0.00    -0.044 A 
ATOM      7  C   UNL     1       7.429  -0.198  -2.268  1.00  0.00     0.008 A 
ATOM      8  C   UNL     1       9.091  -0.491  -0.578  1.00  0.00     0.054 A 
ATOM      9  C   UNL     1       8.014  -1.232  -2.977  1.00  0.00     0.051 A 
ATOM     10  C   UNL     1       9.679  -1.535  -1.298  1.00  0.00     0.166 A 
ATOM     11  C   UNL     1       9.135  -1.908  -2.507  1.00  0.00     0.165 A 
ATOM     12  O   UNL     1      10.768  -2.346  -1.058  1.00  0.00    -0.454 OA
ATOM     13  O   UNL     1       9.911  -2.951  -2.990  1.00  0.00    -0.454 OA
ATOM     14  C   UNL     1      11.010  -3.200  -2.146  1.00  0.00     0.468 C 
ENDBRANCH   5   6
ENDBRANCH   1   5
TORSDOF 3
ENDMDL
MODEL 3
REMARK VINA RESULT:      -7.5      1.253      2.010
REMARK SMILES CC(=O)CCc1ccc2c(c1)OCO2
REMARK SMILES IDX 4 1 2 2 1 3 3 4 5 5 6 6 7 7 11 8 8 9 10 10 9 11 12 12 14 13
REMARK SMILES IDX 13 14
REMARK H PARENT
REMARK Flexibility Score: inf
ROOT
ATOM      1  C   UNL     1       6.677   0.246   0.997  1.00  0.00     0.080 C 
ENDROOT
BRANCH   1   2
ATOM      2  C   UNL     1       5.422   0.991   1.292  1.00  0.00     0.130 C 
ATOM      3  C   UNL     1       4.965   2.121   0.438  1.00  0.00     0.087 C 
ATOM      4  O   UNL     1       4.727   0.695   2.250  1.00  0.00    -0.300 OA
ENDBRANCH   1   2
BRANCH   1   5
ATOM      5  C   UNL     1       7.451   0.896  -0.133  1.00  0.00     0.043 C 
BRANCH   5   6
ATOM      6  C   UNL     1       8.107  -0.105  -0.992  1.00  0.00    -0.044 A 
ATOM      7  C   UNL     1       7.703  -0.313  -2.316  1.00  0.00     0.008 A 
ATOM      8  C   UNL     1       9.146  -0.858  -0.492  1.00  0.00     0.054 A 
ATOM      9  C   UNL     1       8.357  -1.266  -3.075  1.00  0.00     0.051 A 
ATOM     10  C   UNL     1       9.804  -1.820  -1.264  1.00  0.00     0.166 A 
ATOM     11  C   UNL     1       9.406  -2.026  -2.567  1.00  0.00     0.165 A 
ATOM     12  O   UNL     1      10.846  -2.683  -1.002  1.00  0.00    -0.454 OA
ATOM     13  O   UNL     1      10.221  -3.021  -3.083  1.00  0.00    -0.454 OA
ATOM     14  C   UNL     1      11.207  -3.402  -2.153  1.00  0.00     0.468 C 
ENDBRANCH   5   6
ENDBRANCH   1   5
TORSDOF 3
ENDMDL
MODEL 4
REMARK VINA RESULT:      -7.4      1.437      2.161
REMARK SMILES CC(=O)CCc1ccc2c(c1)OCO2
REMARK SMILES IDX 4 1 2 2 1 3 3 4 5 5 6 6 7 7 11 8 8 9 10 10 9 11 12 12 14 13
REMARK SMILES IDX 13 14
REMARK H PARENT
REMARK Flexibility Score: inf
ROOT
ATOM      1  C   UNL     1       6.666   0.307   1.718  1.00  0.00     0.080 C 
ENDROOT
BRANCH   1   2
ATOM      2  C   UNL     1       5.354   0.992   1.557  1.00  0.00     0.130 C 
ATOM      3  C   UNL     1       5.106   1.955   0.450  1.00  0.00     0.087 C 
ATOM      4  O   UNL     1       4.437   0.782   2.334  1.00  0.00    -0.300 OA
ENDBRANCH   1   2
BRANCH   1   5
ATOM      5  C   UNL     1       6.559  -1.171   1.397  1.00  0.00     0.043 C 
BRANCH   5   6
ATOM      6  C   UNL     1       7.282  -1.515   0.160  1.00  0.00    -0.044 A 
ATOM      7  C   UNL     1       6.838  -1.080  -1.094  1.00  0.00     0.008 A 
ATOM      8  C   UNL     1       8.425  -2.279   0.228  1.00  0.00     0.054 A 
ATOM      9  C   UNL     1       7.559  -1.434  -2.220  1.00  0.00     0.051 A 
ATOM     10  C   UNL     1       9.150  -2.633  -0.913  1.00  0.00     0.166 A 
ATOM     11  C   UNL     1       8.713  -2.207  -2.148  1.00  0.00     0.165 A 
ATOM     12  O   UNL     1      10.298  -3.373  -1.106  1.00  0.00    -0.454 OA
ATOM     13  O   UNL     1       9.611  -2.698  -3.082  1.00  0.00    -0.454 OA
ATOM     14  C   UNL     1      10.681  -3.366  -2.457  1.00  0.00     0.468 C 
ENDBRANCH   5   6
ENDBRANCH   1   5
TORSDOF 3
ENDMDL
MODEL 5
REMARK VINA RESULT:      -7.4      1.984      2.450
REMARK SMILES CC(=O)CCc1ccc2c(c1)OCO2
REMARK SMILES IDX 4 1 2 2 1 3 3 4 5 5 6 6 7 7 11 8 8 9 10 10 9 11 12 12 14 13
REMARK SMILES IDX 13 14
REMARK H PARENT
REMARK Flexibility Score: inf
ROOT
ATOM      1  C   UNL     1       6.054   0.348   1.824  1.00  0.00     0.080 C 
ENDROOT
BRANCH   1   2
ATOM      2  C   UNL     1       4.938   1.268   1.466  1.00  0.00     0.130 C 
ATOM      3  C   UNL     1       5.006   2.149   0.270  1.00  0.00     0.087 C 
ATOM      4  O   UNL     1       3.929   1.326   2.151  1.00  0.00    -0.300 OA
ENDBRANCH   1   2
BRANCH   1   5
ATOM      5  C   UNL     1       6.343  -0.629   0.702  1.00  0.00     0.043 C 
BRANCH   5   6
ATOM      6  C   UNL     1       7.749  -0.561   0.266  1.00  0.00    -0.044 A 
ATOM      7  C   UNL     1       8.203   0.449  -0.590  1.00  0.00     0.008 A 
ATOM      8  C   UNL     1       8.646  -1.507   0.707  1.00  0.00     0.054 A 
ATOM      9  C   UNL     1       9.534   0.463  -0.964  1.00  0.00     0.051 A 
ATOM     10  C   UNL     1       9.991  -1.488   0.326  1.00  0.00     0.166 A 
ATOM     11  C   UNL     1      10.439  -0.495  -0.517  1.00  0.00     0.165 A 
ATOM     12  O   UNL     1      11.064  -2.302   0.623  1.00  0.00    -0.454 OA
ATOM     13  O   UNL     1      11.791  -0.721  -0.721  1.00  0.00    -0.454 OA
ATOM     14  C   UNL     1      12.248  -1.804   0.054  1.00  0.00     0.468 C 
ENDBRANCH   5   6
ENDBRANCH   1   5
TORSDOF 3
ENDMDL
