@<TRIPOS>MOLECULE
/home/cewinharhar/GITHUB/reincatalyze/data/processed/docking_pred/2023-May-31-1438_sub9_nm5_bs15_s42_ex16_mel10_mts1000_k50_ec05_g099_lra9e-4_lrc3e-3/fd751eb3811fc03d22e30b1993ea0072812fb772_ligand_9.pdbqt
 14 15 0 0 0
SMALL
GASTEIGER

@<TRIPOS>ATOM
      1  C          5.5140    1.9210    1.2620 C.3     1  UNL1        0.0800
      2  C          5.0640    0.7080    2.0000 C.2     1  UNL1        0.1300
      3  C          5.9430   -0.4820    2.1560 C.3     1  UNL1        0.0870
      4  O          3.9520    0.6550    2.5010 O.2     1  UNL1       -0.3000
      5  C          5.3900    1.7310   -0.2370 C.3     1  UNL1        0.0430
      6  C          6.5590    1.0310   -0.7970 C.2     1  UNL1       -0.0440
      7  C          7.8650    1.4680   -0.5480 C.2     1  UNL1        0.0080
      8  C          6.3740   -0.0830   -1.5840 C.2     1  UNL1        0.0540
      9  C          8.9230    0.7700   -1.1000 C.2     1  UNL1        0.0510
     10  C          7.4470   -0.7860   -2.1390 C.2     1  UNL1        0.1660
     11  C          8.7320   -0.3560   -1.8960 C.2     1  UNL1        0.1650
     12  O          7.5240   -1.9040   -2.9430 O.2     1  UNL1       -0.4540
     13  O          9.5800   -1.2280   -2.5610 O.2     1  UNL1       -0.4540
     14  C          8.8600   -2.2770   -3.1620 C.3     1  UNL1        0.4680
@<TRIPOS>BOND
     1    14    12    1
     2    14    13    1
     3    12    10    1
     4    13    11    1
     5    10    11    2
     6    10     8    1
     7    11     9    1
     8     8     6    2
     9     9     7    2
    10     6     7    1
    11     6     5    1
    12     5     1    1
    13     1     2    1
    14     2     3    1
    15     2     4    2
