@<TRIPOS>MOLECULE
/home/cewinharhar/GITHUB/reincatalyze/data/processed/docking_pred/2023-May-31-1438_sub9_nm5_bs15_s42_ex16_mel10_mts1000_k50_ec05_g099_lra9e-4_lrc3e-3/ff0363d9ee1910d446632d9597fe578fef33cb13_ligand_9.pdbqt
 14 15 0 0 0
SMALL
GASTEIGER

@<TRIPOS>ATOM
      1  C          5.7840    1.2450   -0.3300 C.3     1  UNL1        0.0800
      2  C          5.2300    1.2450    1.0520 C.2     1  UNL1        0.1300
      3  C          5.5310    0.1530    2.0150 C.3     1  UNL1        0.0870
      4  O          4.5060    2.1500    1.4360 O.2     1  UNL1       -0.3000
      5  C          7.2810    1.0030   -0.3230 C.3     1  UNL1        0.0430
      6  C          7.6270   -0.3010   -0.9150 C.2     1  UNL1       -0.0440
      7  C          7.6310   -0.4990   -2.3000 C.2     1  UNL1        0.0080
      8  C          7.9590   -1.3560   -0.0950 C.2     1  UNL1        0.0540
      9  C          7.9650   -1.7450   -2.7990 C.2     1  UNL1        0.0510
     10  C          8.2970   -2.6130   -0.6040 C.2     1  UNL1        0.1660
     11  C          8.2990   -2.8100   -1.9670 C.2     1  UNL1        0.1650
     12  O          8.6570   -3.8030   -0.0080 O.2     1  UNL1       -0.4540
     13  O          8.6660   -4.1290   -2.1820 O.2     1  UNL1       -0.4540
     14  C          8.9910   -4.7690   -0.9710 C.3     1  UNL1        0.4680
@<TRIPOS>BOND
     1     9     7    1
     2     9    11    2
     3     7     6    2
     4    13    11    1
     5    13    14    1
     6    11    10    1
     7    14    12    1
     8     6     5    1
     9     6     8    1
    10    10     8    2
    11    10    12    1
    12     1     5    1
    13     1     2    1
    14     2     4    2
    15     2     3    1
