@<TRIPOS>MOLECULE
/home/cewinharhar/GITHUB/reincatalyze/data/processed/docking_pred/2023-May-31-1438_sub9_nm5_bs15_s42_ex16_mel10_mts1000_k50_ec05_g099_lra9e-4_lrc3e-3/ff0363d9ee1910d446632d9597fe578fef33cb13_ligand_9.pdbqt
 14 15 0 0 0
SMALL
GASTEIGER

@<TRIPOS>ATOM
      1  C          5.3080   -0.0720    1.9650 C.3     1  UNL1        0.0800
      2  C          4.4440    1.1270    1.7770 C.2     1  UNL1        0.1300
      3  C          4.7440    2.1500    0.7390 C.3     1  UNL1        0.0870
      4  O          3.4580    1.3050    2.4740 O.2     1  UNL1       -0.3000
      5  C          6.7780    0.2960    1.9140 C.3     1  UNL1        0.0430
      6  C          7.3830   -0.0510    0.6160 C.2     1  UNL1       -0.0440
      7  C          7.8800    0.9320   -0.2470 C.2     1  UNL1        0.0080
      8  C          7.4700   -1.3710    0.2350 C.2     1  UNL1        0.0540
      9  C          8.4380    0.5460   -1.4530 C.2     1  UNL1        0.0510
     10  C          8.0360   -1.7550   -0.9840 C.2     1  UNL1        0.1660
     11  C          8.5230   -0.7890   -1.8350 C.2     1  UNL1        0.1650
     12  O          8.2350   -2.9810   -1.5830 O.2     1  UNL1       -0.4540
     13  O          9.0180   -1.4480   -2.9500 O.2     1  UNL1       -0.4540
     14  C          8.9370   -2.8450   -2.7910 C.3     1  UNL1        0.4680
@<TRIPOS>BOND
     1    13    14    1
     2    13    11    1
     3    14    12    1
     4    11     9    2
     5    11    10    1
     6    12    10    1
     7     9     7    1
     8    10     8    2
     9     7     6    2
    10     8     6    1
    11     6     5    1
    12     3     2    1
    13     2     1    1
    14     2     4    2
    15     5     1    1
