@<TRIPOS>MOLECULE
/home/cewinharhar/GITHUB/reincatalyze/data/processed/docking_pred/2023-May-31-1727_sub9_nm5_bs15_s42_ex16_mel10_mts10000_k50_ec075_g099_lra3e-4_lrc3e-3/00fabcb6e86abbd64330e8a307762c5d347247e8_ligand_9.pdbqt
 14 15 0 0 0
SMALL
GASTEIGER

@<TRIPOS>ATOM
      1  C          8.0490   -2.6520   -1.8130 C.3     1  UNL1        0.0800
      2  C          8.9120   -2.1300   -2.8880 C.2     1  UNL1        0.1300
      3  C          8.4410   -0.8360   -3.5290 C.3     1  UNL1        0.0870
      4  O          9.9300   -2.6020   -3.3080 O.2     1  UNL1       -0.3000
      5  C          8.4320   -2.2850   -0.4330 C.3     1  UNL1        0.0430
      6  C          7.4330   -1.5790    0.3740 C.2     1  UNL1       -0.0440
      7  C          7.1880   -1.9080    1.7080 C.2     1  UNL1        0.0080
      8  C          6.7210   -0.5360   -0.1690 C.2     1  UNL1        0.0540
      9  C          6.2580   -1.1880    2.4120 C.2     1  UNL1        0.0510
     10  C          5.7740    0.1850    0.5750 C.2     1  UNL1        0.1660
     11  C          5.5320   -0.1400    1.8910 C.2     1  UNL1        0.1650
     12  O          4.9310    1.2540    0.2980 O.2     1  UNL1       -0.4540
     13  O          4.5530    0.7260    2.3960 O.2     1  UNL1       -0.4540
     14  C          4.5680    1.8470    1.5370 C.3     1  UNL1        0.4680
@<TRIPOS>BOND
     1     3     2    1
     2     4     2    2
     3     2     1    1
     4     1     5    1
     5     5     6    1
     6     8     6    2
     7     8    10    1
     8    12    10    1
     9    12    14    1
    10     6     7    1
    11    10    11    2
    12    14    13    1
    13     7     9    2
    14    11    13    1
    15    11     9    1
