@<TRIPOS>MOLECULE
/home/cewinharhar/GITHUB/reincatalyze/data/processed/docking_pred/2023-May-31-1727_sub9_nm5_bs15_s42_ex16_mel10_mts10000_k50_ec075_g099_lra3e-4_lrc3e-3/00fabcb6e86abbd64330e8a307762c5d347247e8_ligand_9.pdbqt
 14 15 0 0 0
SMALL
GASTEIGER

@<TRIPOS>ATOM
      1  C          8.2400   -1.6900   -2.3920 C.3     1  UNL1        0.0800
      2  C          8.8870   -0.3660   -2.4250 C.2     1  UNL1        0.1300
      3  C          8.2490    0.6460   -3.3600 C.3     1  UNL1        0.0870
      4  O          9.8460   -0.0010   -1.8060 O.2     1  UNL1       -0.3000
      5  C          8.1550   -2.3410   -1.0670 C.3     1  UNL1        0.0430
      6  C          7.3130   -1.6950   -0.0560 C.2     1  UNL1       -0.0440
      7  C          7.2660   -2.1380    1.2670 C.2     1  UNL1        0.0080
      8  C          6.5570   -0.5950   -0.3900 C.2     1  UNL1        0.0540
      9  C          6.4780   -1.4690    2.1660 C.2     1  UNL1        0.0510
     10  C          5.7580    0.0710    0.5520 C.2     1  UNL1        0.1660
     11  C          5.7110   -0.3670    1.8570 C.2     1  UNL1        0.1650
     12  O          4.9140    1.1740    0.5030 O.2     1  UNL1       -0.4540
     13  O          4.8480    0.4650    2.5810 O.2     1  UNL1       -0.4540
     14  C          4.7640    1.6590    1.8300 C.3     1  UNL1        0.4680
@<TRIPOS>BOND
     1     3     2    1
     2     2     1    1
     3     2     4    2
     4     1     5    1
     5     5     6    1
     6     8     6    2
     7     8    10    1
     8     6     7    1
     9    12    10    1
    10    12    14    1
    11    10    11    2
    12     7     9    2
    13    14    13    1
    14    11     9    1
    15    11    13    1
