@<TRIPOS>MOLECULE
/home/cewinharhar/GITHUB/reincatalyze/data/processed/docking_pred/2023-May-31-1727_sub9_nm5_bs15_s42_ex16_mel10_mts10000_k50_ec075_g099_lra3e-4_lrc3e-3/00fabcb6e86abbd64330e8a307762c5d347247e8_ligand_9.pdbqt
 14 15 0 0 0
SMALL
GASTEIGER

@<TRIPOS>ATOM
      1  C          5.4810   -0.2110    2.1430 C.3     1  UNL1        0.0800
      2  C          4.4730    0.8530    1.9800 C.2     1  UNL1        0.1300
      3  C          4.7180    1.8090    0.8250 C.3     1  UNL1        0.0870
      4  O          3.4950    1.0470    2.6440 O.2     1  UNL1       -0.3000
      5  C          6.7970    0.0370    1.5160 C.3     1  UNL1        0.0430
      6  C          7.2260   -0.8920    0.4680 C.2     1  UNL1       -0.0440
      7  C          7.1240   -0.5810   -0.8890 C.2     1  UNL1        0.0080
      8  C          7.7760   -2.1060    0.8060 C.2     1  UNL1        0.0540
      9  C          7.5700   -1.4870   -1.8160 C.2     1  UNL1        0.0510
     10  C          8.2250   -3.0150   -0.1640 C.2     1  UNL1        0.1660
     11  C          8.1240   -2.7080   -1.5030 C.2     1  UNL1        0.1650
     12  O          8.8050   -4.2770   -0.1180 O.2     1  UNL1       -0.4540
     13  O          8.6390   -3.7760   -2.2490 O.2     1  UNL1       -0.4540
     14  C          9.4680   -4.4900   -1.3560 C.3     1  UNL1        0.4680
@<TRIPOS>BOND
     1    13    11    1
     2    13    14    1
     3     9    11    2
     4     9     7    1
     5    11    10    1
     6    14    12    1
     7     7     6    2
     8    10    12    1
     9    10     8    2
    10     6     8    1
    11     6     5    1
    12     3     2    1
    13     5     1    1
    14     2     1    1
    15     2     4    2
