MODEL 1
REMARK VINA RESULT:      -6.1      0.000      0.000
REMARK SMILES CC(=O)CCc1ccc2c(c1)OCO2
REMARK SMILES IDX 4 1 2 2 1 3 3 4 5 5 6 6 7 7 11 8 8 9 10 10 9 11 12 12 14 13
REMARK SMILES IDX 13 14
REMARK H PARENT
REMARK Flexibility Score: inf
ROOT
ATOM      1  C   UNL     1       5.481  -0.211   2.143  1.00  0.00     0.080 C 
ENDROOT
BRANCH   1   2
ATOM      2  C   UNL     1       4.473   0.853   1.980  1.00  0.00     0.130 C 
ATOM      3  C   UNL     1       4.718   1.809   0.825  1.00  0.00     0.087 C 
ATOM      4  O   UNL     1       3.495   1.047   2.644  1.00  0.00    -0.300 OA
ENDBRANCH   1   2
BRANCH   1   5
ATOM      5  C   UNL     1       6.797   0.037   1.516  1.00  0.00     0.043 C 
BRANCH   5   6
ATOM      6  C   UNL     1       7.226  -0.892   0.468  1.00  0.00    -0.044 A 
ATOM      7  C   UNL     1       7.124  -0.581  -0.889  1.00  0.00     0.008 A 
ATOM      8  C   UNL     1       7.776  -2.106   0.806  1.00  0.00     0.054 A 
ATOM      9  C   UNL     1       7.570  -1.487  -1.816  1.00  0.00     0.051 A 
ATOM     10  C   UNL     1       8.225  -3.015  -0.164  1.00  0.00     0.166 A 
ATOM     11  C   UNL     1       8.124  -2.708  -1.503  1.00  0.00     0.165 A 
ATOM     12  O   UNL     1       8.805  -4.277  -0.118  1.00  0.00    -0.454 OA
ATOM     13  O   UNL     1       8.639  -3.776  -2.249  1.00  0.00    -0.454 OA
ATOM     14  C   UNL     1       9.468  -4.490  -1.356  1.00  0.00     0.468 C 
ENDBRANCH   5   6
ENDBRANCH   1   5
TORSDOF 3
ENDMDL
MODEL 2
REMARK VINA RESULT:      -5.8      1.806      2.098
REMARK SMILES CC(=O)CCc1ccc2c(c1)OCO2
REMARK SMILES IDX 4 1 2 2 1 3 3 4 5 5 6 6 7 7 11 8 8 9 10 10 9 11 12 12 14 13
REMARK SMILES IDX 13 14
REMARK H PARENT
REMARK Flexibility Score: inf
ROOT
ATOM      1  C   UNL     1       5.503   0.204   2.525  1.00  0.00     0.080 C 
ENDROOT
BRANCH   1   2
ATOM      2  C   UNL     1       4.382   1.055   2.088  1.00  0.00     0.130 C 
ATOM      3  C   UNL     1       4.620   1.836   0.807  1.00  0.00     0.087 C 
ATOM      4  O   UNL     1       3.317   1.199   2.619  1.00  0.00    -0.300 OA
ENDBRANCH   1   2
BRANCH   1   5
ATOM      5  C   UNL     1       5.752  -1.010   1.720  1.00  0.00     0.043 C 
BRANCH   5   6
ATOM      6  C   UNL     1       6.771  -0.921   0.670  1.00  0.00    -0.044 A 
ATOM      7  C   UNL     1       8.027  -0.358   0.899  1.00  0.00     0.008 A 
ATOM      8  C   UNL     1       6.514  -1.428  -0.583  1.00  0.00     0.054 A 
ATOM      9  C   UNL     1       8.942  -0.333  -0.122  1.00  0.00     0.051 A 
ATOM     10  C   UNL     1       7.469  -1.389  -1.610  1.00  0.00     0.166 A 
ATOM     11  C   UNL     1       8.709  -0.832  -1.385  1.00  0.00     0.165 A 
ATOM     12  O   UNL     1       7.490  -1.810  -2.934  1.00  0.00    -0.454 OA
ATOM     13  O   UNL     1       9.463  -0.921  -2.562  1.00  0.00    -0.454 OA
ATOM     14  C   UNL     1       8.850  -1.941  -3.322  1.00  0.00     0.468 C 
ENDBRANCH   5   6
ENDBRANCH   1   5
TORSDOF 3
ENDMDL
MODEL 3
REMARK VINA RESULT:      -5.7      1.115      2.014
REMARK SMILES CC(=O)CCc1ccc2c(c1)OCO2
REMARK SMILES IDX 4 1 2 2 1 3 3 4 5 5 6 6 7 7 11 8 8 9 10 10 9 11 12 12 14 13
REMARK SMILES IDX 13 14
REMARK H PARENT
REMARK Flexibility Score: inf
ROOT
ATOM      1  C   UNL     1       5.241  -0.148   2.290  1.00  0.00     0.080 C 
ENDROOT
BRANCH   1   2
ATOM      2  C   UNL     1       4.301   0.956   2.026  1.00  0.00     0.130 C 
ATOM      3  C   UNL     1       4.661   1.850   0.852  1.00  0.00     0.087 C 
ATOM      4  O   UNL     1       3.297   1.226   2.623  1.00  0.00    -0.300 OA
ENDBRANCH   1   2
BRANCH   1   5
ATOM      5  C   UNL     1       6.657   0.106   1.949  1.00  0.00     0.043 C 
BRANCH   5   6
ATOM      6  C   UNL     1       7.249  -0.717   0.891  1.00  0.00    -0.044 A 
ATOM      7  C   UNL     1       7.536  -2.071   1.074  1.00  0.00     0.008 A 
ATOM      8  C   UNL     1       7.515  -0.167  -0.341  1.00  0.00     0.054 A 
ATOM      9  C   UNL     1       8.065  -2.787   0.031  1.00  0.00     0.051 A 
ATOM     10  C   UNL     1       8.057  -0.924  -1.392  1.00  0.00     0.166 A 
ATOM     11  C   UNL     1       8.340  -2.260  -1.211  1.00  0.00     0.165 A 
ATOM     12  O   UNL     1       8.419  -0.645  -2.704  1.00  0.00    -0.454 OA
ATOM     13  O   UNL     1       8.866  -2.774  -2.403  1.00  0.00    -0.454 OA
ATOM     14  C   UNL     1       8.452  -1.876  -3.412  1.00  0.00     0.468 C 
ENDBRANCH   5   6
ENDBRANCH   1   5
TORSDOF 3
ENDMDL
MODEL 4
REMARK VINA RESULT:      -5.7      1.535      5.819
REMARK SMILES CC(=O)CCc1ccc2c(c1)OCO2
REMARK SMILES IDX 4 1 2 2 1 3 3 4 5 5 6 6 7 7 11 8 8 9 10 10 9 11 12 12 14 13
REMARK SMILES IDX 13 14
REMARK H PARENT
REMARK Flexibility Score: inf
ROOT
ATOM      1  C   UNL     1       8.049  -2.652  -1.813  1.00  0.00     0.080 C 
ENDROOT
BRANCH   1   2
ATOM      2  C   UNL     1       8.912  -2.130  -2.888  1.00  0.00     0.130 C 
ATOM      3  C   UNL     1       8.441  -0.836  -3.529  1.00  0.00     0.087 C 
ATOM      4  O   UNL     1       9.930  -2.602  -3.308  1.00  0.00    -0.300 OA
ENDBRANCH   1   2
BRANCH   1   5
ATOM      5  C   UNL     1       8.432  -2.285  -0.433  1.00  0.00     0.043 C 
BRANCH   5   6
ATOM      6  C   UNL     1       7.433  -1.579   0.374  1.00  0.00    -0.044 A 
ATOM      7  C   UNL     1       7.188  -1.908   1.708  1.00  0.00     0.008 A 
ATOM      8  C   UNL     1       6.721  -0.536  -0.169  1.00  0.00     0.054 A 
ATOM      9  C   UNL     1       6.258  -1.188   2.412  1.00  0.00     0.051 A 
ATOM     10  C   UNL     1       5.774   0.185   0.575  1.00  0.00     0.166 A 
ATOM     11  C   UNL     1       5.532  -0.140   1.891  1.00  0.00     0.165 A 
ATOM     12  O   UNL     1       4.931   1.254   0.298  1.00  0.00    -0.454 OA
ATOM     13  O   UNL     1       4.553   0.726   2.396  1.00  0.00    -0.454 OA
ATOM     14  C   UNL     1       4.568   1.847   1.537  1.00  0.00     0.468 C 
ENDBRANCH   5   6
ENDBRANCH   1   5
TORSDOF 3
ENDMDL
MODEL 5
REMARK VINA RESULT:      -5.7      1.973      5.461
REMARK SMILES CC(=O)CCc1ccc2c(c1)OCO2
REMARK SMILES IDX 4 1 2 2 1 3 3 4 5 5 6 6 7 7 11 8 8 9 10 10 9 11 12 12 14 13
REMARK SMILES IDX 13 14
REMARK H PARENT
REMARK Flexibility Score: inf
ROOT
ATOM      1  C   UNL     1       8.240  -1.690  -2.392  1.00  0.00     0.080 C 
ENDROOT
BRANCH   1   2
ATOM      2  C   UNL     1       8.887  -0.366  -2.425  1.00  0.00     0.130 C 
ATOM      3  C   UNL     1       8.249   0.646  -3.360  1.00  0.00     0.087 C 
ATOM      4  O   UNL     1       9.846  -0.001  -1.806  1.00  0.00    -0.300 OA
ENDBRANCH   1   2
BRANCH   1   5
ATOM      5  C   UNL     1       8.155  -2.341  -1.067  1.00  0.00     0.043 C 
BRANCH   5   6
ATOM      6  C   UNL     1       7.313  -1.695  -0.056  1.00  0.00    -0.044 A 
ATOM      7  C   UNL     1       7.266  -2.138   1.267  1.00  0.00     0.008 A 
ATOM      8  C   UNL     1       6.557  -0.595  -0.390  1.00  0.00     0.054 A 
ATOM      9  C   UNL     1       6.478  -1.469   2.166  1.00  0.00     0.051 A 
ATOM     10  C   UNL     1       5.758   0.071   0.552  1.00  0.00     0.166 A 
ATOM     11  C   UNL     1       5.711  -0.367   1.857  1.00  0.00     0.165 A 
ATOM     12  O   UNL     1       4.914   1.174   0.503  1.00  0.00    -0.454 OA
ATOM     13  O   UNL     1       4.848   0.465   2.581  1.00  0.00    -0.454 OA
ATOM     14  C   UNL     1       4.764   1.659   1.830  1.00  0.00     0.468 C 
ENDBRANCH   5   6
ENDBRANCH   1   5
TORSDOF 3
ENDMDL
