@<TRIPOS>MOLECULE
/home/cewinharhar/GITHUB/reincatalyze/data/processed/docking_pred/2023-May-31-1727_sub9_nm5_bs15_s42_ex16_mel10_mts10000_k50_ec075_g099_lra3e-4_lrc3e-3/00fabcb6e86abbd64330e8a307762c5d347247e8_ligand_9.pdbqt
 14 15 0 0 0
SMALL
GASTEIGER

@<TRIPOS>ATOM
      1  C          5.5030    0.2040    2.5250 C.3     1  UNL1        0.0800
      2  C          4.3820    1.0550    2.0880 C.2     1  UNL1        0.1300
      3  C          4.6200    1.8360    0.8070 C.3     1  UNL1        0.0870
      4  O          3.3170    1.1990    2.6190 O.2     1  UNL1       -0.3000
      5  C          5.7520   -1.0100    1.7200 C.3     1  UNL1        0.0430
      6  C          6.7710   -0.9210    0.6700 C.2     1  UNL1       -0.0440
      7  C          8.0270   -0.3580    0.8990 C.2     1  UNL1        0.0080
      8  C          6.5140   -1.4280   -0.5830 C.2     1  UNL1        0.0540
      9  C          8.9420   -0.3330   -0.1220 C.2     1  UNL1        0.0510
     10  C          7.4690   -1.3890   -1.6100 C.2     1  UNL1        0.1660
     11  C          8.7090   -0.8320   -1.3850 C.2     1  UNL1        0.1650
     12  O          7.4900   -1.8100   -2.9340 O.2     1  UNL1       -0.4540
     13  O          9.4630   -0.9210   -2.5620 O.2     1  UNL1       -0.4540
     14  C          8.8500   -1.9410   -3.3220 C.3     1  UNL1        0.4680
@<TRIPOS>BOND
     1    14    12    1
     2    14    13    1
     3    12    10    1
     4    13    11    1
     5    10    11    2
     6    10     8    1
     7    11     9    1
     8     8     6    2
     9     9     7    2
    10     6     7    1
    11     6     5    1
    12     3     2    1
    13     5     1    1
    14     2     1    1
    15     2     4    2
