@<TRIPOS>MOLECULE
/home/cewinharhar/GITHUB/reincatalyze/data/processed/docking_pred/2023-May-31-1727_sub9_nm5_bs15_s42_ex16_mel10_mts10000_k50_ec075_g099_lra3e-4_lrc3e-3/01b08930ea9107c3adfd00eac21895e0e3e1f2d7_ligand_9.pdbqt
 14 15 0 0 0
SMALL
GASTEIGER

@<TRIPOS>ATOM
      1  C          5.8940    1.6060   -0.1830 C.3     1  UNL1        0.0800
      2  C          5.1380    1.4040    1.0660 C.2     1  UNL1        0.1300
      3  C          5.5710    0.2120    1.9030 C.3     1  UNL1        0.0870
      4  O          4.2340    2.0640    1.4930 O.2     1  UNL1       -0.3000
      5  C          7.2990    1.1450   -0.1760 C.3     1  UNL1        0.0430
      6  C          7.5800   -0.1550   -0.7910 C.2     1  UNL1       -0.0440
      7  C          7.5770   -0.3400   -2.1750 C.2     1  UNL1        0.0080
      8  C          7.8880   -1.2380   -0.0010 C.2     1  UNL1        0.0540
      9  C          7.8760   -1.5780   -2.6820 C.2     1  UNL1        0.0510
     10  C          8.1910   -2.4950   -0.5470 C.2     1  UNL1        0.1660
     11  C          8.1870   -2.6770   -1.9120 C.2     1  UNL1        0.1650
     12  O          8.5280   -3.7310   -0.0110 O.2     1  UNL1       -0.4540
     13  O          8.5190   -4.0100   -2.1890 O.2     1  UNL1       -0.4540
     14  C          9.1760   -4.4790   -1.0300 C.3     1  UNL1        0.4680
@<TRIPOS>BOND
     1     9     7    1
     2     9    11    2
     3    13    11    1
     4    13    14    1
     5     7     6    2
     6    11    10    1
     7    14    12    1
     8     6     5    1
     9     6     8    1
    10    10    12    1
    11    10     8    2
    12     1     5    1
    13     1     2    1
    14     2     4    2
    15     2     3    1
