@<TRIPOS>MOLECULE
/home/cewinharhar/GITHUB/reincatalyze/data/processed/docking_pred/2023-May-31-1727_sub9_nm5_bs15_s42_ex16_mel10_mts10000_k50_ec075_g099_lra3e-4_lrc3e-3/01b08930ea9107c3adfd00eac21895e0e3e1f2d7_ligand_9.pdbqt
 14 15 0 0 0
SMALL
GASTEIGER

@<TRIPOS>ATOM
      1  C          6.2540    0.5410    1.7020 C.3     1  UNL1        0.0800
      2  C          4.9370    1.1930    1.5970 C.2     1  UNL1        0.1300
      3  C          4.7760    2.1500    0.4280 C.3     1  UNL1        0.0870
      4  O          3.9900    1.0580    2.3180 O.2     1  UNL1       -0.3000
      5  C          7.1700    0.7340    0.5570 C.3     1  UNL1        0.0430
      6  C          7.5000   -0.4470   -0.2440 C.2     1  UNL1       -0.0440
      7  C          7.4690   -0.4320   -1.6400 C.2     1  UNL1        0.0080
      8  C          7.8820   -1.6150    0.3750 C.2     1  UNL1        0.0540
      9  C          7.8170   -1.5660   -2.3270 C.2     1  UNL1        0.0510
     10  C          8.2330   -2.7620   -0.3540 C.2     1  UNL1        0.1660
     11  C          8.2020   -2.7460   -1.7310 C.2     1  UNL1        0.1650
     12  O          8.6460   -4.0430   -0.0090 O.2     1  UNL1       -0.4540
     13  O          8.5930   -4.0050   -2.2040 O.2     1  UNL1       -0.4540
     14  C          9.3040   -4.6010   -1.1380 C.3     1  UNL1        0.4680
@<TRIPOS>BOND
     1     9    11    2
     2     9     7    1
     3    13    11    1
     4    13    14    1
     5    11    10    1
     6     7     6    2
     7    14    12    1
     8    10    12    1
     9    10     8    2
    10     6     8    1
    11     6     5    1
    12     3     2    1
    13     5     1    1
    14     2     1    1
    15     2     4    2
