MODEL 1
REMARK VINA RESULT:      -7.6      0.000      0.000
REMARK SMILES CC(=O)CCc1ccc2c(c1)OCO2
REMARK SMILES IDX 4 1 2 2 1 3 3 4 5 5 6 6 7 7 11 8 8 9 10 10 9 11 12 12 14 13
REMARK SMILES IDX 13 14
REMARK H PARENT
REMARK Flexibility Score: inf
ROOT
ATOM      1  C   UNL     1       5.555   1.920   1.214  1.00  0.00     0.080 C 
ENDROOT
BRANCH   1   2
ATOM      2  C   UNL     1       5.040   0.780   1.992  1.00  0.00     0.130 C 
ATOM      3  C   UNL     1       6.014  -0.370   2.183  1.00  0.00     0.087 C 
ATOM      4  O   UNL     1       3.955   0.657   2.487  1.00  0.00    -0.300 OA
ENDBRANCH   1   2
BRANCH   1   5
ATOM      5  C   UNL     1       5.538   1.766  -0.256  1.00  0.00     0.043 C 
BRANCH   5   6
ATOM      6  C   UNL     1       6.637   1.010  -0.864  1.00  0.00    -0.044 A 
ATOM      7  C   UNL     1       7.972   1.384  -0.708  1.00  0.00     0.008 A 
ATOM      8  C   UNL     1       6.370  -0.125  -1.593  1.00  0.00     0.054 A 
ATOM      9  C   UNL     1       8.951   0.615  -1.282  1.00  0.00     0.051 A 
ATOM     10  C   UNL     1       7.392  -0.895  -2.169  1.00  0.00     0.166 A 
ATOM     11  C   UNL     1       8.710  -0.525  -2.017  1.00  0.00     0.165 A 
ATOM     12  O   UNL     1       7.422  -2.055  -2.934  1.00  0.00    -0.454 OA
ATOM     13  O   UNL     1       9.519  -1.455  -2.683  1.00  0.00    -0.454 OA
ATOM     14  C   UNL     1       8.722  -2.613  -2.819  1.00  0.00     0.468 C 
ENDBRANCH   5   6
ENDBRANCH   1   5
TORSDOF 3
ENDMDL
MODEL 2
REMARK VINA RESULT:      -7.0      1.796      2.238
REMARK SMILES CC(=O)CCc1ccc2c(c1)OCO2
REMARK SMILES IDX 4 1 2 2 1 3 3 4 5 5 6 6 7 7 11 8 8 9 10 10 9 11 12 12 14 13
REMARK SMILES IDX 13 14
REMARK H PARENT
REMARK Flexibility Score: inf
ROOT
ATOM      1  C   UNL     1       5.894   1.606  -0.183  1.00  0.00     0.080 C 
ENDROOT
BRANCH   1   2
ATOM      2  C   UNL     1       5.138   1.404   1.066  1.00  0.00     0.130 C 
ATOM      3  C   UNL     1       5.571   0.212   1.903  1.00  0.00     0.087 C 
ATOM      4  O   UNL     1       4.234   2.064   1.493  1.00  0.00    -0.300 OA
ENDBRANCH   1   2
BRANCH   1   5
ATOM      5  C   UNL     1       7.299   1.145  -0.176  1.00  0.00     0.043 C 
BRANCH   5   6
ATOM      6  C   UNL     1       7.580  -0.155  -0.791  1.00  0.00    -0.044 A 
ATOM      7  C   UNL     1       7.577  -0.340  -2.175  1.00  0.00     0.008 A 
ATOM      8  C   UNL     1       7.888  -1.238  -0.001  1.00  0.00     0.054 A 
ATOM      9  C   UNL     1       7.876  -1.578  -2.682  1.00  0.00     0.051 A 
ATOM     10  C   UNL     1       8.191  -2.495  -0.547  1.00  0.00     0.166 A 
ATOM     11  C   UNL     1       8.187  -2.677  -1.912  1.00  0.00     0.165 A 
ATOM     12  O   UNL     1       8.528  -3.731  -0.011  1.00  0.00    -0.454 OA
ATOM     13  O   UNL     1       8.519  -4.010  -2.189  1.00  0.00    -0.454 OA
ATOM     14  C   UNL     1       9.176  -4.479  -1.030  1.00  0.00     0.468 C 
ENDBRANCH   5   6
ENDBRANCH   1   5
TORSDOF 3
ENDMDL
MODEL 3
REMARK VINA RESULT:      -7.0      1.102      1.209
REMARK SMILES CC(=O)CCc1ccc2c(c1)OCO2
REMARK SMILES IDX 4 1 2 2 1 3 3 4 5 5 6 6 7 7 11 8 8 9 10 10 9 11 12 12 14 13
REMARK SMILES IDX 13 14
REMARK H PARENT
REMARK Flexibility Score: inf
ROOT
ATOM      1  C   UNL     1       6.241   1.191   0.876  1.00  0.00     0.080 C 
ENDROOT
BRANCH   1   2
ATOM      2  C   UNL     1       5.560   0.386   1.905  1.00  0.00     0.130 C 
ATOM      3  C   UNL     1       6.322  -0.839   2.382  1.00  0.00     0.087 C 
ATOM      4  O   UNL     1       4.488   0.583   2.404  1.00  0.00    -0.300 OA
ENDBRANCH   1   2
BRANCH   1   5
ATOM      5  C   UNL     1       5.897   0.880  -0.528  1.00  0.00     0.043 C 
BRANCH   5   6
ATOM      6  C   UNL     1       6.872   0.107  -1.301  1.00  0.00    -0.044 A 
ATOM      7  C   UNL     1       7.802   0.716  -2.146  1.00  0.00     0.008 A 
ATOM      8  C   UNL     1       6.911  -1.263  -1.188  1.00  0.00     0.054 A 
ATOM      9  C   UNL     1       8.704  -0.068  -2.819  1.00  0.00     0.051 A 
ATOM     10  C   UNL     1       7.846  -2.041  -1.888  1.00  0.00     0.166 A 
ATOM     11  C   UNL     1       8.763  -1.440  -2.722  1.00  0.00     0.165 A 
ATOM     12  O   UNL     1       8.113  -3.402  -1.967  1.00  0.00    -0.454 OA
ATOM     13  O   UNL     1       9.570  -2.433  -3.293  1.00  0.00    -0.454 OA
ATOM     14  C   UNL     1       9.443  -3.553  -2.441  1.00  0.00     0.468 C 
ENDBRANCH   5   6
ENDBRANCH   1   5
TORSDOF 3
ENDMDL
MODEL 4
REMARK VINA RESULT:      -6.7      1.154      1.654
REMARK SMILES CC(=O)CCc1ccc2c(c1)OCO2
REMARK SMILES IDX 4 1 2 2 1 3 3 4 5 5 6 6 7 7 11 8 8 9 10 10 9 11 12 12 14 13
REMARK SMILES IDX 13 14
REMARK H PARENT
REMARK Flexibility Score: inf
ROOT
ATOM      1  C   UNL     1       5.356  -0.069   1.964  1.00  0.00     0.080 C 
ENDROOT
BRANCH   1   2
ATOM      2  C   UNL     1       4.417   1.064   1.882  1.00  0.00     0.130 C 
ATOM      3  C   UNL     1       4.747   2.106   0.827  1.00  0.00     0.087 C 
ATOM      4  O   UNL     1       3.435   1.255   2.542  1.00  0.00    -0.300 OA
ENDBRANCH   1   2
BRANCH   1   5
ATOM      5  C   UNL     1       6.779   0.244   1.716  1.00  0.00     0.043 C 
BRANCH   5   6
ATOM      6  C   UNL     1       7.313  -0.075   0.389  1.00  0.00    -0.044 A 
ATOM      7  C   UNL     1       7.713   0.916  -0.510  1.00  0.00     0.008 A 
ATOM      8  C   UNL     1       7.462  -1.387   0.004  1.00  0.00     0.054 A 
ATOM      9  C   UNL     1       8.230   0.544  -1.724  1.00  0.00     0.051 A 
ATOM     10  C   UNL     1       7.995  -1.739  -1.246  1.00  0.00     0.166 A 
ATOM     11  C   UNL     1       8.389  -0.762  -2.133  1.00  0.00     0.165 A 
ATOM     12  O   UNL     1       8.254  -2.944  -1.886  1.00  0.00    -0.454 OA
ATOM     13  O   UNL     1       8.879  -1.377  -3.292  1.00  0.00    -0.454 OA
ATOM     14  C   UNL     1       9.214  -2.693  -2.902  1.00  0.00     0.468 C 
ENDBRANCH   5   6
ENDBRANCH   1   5
TORSDOF 3
ENDMDL
MODEL 5
REMARK VINA RESULT:      -6.6      1.917      2.437
REMARK SMILES CC(=O)CCc1ccc2c(c1)OCO2
REMARK SMILES IDX 4 1 2 2 1 3 3 4 5 5 6 6 7 7 11 8 8 9 10 10 9 11 12 12 14 13
REMARK SMILES IDX 13 14
REMARK H PARENT
REMARK Flexibility Score: inf
ROOT
ATOM      1  C   UNL     1       6.254   0.541   1.702  1.00  0.00     0.080 C 
ENDROOT
BRANCH   1   2
ATOM      2  C   UNL     1       4.937   1.193   1.597  1.00  0.00     0.130 C 
ATOM      3  C   UNL     1       4.776   2.150   0.428  1.00  0.00     0.087 C 
ATOM      4  O   UNL     1       3.990   1.058   2.318  1.00  0.00    -0.300 OA
ENDBRANCH   1   2
BRANCH   1   5
ATOM      5  C   UNL     1       7.170   0.734   0.557  1.00  0.00     0.043 C 
BRANCH   5   6
ATOM      6  C   UNL     1       7.500  -0.447  -0.244  1.00  0.00    -0.044 A 
ATOM      7  C   UNL     1       7.469  -0.432  -1.640  1.00  0.00     0.008 A 
ATOM      8  C   UNL     1       7.882  -1.615   0.375  1.00  0.00     0.054 A 
ATOM      9  C   UNL     1       7.817  -1.566  -2.327  1.00  0.00     0.051 A 
ATOM     10  C   UNL     1       8.233  -2.762  -0.354  1.00  0.00     0.166 A 
ATOM     11  C   UNL     1       8.202  -2.746  -1.731  1.00  0.00     0.165 A 
ATOM     12  O   UNL     1       8.646  -4.043  -0.009  1.00  0.00    -0.454 OA
ATOM     13  O   UNL     1       8.593  -4.005  -2.204  1.00  0.00    -0.454 OA
ATOM     14  C   UNL     1       9.304  -4.601  -1.138  1.00  0.00     0.468 C 
ENDBRANCH   5   6
ENDBRANCH   1   5
TORSDOF 3
ENDMDL
