@<TRIPOS>MOLECULE
/home/cewinharhar/GITHUB/reincatalyze/data/processed/docking_pred/2023-May-31-1727_sub9_nm5_bs15_s42_ex16_mel10_mts10000_k50_ec075_g099_lra3e-4_lrc3e-3/01b08930ea9107c3adfd00eac21895e0e3e1f2d7_ligand_9.pdbqt
 14 15 0 0 0
SMALL
GASTEIGER

@<TRIPOS>ATOM
      1  C          5.3560   -0.0690    1.9640 C.3     1  UNL1        0.0800
      2  C          4.4170    1.0640    1.8820 C.2     1  UNL1        0.1300
      3  C          4.7470    2.1060    0.8270 C.3     1  UNL1        0.0870
      4  O          3.4350    1.2550    2.5420 O.2     1  UNL1       -0.3000
      5  C          6.7790    0.2440    1.7160 C.3     1  UNL1        0.0430
      6  C          7.3130   -0.0750    0.3890 C.2     1  UNL1       -0.0440
      7  C          7.7130    0.9160   -0.5100 C.2     1  UNL1        0.0080
      8  C          7.4620   -1.3870    0.0040 C.2     1  UNL1        0.0540
      9  C          8.2300    0.5440   -1.7240 C.2     1  UNL1        0.0510
     10  C          7.9950   -1.7390   -1.2460 C.2     1  UNL1        0.1660
     11  C          8.3890   -0.7620   -2.1330 C.2     1  UNL1        0.1650
     12  O          8.2540   -2.9440   -1.8860 O.2     1  UNL1       -0.4540
     13  O          8.8790   -1.3770   -3.2920 O.2     1  UNL1       -0.4540
     14  C          9.2140   -2.6930   -2.9020 C.3     1  UNL1        0.4680
@<TRIPOS>BOND
     1    13    14    1
     2    13    11    1
     3    14    12    1
     4    11     9    2
     5    11    10    1
     6    12    10    1
     7     9     7    1
     8    10     8    2
     9     7     6    2
    10     8     6    1
    11     6     5    1
    12     3     2    1
    13     5     1    1
    14     2     1    1
    15     2     4    2
