@<TRIPOS>MOLECULE
/home/cewinharhar/GITHUB/reincatalyze/data/processed/docking_pred/2023-May-31-1727_sub9_nm5_bs15_s42_ex16_mel10_mts10000_k50_ec075_g099_lra3e-4_lrc3e-3/01b08930ea9107c3adfd00eac21895e0e3e1f2d7_ligand_9.pdbqt
 14 15 0 0 0
SMALL
GASTEIGER

@<TRIPOS>ATOM
      1  C          5.5550    1.9200    1.2140 C.3     1  UNL1        0.0800
      2  C          5.0400    0.7800    1.9920 C.2     1  UNL1        0.1300
      3  C          6.0140   -0.3700    2.1830 C.3     1  UNL1        0.0870
      4  O          3.9550    0.6570    2.4870 O.2     1  UNL1       -0.3000
      5  C          5.5380    1.7660   -0.2560 C.3     1  UNL1        0.0430
      6  C          6.6370    1.0100   -0.8640 C.2     1  UNL1       -0.0440
      7  C          7.9720    1.3840   -0.7080 C.2     1  UNL1        0.0080
      8  C          6.3700   -0.1250   -1.5930 C.2     1  UNL1        0.0540
      9  C          8.9510    0.6150   -1.2820 C.2     1  UNL1        0.0510
     10  C          7.3920   -0.8950   -2.1690 C.2     1  UNL1        0.1660
     11  C          8.7100   -0.5250   -2.0170 C.2     1  UNL1        0.1650
     12  O          7.4220   -2.0550   -2.9340 O.2     1  UNL1       -0.4540
     13  O          9.5190   -1.4550   -2.6830 O.2     1  UNL1       -0.4540
     14  C          8.7220   -2.6130   -2.8190 C.3     1  UNL1        0.4680
@<TRIPOS>BOND
     1    12    14    1
     2    12    10    1
     3    14    13    1
     4    13    11    1
     5    10    11    2
     6    10     8    1
     7    11     9    1
     8     8     6    2
     9     9     7    2
    10     6     7    1
    11     6     5    1
    12     5     1    1
    13     1     2    1
    14     2     3    1
    15     2     4    2
