@<TRIPOS>MOLECULE
/home/cewinharhar/GITHUB/reincatalyze/data/processed/docking_pred/2023-May-31-1727_sub9_nm5_bs15_s42_ex16_mel10_mts10000_k50_ec075_g099_lra3e-4_lrc3e-3/01b08930ea9107c3adfd00eac21895e0e3e1f2d7_ligand_9.pdbqt
 14 15 0 0 0
SMALL
GASTEIGER

@<TRIPOS>ATOM
      1  C          6.2410    1.1910    0.8760 C.3     1  UNL1        0.0800
      2  C          5.5600    0.3860    1.9050 C.2     1  UNL1        0.1300
      3  C          6.3220   -0.8390    2.3820 C.3     1  UNL1        0.0870
      4  O          4.4880    0.5830    2.4040 O.2     1  UNL1       -0.3000
      5  C          5.8970    0.8800   -0.5280 C.3     1  UNL1        0.0430
      6  C          6.8720    0.1070   -1.3010 C.2     1  UNL1       -0.0440
      7  C          7.8020    0.7160   -2.1460 C.2     1  UNL1        0.0080
      8  C          6.9110   -1.2630   -1.1880 C.2     1  UNL1        0.0540
      9  C          8.7040   -0.0680   -2.8190 C.2     1  UNL1        0.0510
     10  C          7.8460   -2.0410   -1.8880 C.2     1  UNL1        0.1660
     11  C          8.7630   -1.4400   -2.7220 C.2     1  UNL1        0.1650
     12  O          8.1130   -3.4020   -1.9670 O.2     1  UNL1       -0.4540
     13  O          9.5700   -2.4330   -3.2930 O.2     1  UNL1       -0.4540
     14  C          9.4430   -3.5530   -2.4410 C.3     1  UNL1        0.4680
@<TRIPOS>BOND
     1    13    11    1
     2    13    14    1
     3     9    11    2
     4     9     7    1
     5    11    10    1
     6    14    12    1
     7     7     6    2
     8    12    10    1
     9    10     8    2
    10     6     8    1
    11     6     5    1
    12     5     1    1
    13     1     2    1
    14     2     3    1
    15     2     4    2
