@<TRIPOS>MOLECULE
/home/cewinharhar/GITHUB/reincatalyze/data/processed/docking_pred/2023-May-31-1727_sub9_nm5_bs15_s42_ex16_mel10_mts10000_k50_ec075_g099_lra3e-4_lrc3e-3/01f25cbd7413d58f388abe94d9cfceb48e05f66f_ligand_9.pdbqt
 14 15 0 0 0
SMALL
GASTEIGER

@<TRIPOS>ATOM
      1  C          5.3350   -0.0520    1.9870 C.3     1  UNL1        0.0800
      2  C          4.3810    1.0650    1.8630 C.2     1  UNL1        0.1300
      3  C          4.6990    2.0730    0.7710 C.3     1  UNL1        0.0870
      4  O          3.3960    1.2670    2.5140 O.2     1  UNL1       -0.3000
      5  C          6.7590    0.2810    1.7780 C.3     1  UNL1        0.0430
      6  C          7.3290   -0.0090    0.4590 C.2     1  UNL1       -0.0440
      7  C          7.9350    0.9750   -0.3230 C.2     1  UNL1        0.0080
      8  C          7.3020   -1.2930   -0.0350 C.2     1  UNL1        0.0540
      9  C          8.4720    0.6270   -1.5350 C.2     1  UNL1        0.0510
     10  C          7.8590   -1.6220   -1.2800 C.2     1  UNL1        0.1660
     11  C          8.4570   -0.6500   -2.0520 C.2     1  UNL1        0.1650
     12  O          7.9750   -2.7970   -2.0130 O.2     1  UNL1       -0.4540
     13  O          8.9260   -1.2390   -3.2330 O.2     1  UNL1       -0.4540
     14  C          9.0300   -2.6180   -2.9470 C.3     1  UNL1        0.4680
@<TRIPOS>BOND
     1    13    14    1
     2    13    11    1
     3    14    12    1
     4    11     9    2
     5    11    10    1
     6    12    10    1
     7     9     7    1
     8    10     8    2
     9     7     6    2
    10     8     6    1
    11     6     5    1
    12     3     2    1
    13     5     1    1
    14     2     1    1
    15     2     4    2
