@<TRIPOS>MOLECULE
/home/cewinharhar/GITHUB/reincatalyze/data/processed/docking_pred/2023-May-31-1727_sub9_nm5_bs15_s42_ex16_mel10_mts10000_k50_ec075_g099_lra3e-4_lrc3e-3/01f25cbd7413d58f388abe94d9cfceb48e05f66f_ligand_9.pdbqt
 14 15 0 0 0
SMALL
GASTEIGER

@<TRIPOS>ATOM
      1  C          6.2560    1.1390    0.8540 C.3     1  UNL1        0.0800
      2  C          5.5630    0.3730    1.9060 C.2     1  UNL1        0.1300
      3  C          6.3330   -0.8140    2.4590 C.3     1  UNL1        0.0870
      4  O          4.4770    0.5760    2.3690 O.2     1  UNL1       -0.3000
      5  C          5.8800    0.8190   -0.5390 C.3     1  UNL1        0.0430
      6  C          6.8380    0.0410   -1.3300 C.2     1  UNL1       -0.0440
      7  C          7.6430    0.6260   -2.3090 C.2     1  UNL1        0.0080
      8  C          6.9870   -1.3070   -1.1000 C.2     1  UNL1        0.0540
      9  C          8.5370   -0.1570   -2.9920 C.2     1  UNL1        0.0510
     10  C          7.9100   -2.0850   -1.8150 C.2     1  UNL1        0.1660
     11  C          8.7040   -1.5080   -2.7810 C.2     1  UNL1        0.1650
     12  O          8.2690   -3.4270   -1.7980 O.2     1  UNL1       -0.4540
     13  O          9.5290   -2.4950   -3.3360 O.2     1  UNL1       -0.4540
     14  C          9.5590   -3.5350   -2.3800 C.3     1  UNL1        0.4680
@<TRIPOS>BOND
     1    13    11    1
     2    13    14    1
     3     9    11    2
     4     9     7    1
     5    11    10    1
     6    14    12    1
     7     7     6    2
     8    10    12    1
     9    10     8    2
    10     6     8    1
    11     6     5    1
    12     5     1    1
    13     1     2    1
    14     2     4    2
    15     2     3    1
