@<TRIPOS>MOLECULE
/home/cewinharhar/GITHUB/reincatalyze/data/processed/docking_pred/2023-May-31-1727_sub9_nm5_bs15_s42_ex16_mel10_mts10000_k50_ec075_g099_lra3e-4_lrc3e-3/01f25cbd7413d58f388abe94d9cfceb48e05f66f_ligand_9.pdbqt
 14 15 0 0 0
SMALL
GASTEIGER

@<TRIPOS>ATOM
      1  C          5.7120    1.2710   -0.2630 C.3     1  UNL1        0.0800
      2  C          5.0170    1.2620    1.0370 C.2     1  UNL1        0.1300
      3  C          5.3010    0.0570    1.9180 C.3     1  UNL1        0.0870
      4  O          4.2640    2.0860    1.4740 O.2     1  UNL1       -0.3000
      5  C          7.1530    0.9440   -0.2340 C.3     1  UNL1        0.0430
      6  C          7.5650   -0.3230   -0.8420 C.2     1  UNL1       -0.0440
      7  C          7.7480   -0.4630   -2.2190 C.2     1  UNL1        0.0080
      8  C          7.8140   -1.4190   -0.0490 C.2     1  UNL1        0.0540
      9  C          8.1610   -1.6710   -2.7180 C.2     1  UNL1        0.0510
     10  C          8.2370   -2.6450   -0.5860 C.2     1  UNL1        0.1660
     11  C          8.4160   -2.7830   -1.9450 C.2     1  UNL1        0.1650
     12  O          8.5540   -3.8850   -0.0460 O.2     1  UNL1       -0.4540
     13  O          8.8370   -4.0920   -2.2130 O.2     1  UNL1       -0.4540
     14  C          9.3590   -4.5740   -0.9920 C.3     1  UNL1        0.4680
@<TRIPOS>BOND
     1     9     7    1
     2     9    11    2
     3     7     6    2
     4    13    11    1
     5    13    14    1
     6    11    10    1
     7    14    12    1
     8     6     5    1
     9     6     8    1
    10    10     8    2
    11    10    12    1
    12     1     5    1
    13     1     2    1
    14     2     4    2
    15     2     3    1
