MODEL 1
REMARK VINA RESULT:      -7.6      0.000      0.000
REMARK SMILES CC(=O)CCc1ccc2c(c1)OCO2
REMARK SMILES IDX 4 1 2 2 1 3 3 4 5 5 6 6 7 7 11 8 8 9 10 10 9 11 12 12 14 13
REMARK SMILES IDX 13 14
REMARK H PARENT
REMARK Flexibility Score: inf
ROOT
ATOM      1  C   UNL     1       5.591   1.871   1.256  1.00  0.00     0.080 C 
ENDROOT
BRANCH   1   2
ATOM      2  C   UNL     1       5.000   0.741   1.994  1.00  0.00     0.130 C 
ATOM      3  C   UNL     1       5.900  -0.473   2.156  1.00  0.00     0.087 C 
ATOM      4  O   UNL     1       3.905   0.669   2.476  1.00  0.00    -0.300 OA
ENDBRANCH   1   2
BRANCH   1   5
ATOM      5  C   UNL     1       5.586   1.761  -0.218  1.00  0.00     0.043 C 
BRANCH   5   6
ATOM      6  C   UNL     1       6.671   0.996  -0.837  1.00  0.00    -0.044 A 
ATOM      7  C   UNL     1       8.012   1.361  -0.699  1.00  0.00     0.008 A 
ATOM      8  C   UNL     1       6.388  -0.140  -1.560  1.00  0.00     0.054 A 
ATOM      9  C   UNL     1       8.978   0.583  -1.283  1.00  0.00     0.051 A 
ATOM     10  C   UNL     1       7.398  -0.918  -2.147  1.00  0.00     0.166 A 
ATOM     11  C   UNL     1       8.720  -0.557  -2.012  1.00  0.00     0.165 A 
ATOM     12  O   UNL     1       7.409  -2.079  -2.910  1.00  0.00    -0.454 OA
ATOM     13  O   UNL     1       9.514  -1.494  -2.686  1.00  0.00    -0.454 OA
ATOM     14  C   UNL     1       8.707  -2.647  -2.809  1.00  0.00     0.468 C 
ENDBRANCH   5   6
ENDBRANCH   1   5
TORSDOF 3
ENDMDL
MODEL 2
REMARK VINA RESULT:      -7.0      1.822      2.262
REMARK SMILES CC(=O)CCc1ccc2c(c1)OCO2
REMARK SMILES IDX 4 1 2 2 1 3 3 4 5 5 6 6 7 7 11 8 8 9 10 10 9 11 12 12 14 13
REMARK SMILES IDX 13 14
REMARK H PARENT
REMARK Flexibility Score: inf
ROOT
ATOM      1  C   UNL     1       5.712   1.271  -0.263  1.00  0.00     0.080 C 
ENDROOT
BRANCH   1   2
ATOM      2  C   UNL     1       5.017   1.262   1.037  1.00  0.00     0.130 C 
ATOM      3  C   UNL     1       5.301   0.057   1.918  1.00  0.00     0.087 C 
ATOM      4  O   UNL     1       4.264   2.086   1.474  1.00  0.00    -0.300 OA
ENDBRANCH   1   2
BRANCH   1   5
ATOM      5  C   UNL     1       7.153   0.944  -0.234  1.00  0.00     0.043 C 
BRANCH   5   6
ATOM      6  C   UNL     1       7.565  -0.323  -0.842  1.00  0.00    -0.044 A 
ATOM      7  C   UNL     1       7.748  -0.463  -2.219  1.00  0.00     0.008 A 
ATOM      8  C   UNL     1       7.814  -1.419  -0.049  1.00  0.00     0.054 A 
ATOM      9  C   UNL     1       8.161  -1.671  -2.718  1.00  0.00     0.051 A 
ATOM     10  C   UNL     1       8.237  -2.645  -0.586  1.00  0.00     0.166 A 
ATOM     11  C   UNL     1       8.416  -2.783  -1.945  1.00  0.00     0.165 A 
ATOM     12  O   UNL     1       8.554  -3.885  -0.046  1.00  0.00    -0.454 OA
ATOM     13  O   UNL     1       8.837  -4.092  -2.213  1.00  0.00    -0.454 OA
ATOM     14  C   UNL     1       9.359  -4.574  -0.992  1.00  0.00     0.468 C 
ENDBRANCH   5   6
ENDBRANCH   1   5
TORSDOF 3
ENDMDL
MODEL 3
REMARK VINA RESULT:      -6.9      1.083      1.582
REMARK SMILES CC(=O)CCc1ccc2c(c1)OCO2
REMARK SMILES IDX 4 1 2 2 1 3 3 4 5 5 6 6 7 7 11 8 8 9 10 10 9 11 12 12 14 13
REMARK SMILES IDX 13 14
REMARK H PARENT
REMARK Flexibility Score: inf
ROOT
ATOM      1  C   UNL     1       5.335  -0.052   1.987  1.00  0.00     0.080 C 
ENDROOT
BRANCH   1   2
ATOM      2  C   UNL     1       4.381   1.065   1.863  1.00  0.00     0.130 C 
ATOM      3  C   UNL     1       4.699   2.073   0.771  1.00  0.00     0.087 C 
ATOM      4  O   UNL     1       3.396   1.267   2.514  1.00  0.00    -0.300 OA
ENDBRANCH   1   2
BRANCH   1   5
ATOM      5  C   UNL     1       6.759   0.281   1.778  1.00  0.00     0.043 C 
BRANCH   5   6
ATOM      6  C   UNL     1       7.329  -0.009   0.459  1.00  0.00    -0.044 A 
ATOM      7  C   UNL     1       7.935   0.975  -0.323  1.00  0.00     0.008 A 
ATOM      8  C   UNL     1       7.302  -1.293  -0.035  1.00  0.00     0.054 A 
ATOM      9  C   UNL     1       8.472   0.627  -1.535  1.00  0.00     0.051 A 
ATOM     10  C   UNL     1       7.859  -1.622  -1.280  1.00  0.00     0.166 A 
ATOM     11  C   UNL     1       8.457  -0.650  -2.052  1.00  0.00     0.165 A 
ATOM     12  O   UNL     1       7.975  -2.797  -2.013  1.00  0.00    -0.454 OA
ATOM     13  O   UNL     1       8.926  -1.239  -3.233  1.00  0.00    -0.454 OA
ATOM     14  C   UNL     1       9.030  -2.618  -2.947  1.00  0.00     0.468 C 
ENDBRANCH   5   6
ENDBRANCH   1   5
TORSDOF 3
ENDMDL
MODEL 4
REMARK VINA RESULT:      -6.8      1.185      1.299
REMARK SMILES CC(=O)CCc1ccc2c(c1)OCO2
REMARK SMILES IDX 4 1 2 2 1 3 3 4 5 5 6 6 7 7 11 8 8 9 10 10 9 11 12 12 14 13
REMARK SMILES IDX 13 14
REMARK H PARENT
REMARK Flexibility Score: inf
ROOT
ATOM      1  C   UNL     1       6.256   1.139   0.854  1.00  0.00     0.080 C 
ENDROOT
BRANCH   1   2
ATOM      2  C   UNL     1       5.563   0.373   1.906  1.00  0.00     0.130 C 
ATOM      3  C   UNL     1       6.333  -0.814   2.459  1.00  0.00     0.087 C 
ATOM      4  O   UNL     1       4.477   0.576   2.369  1.00  0.00    -0.300 OA
ENDBRANCH   1   2
BRANCH   1   5
ATOM      5  C   UNL     1       5.880   0.819  -0.539  1.00  0.00     0.043 C 
BRANCH   5   6
ATOM      6  C   UNL     1       6.838   0.041  -1.330  1.00  0.00    -0.044 A 
ATOM      7  C   UNL     1       7.643   0.626  -2.309  1.00  0.00     0.008 A 
ATOM      8  C   UNL     1       6.987  -1.307  -1.100  1.00  0.00     0.054 A 
ATOM      9  C   UNL     1       8.537  -0.157  -2.992  1.00  0.00     0.051 A 
ATOM     10  C   UNL     1       7.910  -2.085  -1.815  1.00  0.00     0.166 A 
ATOM     11  C   UNL     1       8.704  -1.508  -2.781  1.00  0.00     0.165 A 
ATOM     12  O   UNL     1       8.269  -3.427  -1.798  1.00  0.00    -0.454 OA
ATOM     13  O   UNL     1       9.529  -2.495  -3.336  1.00  0.00    -0.454 OA
ATOM     14  C   UNL     1       9.559  -3.535  -2.380  1.00  0.00     0.468 C 
ENDBRANCH   5   6
ENDBRANCH   1   5
TORSDOF 3
ENDMDL
MODEL 5
REMARK VINA RESULT:      -6.8      1.926      2.513
REMARK SMILES CC(=O)CCc1ccc2c(c1)OCO2
REMARK SMILES IDX 4 1 2 2 1 3 3 4 5 5 6 6 7 7 11 8 8 9 10 10 9 11 12 12 14 13
REMARK SMILES IDX 13 14
REMARK H PARENT
REMARK Flexibility Score: inf
ROOT
ATOM      1  C   UNL     1       5.434  -0.099   2.034  1.00  0.00     0.080 C 
ENDROOT
BRANCH   1   2
ATOM      2  C   UNL     1       4.522   1.041   1.832  1.00  0.00     0.130 C 
ATOM      3  C   UNL     1       4.909   1.992   0.712  1.00  0.00     0.087 C 
ATOM      4  O   UNL     1       3.523   1.300   2.440  1.00  0.00    -0.300 OA
ENDBRANCH   1   2
BRANCH   1   5
ATOM      5  C   UNL     1       6.810   0.067   1.519  1.00  0.00     0.043 C 
BRANCH   5   6
ATOM      6  C   UNL     1       7.246  -0.851   0.464  1.00  0.00    -0.044 A 
ATOM      7  C   UNL     1       7.192  -0.508  -0.889  1.00  0.00     0.008 A 
ATOM      8  C   UNL     1       7.754  -2.086   0.792  1.00  0.00     0.054 A 
ATOM      9  C   UNL     1       7.643  -1.406  -1.822  1.00  0.00     0.051 A 
ATOM     10  C   UNL     1       8.209  -2.985  -0.184  1.00  0.00     0.166 A 
ATOM     11  C   UNL     1       8.156  -2.648  -1.519  1.00  0.00     0.165 A 
ATOM     12  O   UNL     1       8.756  -4.262  -0.150  1.00  0.00    -0.454 OA
ATOM     13  O   UNL     1       8.666  -3.712  -2.273  1.00  0.00    -0.454 OA
ATOM     14  C   UNL     1       9.449  -4.467  -1.372  1.00  0.00     0.468 C 
ENDBRANCH   5   6
ENDBRANCH   1   5
TORSDOF 3
ENDMDL
