@<TRIPOS>MOLECULE
/home/cewinharhar/GITHUB/reincatalyze/data/processed/docking_pred/2023-May-31-1727_sub9_nm5_bs15_s42_ex16_mel10_mts10000_k50_ec075_g099_lra3e-4_lrc3e-3/01f25cbd7413d58f388abe94d9cfceb48e05f66f_ligand_9.pdbqt
 14 15 0 0 0
SMALL
GASTEIGER

@<TRIPOS>ATOM
      1  C          5.4340   -0.0990    2.0340 C.3     1  UNL1        0.0800
      2  C          4.5220    1.0410    1.8320 C.2     1  UNL1        0.1300
      3  C          4.9090    1.9920    0.7120 C.3     1  UNL1        0.0870
      4  O          3.5230    1.3000    2.4400 O.2     1  UNL1       -0.3000
      5  C          6.8100    0.0670    1.5190 C.3     1  UNL1        0.0430
      6  C          7.2460   -0.8510    0.4640 C.2     1  UNL1       -0.0440
      7  C          7.1920   -0.5080   -0.8890 C.2     1  UNL1        0.0080
      8  C          7.7540   -2.0860    0.7920 C.2     1  UNL1        0.0540
      9  C          7.6430   -1.4060   -1.8220 C.2     1  UNL1        0.0510
     10  C          8.2090   -2.9850   -0.1840 C.2     1  UNL1        0.1660
     11  C          8.1560   -2.6480   -1.5190 C.2     1  UNL1        0.1650
     12  O          8.7560   -4.2620   -0.1500 O.2     1  UNL1       -0.4540
     13  O          8.6660   -3.7120   -2.2730 O.2     1  UNL1       -0.4540
     14  C          9.4490   -4.4670   -1.3720 C.3     1  UNL1        0.4680
@<TRIPOS>BOND
     1    13    11    1
     2    13    14    1
     3     9    11    2
     4     9     7    1
     5    11    10    1
     6    14    12    1
     7     7     6    2
     8    10    12    1
     9    10     8    2
    10     6     8    1
    11     6     5    1
    12     3     2    1
    13     5     1    1
    14     2     1    1
    15     2     4    2
