@<TRIPOS>MOLECULE
/home/cewinharhar/GITHUB/reincatalyze/data/processed/docking_pred/2023-May-31-1727_sub9_nm5_bs15_s42_ex16_mel10_mts10000_k50_ec075_g099_lra3e-4_lrc3e-3/02381cbfeedb5f98de7c9f38a4017f955763d16c_ligand_9.pdbqt
 14 15 0 0 0
SMALL
GASTEIGER

@<TRIPOS>ATOM
      1  C          5.9710    0.2020    1.9820 C.3     1  UNL1        0.0800
      2  C          4.8430    1.1040    1.6870 C.2     1  UNL1        0.1300
      3  C          5.0250    1.9960    0.4710 C.3     1  UNL1        0.0870
      4  O          3.8120    1.2130    2.2870 O.2     1  UNL1       -0.3000
      5  C          7.1940    0.4040    1.1780 C.3     1  UNL1        0.0430
      6  C          7.5300   -0.6320    0.1970 C.2     1  UNL1       -0.0440
      7  C          7.5020   -0.3920   -1.1780 C.2     1  UNL1        0.0080
      8  C          7.9150   -1.8820    0.6210 C.2     1  UNL1        0.0540
      9  C          7.8550   -1.4000   -2.0370 C.2     1  UNL1        0.0510
     10  C          8.2720   -2.8960   -0.2810 C.2     1  UNL1        0.1660
     11  C          8.2430   -2.6590   -1.6380 C.2     1  UNL1        0.1650
     12  O          8.6890   -4.2150   -0.1460 O.2     1  UNL1       -0.4540
     13  O          8.6400   -3.8250   -2.3060 O.2     1  UNL1       -0.4540
     14  C          9.3500   -4.5820   -1.3480 C.3     1  UNL1        0.4680
@<TRIPOS>BOND
     1    13    11    1
     2    13    14    1
     3     9    11    2
     4     9     7    1
     5    11    10    1
     6    14    12    1
     7     7     6    2
     8    10    12    1
     9    10     8    2
    10     6     8    1
    11     6     5    1
    12     3     2    1
    13     5     1    1
    14     2     1    1
    15     2     4    2
