@<TRIPOS>MOLECULE
/home/cewinharhar/GITHUB/reincatalyze/data/processed/docking_pred/2023-May-31-1727_sub9_nm5_bs15_s42_ex16_mel10_mts10000_k50_ec075_g099_lra3e-4_lrc3e-3/02381cbfeedb5f98de7c9f38a4017f955763d16c_ligand_9.pdbqt
 14 15 0 0 0
SMALL
GASTEIGER

@<TRIPOS>ATOM
      1  C          5.6090    1.8710    1.2410 C.3     1  UNL1        0.0800
      2  C          5.0460    0.7490    2.0140 C.2     1  UNL1        0.1300
      3  C          5.9780   -0.4330    2.2170 C.3     1  UNL1        0.0870
      4  O          3.9510    0.6640    2.4940 O.2     1  UNL1       -0.3000
      5  C          5.5820    1.7280   -0.2300 C.3     1  UNL1        0.0430
      6  C          6.6750    0.9730   -0.8500 C.2     1  UNL1       -0.0440
      7  C          8.0120    1.3500   -0.7120 C.2     1  UNL1        0.0080
      8  C          6.4020   -0.1640   -1.5740 C.2     1  UNL1        0.0540
      9  C          8.9840    0.5810   -1.2960 C.2     1  UNL1        0.0510
     10  C          7.4180   -0.9330   -2.1620 C.2     1  UNL1        0.1660
     11  C          8.7370   -0.5600   -2.0260 C.2     1  UNL1        0.1650
     12  O          7.4400   -2.0930   -2.9260 O.2     1  UNL1       -0.4540
     13  O          9.5390   -1.4890   -2.7020 O.2     1  UNL1       -0.4540
     14  C          8.7420   -2.6490   -2.8260 C.3     1  UNL1        0.4680
@<TRIPOS>BOND
     1    12    14    1
     2    12    10    1
     3    14    13    1
     4    13    11    1
     5    10    11    2
     6    10     8    1
     7    11     9    1
     8     8     6    2
     9     9     7    2
    10     6     7    1
    11     6     5    1
    12     5     1    1
    13     1     2    1
    14     2     3    1
    15     2     4    2
