@<TRIPOS>MOLECULE
/home/cewinharhar/GITHUB/reincatalyze/data/processed/docking_pred/2023-May-31-1727_sub9_nm5_bs15_s42_ex16_mel10_mts10000_k50_ec075_g099_lra3e-4_lrc3e-3/0310d41f91ab2de901a6698b161cc991790b6b4b_ligand_9.pdbqt
 14 15 0 0 0
SMALL
GASTEIGER

@<TRIPOS>ATOM
      1  C          5.3440   -0.0300    1.9530 C.3     1  UNL1        0.0800
      2  C          4.3960    1.0940    1.8490 C.2     1  UNL1        0.1300
      3  C          4.7310    2.1300    0.7890 C.3     1  UNL1        0.0870
      4  O          3.4050    1.2830    2.4950 O.2     1  UNL1       -0.3000
      5  C          6.7690    0.2960    1.7360 C.3     1  UNL1        0.0430
      6  C          7.3310   -0.0040    0.4160 C.2     1  UNL1       -0.0440
      7  C          7.9130    0.9800   -0.3860 C.2     1  UNL1        0.0080
      8  C          7.3220   -1.2950   -0.0590 C.2     1  UNL1        0.0540
      9  C          8.4440    0.6230   -1.5980 C.2     1  UNL1        0.0510
     10  C          7.8740   -1.6320   -1.3040 C.2     1  UNL1        0.1660
     11  C          8.4470   -0.6610   -2.0960 C.2     1  UNL1        0.1650
     12  O          8.0040   -2.8150   -2.0210 O.2     1  UNL1       -0.4540
     13  O          8.9160   -1.2590   -3.2730 O.2     1  UNL1       -0.4540
     14  C          9.0460   -2.6320   -2.9680 C.3     1  UNL1        0.4680
@<TRIPOS>BOND
     1    13    14    1
     2    13    11    1
     3    14    12    1
     4    11     9    2
     5    11    10    1
     6    12    10    1
     7     9     7    1
     8    10     8    2
     9     7     6    2
    10     8     6    1
    11     6     5    1
    12     3     2    1
    13     5     1    1
    14     2     1    1
    15     2     4    2
