MODEL 1
REMARK VINA RESULT:      -7.6      0.000      0.000
REMARK SMILES CC(=O)CCc1ccc2c(c1)OCO2
REMARK SMILES IDX 4 1 2 2 1 3 3 4 5 5 6 6 7 7 11 8 8 9 10 10 9 11 12 12 14 13
REMARK SMILES IDX 13 14
REMARK H PARENT
REMARK Flexibility Score: inf
ROOT
ATOM      1  C   UNL     1       5.568   1.887   1.231  1.00  0.00     0.080 C 
ENDROOT
BRANCH   1   2
ATOM      2  C   UNL     1       5.043   0.749   2.008  1.00  0.00     0.130 C 
ATOM      3  C   UNL     1       5.998  -0.421   2.172  1.00  0.00     0.087 C 
ATOM      4  O   UNL     1       3.965   0.643   2.519  1.00  0.00    -0.300 OA
ENDBRANCH   1   2
BRANCH   1   5
ATOM      5  C   UNL     1       5.549   1.736  -0.239  1.00  0.00     0.043 C 
BRANCH   5   6
ATOM      6  C   UNL     1       6.651   0.989  -0.851  1.00  0.00    -0.044 A 
ATOM      7  C   UNL     1       7.987   1.353  -0.671  1.00  0.00     0.008 A 
ATOM      8  C   UNL     1       6.389  -0.129  -1.609  1.00  0.00     0.054 A 
ATOM      9  C   UNL     1       8.969   0.592  -1.250  1.00  0.00     0.051 A 
ATOM     10  C   UNL     1       7.415  -0.890  -2.190  1.00  0.00     0.166 A 
ATOM     11  C   UNL     1       8.732  -0.530  -2.013  1.00  0.00     0.165 A 
ATOM     12  O   UNL     1       7.448  -2.031  -2.982  1.00  0.00    -0.454 OA
ATOM     13  O   UNL     1       9.545  -1.448  -2.691  1.00  0.00    -0.454 OA
ATOM     14  C   UNL     1       8.744  -2.599  -2.863  1.00  0.00     0.468 C 
ENDBRANCH   5   6
ENDBRANCH   1   5
TORSDOF 3
ENDMDL
MODEL 2
REMARK VINA RESULT:      -7.0      1.837      2.299
REMARK SMILES CC(=O)CCc1ccc2c(c1)OCO2
REMARK SMILES IDX 4 1 2 2 1 3 3 4 5 5 6 6 7 7 11 8 8 9 10 10 9 11 12 12 14 13
REMARK SMILES IDX 13 14
REMARK H PARENT
REMARK Flexibility Score: inf
ROOT
ATOM      1  C   UNL     1       5.742   1.331  -0.333  1.00  0.00     0.080 C 
ENDROOT
BRANCH   1   2
ATOM      2  C   UNL     1       5.093   1.342   0.990  1.00  0.00     0.130 C 
ATOM      3  C   UNL     1       5.456   0.183   1.903  1.00  0.00     0.087 C 
ATOM      4  O   UNL     1       4.321   2.150   1.424  1.00  0.00    -0.300 OA
ENDBRANCH   1   2
BRANCH   1   5
ATOM      5  C   UNL     1       7.184   1.008  -0.348  1.00  0.00     0.043 C 
BRANCH   5   6
ATOM      6  C   UNL     1       7.576  -0.280  -0.927  1.00  0.00    -0.044 A 
ATOM      7  C   UNL     1       7.740  -0.460  -2.302  1.00  0.00     0.008 A 
ATOM      8  C   UNL     1       7.825  -1.357  -0.107  1.00  0.00     0.054 A 
ATOM      9  C   UNL     1       8.135  -1.685  -2.771  1.00  0.00     0.051 A 
ATOM     10  C   UNL     1       8.229  -2.600  -0.615  1.00  0.00     0.166 A 
ATOM     11  C   UNL     1       8.389  -2.778  -1.972  1.00  0.00     0.165 A 
ATOM     12  O   UNL     1       8.542  -3.828  -0.044  1.00  0.00    -0.454 OA
ATOM     13  O   UNL     1       8.794  -4.098  -2.209  1.00  0.00    -0.454 OA
ATOM     14  C   UNL     1       9.327  -4.551  -0.981  1.00  0.00     0.468 C 
ENDBRANCH   5   6
ENDBRANCH   1   5
TORSDOF 3
ENDMDL
MODEL 3
REMARK VINA RESULT:      -6.9      1.117      1.211
REMARK SMILES CC(=O)CCc1ccc2c(c1)OCO2
REMARK SMILES IDX 4 1 2 2 1 3 3 4 5 5 6 6 7 7 11 8 8 9 10 10 9 11 12 12 14 13
REMARK SMILES IDX 13 14
REMARK H PARENT
REMARK Flexibility Score: inf
ROOT
ATOM      1  C   UNL     1       6.275   1.218   0.913  1.00  0.00     0.080 C 
ENDROOT
BRANCH   1   2
ATOM      2  C   UNL     1       5.571   0.420   1.933  1.00  0.00     0.130 C 
ATOM      3  C   UNL     1       6.309  -0.819   2.412  1.00  0.00     0.087 C 
ATOM      4  O   UNL     1       4.498   0.633   2.423  1.00  0.00    -0.300 OA
ENDBRANCH   1   2
BRANCH   1   5
ATOM      5  C   UNL     1       5.922   0.935  -0.494  1.00  0.00     0.043 C 
BRANCH   5   6
ATOM      6  C   UNL     1       6.874   0.143  -1.277  1.00  0.00    -0.044 A 
ATOM      7  C   UNL     1       7.776   0.730  -2.166  1.00  0.00     0.008 A 
ATOM      8  C   UNL     1       6.918  -1.224  -1.130  1.00  0.00     0.054 A 
ATOM      9  C   UNL     1       8.658  -0.070  -2.846  1.00  0.00     0.051 A 
ATOM     10  C   UNL     1       7.832  -2.019  -1.839  1.00  0.00     0.166 A 
ATOM     11  C   UNL     1       8.722  -1.439  -2.716  1.00  0.00     0.165 A 
ATOM     12  O   UNL     1       8.098  -3.381  -1.891  1.00  0.00    -0.454 OA
ATOM     13  O   UNL     1       9.512  -2.446  -3.286  1.00  0.00    -0.454 OA
ATOM     14  C   UNL     1       9.413  -3.543  -2.402  1.00  0.00     0.468 C 
ENDBRANCH   5   6
ENDBRANCH   1   5
TORSDOF 3
ENDMDL
MODEL 4
REMARK VINA RESULT:      -6.7      1.097      1.597
REMARK SMILES CC(=O)CCc1ccc2c(c1)OCO2
REMARK SMILES IDX 4 1 2 2 1 3 3 4 5 5 6 6 7 7 11 8 8 9 10 10 9 11 12 12 14 13
REMARK SMILES IDX 13 14
REMARK H PARENT
REMARK Flexibility Score: inf
ROOT
ATOM      1  C   UNL     1       5.344  -0.030   1.953  1.00  0.00     0.080 C 
ENDROOT
BRANCH   1   2
ATOM      2  C   UNL     1       4.396   1.094   1.849  1.00  0.00     0.130 C 
ATOM      3  C   UNL     1       4.731   2.130   0.789  1.00  0.00     0.087 C 
ATOM      4  O   UNL     1       3.405   1.283   2.495  1.00  0.00    -0.300 OA
ENDBRANCH   1   2
BRANCH   1   5
ATOM      5  C   UNL     1       6.769   0.296   1.736  1.00  0.00     0.043 C 
BRANCH   5   6
ATOM      6  C   UNL     1       7.331  -0.004   0.416  1.00  0.00    -0.044 A 
ATOM      7  C   UNL     1       7.913   0.980  -0.386  1.00  0.00     0.008 A 
ATOM      8  C   UNL     1       7.322  -1.295  -0.059  1.00  0.00     0.054 A 
ATOM      9  C   UNL     1       8.444   0.623  -1.598  1.00  0.00     0.051 A 
ATOM     10  C   UNL     1       7.874  -1.632  -1.304  1.00  0.00     0.166 A 
ATOM     11  C   UNL     1       8.447  -0.661  -2.096  1.00  0.00     0.165 A 
ATOM     12  O   UNL     1       8.004  -2.815  -2.021  1.00  0.00    -0.454 OA
ATOM     13  O   UNL     1       8.916  -1.259  -3.273  1.00  0.00    -0.454 OA
ATOM     14  C   UNL     1       9.046  -2.632  -2.968  1.00  0.00     0.468 C 
ENDBRANCH   5   6
ENDBRANCH   1   5
TORSDOF 3
ENDMDL
MODEL 5
REMARK VINA RESULT:      -6.7      1.914      2.424
REMARK SMILES CC(=O)CCc1ccc2c(c1)OCO2
REMARK SMILES IDX 4 1 2 2 1 3 3 4 5 5 6 6 7 7 11 8 8 9 10 10 9 11 12 12 14 13
REMARK SMILES IDX 13 14
REMARK H PARENT
REMARK Flexibility Score: inf
ROOT
ATOM      1  C   UNL     1       6.528   0.673   1.606  1.00  0.00     0.080 C 
ENDROOT
BRANCH   1   2
ATOM      2  C   UNL     1       5.149   1.191   1.580  1.00  0.00     0.130 C 
ATOM      3  C   UNL     1       4.834   2.146   0.441  1.00  0.00     0.087 C 
ATOM      4  O   UNL     1       4.258   0.949   2.344  1.00  0.00    -0.300 OA
ENDBRANCH   1   2
BRANCH   1   5
ATOM      5  C   UNL     1       7.308   0.832   0.360  1.00  0.00     0.043 C 
BRANCH   5   6
ATOM      6  C   UNL     1       7.614  -0.383  -0.399  1.00  0.00    -0.044 A 
ATOM      7  C   UNL     1       7.646  -0.400  -1.795  1.00  0.00     0.008 A 
ATOM      8  C   UNL     1       7.909  -1.552   0.262  1.00  0.00     0.054 A 
ATOM      9  C   UNL     1       7.967  -1.566  -2.440  1.00  0.00     0.051 A 
ATOM     10  C   UNL     1       8.235  -2.732  -0.423  1.00  0.00     0.166 A 
ATOM     11  C   UNL     1       8.266  -2.749  -1.801  1.00  0.00     0.165 A 
ATOM     12  O   UNL     1       8.568  -4.023  -0.032  1.00  0.00    -0.454 OA
ATOM     13  O   UNL     1       8.615  -4.037  -2.227  1.00  0.00    -0.454 OA
ATOM     14  C   UNL     1       9.246  -4.640  -1.117  1.00  0.00     0.468 C 
ENDBRANCH   5   6
ENDBRANCH   1   5
TORSDOF 3
ENDMDL
