@<TRIPOS>MOLECULE
/home/cewinharhar/GITHUB/reincatalyze/data/processed/docking_pred/2023-May-31-1727_sub9_nm5_bs15_s42_ex16_mel10_mts10000_k50_ec075_g099_lra3e-4_lrc3e-3/0310d41f91ab2de901a6698b161cc991790b6b4b_ligand_9.pdbqt
 14 15 0 0 0
SMALL
GASTEIGER

@<TRIPOS>ATOM
      1  C          6.5280    0.6730    1.6060 C.3     1  UNL1        0.0800
      2  C          5.1490    1.1910    1.5800 C.2     1  UNL1        0.1300
      3  C          4.8340    2.1460    0.4410 C.3     1  UNL1        0.0870
      4  O          4.2580    0.9490    2.3440 O.2     1  UNL1       -0.3000
      5  C          7.3080    0.8320    0.3600 C.3     1  UNL1        0.0430
      6  C          7.6140   -0.3830   -0.3990 C.2     1  UNL1       -0.0440
      7  C          7.6460   -0.4000   -1.7950 C.2     1  UNL1        0.0080
      8  C          7.9090   -1.5520    0.2620 C.2     1  UNL1        0.0540
      9  C          7.9670   -1.5660   -2.4400 C.2     1  UNL1        0.0510
     10  C          8.2350   -2.7320   -0.4230 C.2     1  UNL1        0.1660
     11  C          8.2660   -2.7490   -1.8010 C.2     1  UNL1        0.1650
     12  O          8.5680   -4.0230   -0.0320 O.2     1  UNL1       -0.4540
     13  O          8.6150   -4.0370   -2.2270 O.2     1  UNL1       -0.4540
     14  C          9.2460   -4.6400   -1.1170 C.3     1  UNL1        0.4680
@<TRIPOS>BOND
     1     9    11    2
     2     9     7    1
     3    13    11    1
     4    13    14    1
     5    11    10    1
     6     7     6    2
     7    14    12    1
     8    10    12    1
     9    10     8    2
    10     6     8    1
    11     6     5    1
    12     5     1    1
    13     3     2    1
    14     2     1    1
    15     2     4    2
