@<TRIPOS>MOLECULE
/home/cewinharhar/GITHUB/reincatalyze/data/processed/docking_pred/2023-May-31-1727_sub9_nm5_bs15_s42_ex16_mel10_mts10000_k50_ec075_g099_lra3e-4_lrc3e-3/0310d41f91ab2de901a6698b161cc991790b6b4b_ligand_9.pdbqt
 14 15 0 0 0
SMALL
GASTEIGER

@<TRIPOS>ATOM
      1  C          5.7420    1.3310   -0.3330 C.3     1  UNL1        0.0800
      2  C          5.0930    1.3420    0.9900 C.2     1  UNL1        0.1300
      3  C          5.4560    0.1830    1.9030 C.3     1  UNL1        0.0870
      4  O          4.3210    2.1500    1.4240 O.2     1  UNL1       -0.3000
      5  C          7.1840    1.0080   -0.3480 C.3     1  UNL1        0.0430
      6  C          7.5760   -0.2800   -0.9270 C.2     1  UNL1       -0.0440
      7  C          7.7400   -0.4600   -2.3020 C.2     1  UNL1        0.0080
      8  C          7.8250   -1.3570   -0.1070 C.2     1  UNL1        0.0540
      9  C          8.1350   -1.6850   -2.7710 C.2     1  UNL1        0.0510
     10  C          8.2290   -2.6000   -0.6150 C.2     1  UNL1        0.1660
     11  C          8.3890   -2.7780   -1.9720 C.2     1  UNL1        0.1650
     12  O          8.5420   -3.8280   -0.0440 O.2     1  UNL1       -0.4540
     13  O          8.7940   -4.0980   -2.2090 O.2     1  UNL1       -0.4540
     14  C          9.3270   -4.5510   -0.9810 C.3     1  UNL1        0.4680
@<TRIPOS>BOND
     1     9     7    1
     2     9    11    2
     3     7     6    2
     4    13    11    1
     5    13    14    1
     6    11    10    1
     7    14    12    1
     8     6     5    1
     9     6     8    1
    10    10     8    2
    11    10    12    1
    12     5     1    1
    13     1     2    1
    14     2     4    2
    15     2     3    1
