@<TRIPOS>MOLECULE
/home/cewinharhar/GITHUB/reincatalyze/data/processed/docking_pred/2023-May-31-1727_sub9_nm5_bs15_s42_ex16_mel10_mts10000_k50_ec075_g099_lra3e-4_lrc3e-3/0310d41f91ab2de901a6698b161cc991790b6b4b_ligand_9.pdbqt
 14 15 0 0 0
SMALL
GASTEIGER

@<TRIPOS>ATOM
      1  C          6.2750    1.2180    0.9130 C.3     1  UNL1        0.0800
      2  C          5.5710    0.4200    1.9330 C.2     1  UNL1        0.1300
      3  C          6.3090   -0.8190    2.4120 C.3     1  UNL1        0.0870
      4  O          4.4980    0.6330    2.4230 O.2     1  UNL1       -0.3000
      5  C          5.9220    0.9350   -0.4940 C.3     1  UNL1        0.0430
      6  C          6.8740    0.1430   -1.2770 C.2     1  UNL1       -0.0440
      7  C          7.7760    0.7300   -2.1660 C.2     1  UNL1        0.0080
      8  C          6.9180   -1.2240   -1.1300 C.2     1  UNL1        0.0540
      9  C          8.6580   -0.0700   -2.8460 C.2     1  UNL1        0.0510
     10  C          7.8320   -2.0190   -1.8390 C.2     1  UNL1        0.1660
     11  C          8.7220   -1.4390   -2.7160 C.2     1  UNL1        0.1650
     12  O          8.0980   -3.3810   -1.8910 O.2     1  UNL1       -0.4540
     13  O          9.5120   -2.4460   -3.2860 O.2     1  UNL1       -0.4540
     14  C          9.4130   -3.5430   -2.4020 C.3     1  UNL1        0.4680
@<TRIPOS>BOND
     1    13    11    1
     2    13    14    1
     3     9    11    2
     4     9     7    1
     5    11    10    1
     6    14    12    1
     7     7     6    2
     8    12    10    1
     9    10     8    2
    10     6     8    1
    11     6     5    1
    12     5     1    1
    13     1     2    1
    14     2     3    1
    15     2     4    2
