MODEL 1
REMARK VINA RESULT:      -6.1      0.000      0.000
REMARK SMILES CC(=O)CCc1ccc2c(c1)OCO2
REMARK SMILES IDX 4 1 2 2 1 3 3 4 5 5 6 6 7 7 11 8 8 9 10 10 9 11 12 12 14 13
REMARK SMILES IDX 13 14
REMARK H PARENT
REMARK Flexibility Score: inf
ROOT
ATOM      1  C   UNL     1       5.797  -0.277   2.272  1.00  0.00     0.080 C 
ENDROOT
BRANCH   1   2
ATOM      2  C   UNL     1       4.708   0.679   2.003  1.00  0.00     0.130 C 
ATOM      3  C   UNL     1       4.937   1.613   0.827  1.00  0.00     0.087 C 
ATOM      4  O   UNL     1       3.674   0.802   2.597  1.00  0.00    -0.300 OA
ENDBRANCH   1   2
BRANCH   1   5
ATOM      5  C   UNL     1       7.068  -0.033   1.559  1.00  0.00     0.043 C 
BRANCH   5   6
ATOM      6  C   UNL     1       7.445  -0.989   0.514  1.00  0.00    -0.044 A 
ATOM      7  C   UNL     1       7.314  -0.697  -0.844  1.00  0.00     0.008 A 
ATOM      8  C   UNL     1       7.974  -2.212   0.858  1.00  0.00     0.054 A 
ATOM      9  C   UNL     1       7.712  -1.628  -1.768  1.00  0.00     0.051 A 
ATOM     10  C   UNL     1       8.374  -3.147  -0.109  1.00  0.00     0.166 A 
ATOM     11  C   UNL     1       8.244  -2.858  -1.449  1.00  0.00     0.165 A 
ATOM     12  O   UNL     1       8.924  -4.422  -0.058  1.00  0.00    -0.454 OA
ATOM     13  O   UNL     1       8.712  -3.950  -2.192  1.00  0.00    -0.454 OA
ATOM     14  C   UNL     1       9.547  -4.671  -1.310  1.00  0.00     0.468 C 
ENDBRANCH   5   6
ENDBRANCH   1   5
TORSDOF 3
ENDMDL
MODEL 2
REMARK VINA RESULT:      -5.8      1.219      2.092
REMARK SMILES CC(=O)CCc1ccc2c(c1)OCO2
REMARK SMILES IDX 4 1 2 2 1 3 3 4 5 5 6 6 7 7 11 8 8 9 10 10 9 11 12 12 14 13
REMARK SMILES IDX 13 14
REMARK H PARENT
REMARK Flexibility Score: inf
ROOT
ATOM      1  C   UNL     1       5.205  -0.157   2.257  1.00  0.00     0.080 C 
ENDROOT
BRANCH   1   2
ATOM      2  C   UNL     1       4.283   0.969   2.021  1.00  0.00     0.130 C 
ATOM      3  C   UNL     1       4.658   1.885   0.868  1.00  0.00     0.087 C 
ATOM      4  O   UNL     1       3.285   1.242   2.625  1.00  0.00    -0.300 OA
ENDBRANCH   1   2
BRANCH   1   5
ATOM      5  C   UNL     1       6.628   0.090   1.945  1.00  0.00     0.043 C 
BRANCH   5   6
ATOM      6  C   UNL     1       7.235  -0.728   0.891  1.00  0.00    -0.044 A 
ATOM      7  C   UNL     1       7.543  -2.076   1.080  1.00  0.00     0.008 A 
ATOM      8  C   UNL     1       7.495  -0.179  -0.343  1.00  0.00     0.054 A 
ATOM      9  C   UNL     1       8.084  -2.788   0.041  1.00  0.00     0.051 A 
ATOM     10  C   UNL     1       8.050  -0.931  -1.389  1.00  0.00     0.166 A 
ATOM     11  C   UNL     1       8.354  -2.262  -1.203  1.00  0.00     0.165 A 
ATOM     12  O   UNL     1       8.410  -0.653  -2.702  1.00  0.00    -0.454 OA
ATOM     13  O   UNL     1       8.890  -2.773  -2.392  1.00  0.00    -0.454 OA
ATOM     14  C   UNL     1       8.463  -1.886  -3.405  1.00  0.00     0.468 C 
ENDBRANCH   5   6
ENDBRANCH   1   5
TORSDOF 3
ENDMDL
MODEL 3
REMARK VINA RESULT:      -5.8      1.932      2.206
REMARK SMILES CC(=O)CCc1ccc2c(c1)OCO2
REMARK SMILES IDX 4 1 2 2 1 3 3 4 5 5 6 6 7 7 11 8 8 9 10 10 9 11 12 12 14 13
REMARK SMILES IDX 13 14
REMARK H PARENT
REMARK Flexibility Score: inf
ROOT
ATOM      1  C   UNL     1       5.503   0.231   2.520  1.00  0.00     0.080 C 
ENDROOT
BRANCH   1   2
ATOM      2  C   UNL     1       4.374   1.071   2.080  1.00  0.00     0.130 C 
ATOM      3  C   UNL     1       4.603   1.846   0.794  1.00  0.00     0.087 C 
ATOM      4  O   UNL     1       3.310   1.212   2.614  1.00  0.00    -0.300 OA
ENDBRANCH   1   2
BRANCH   1   5
ATOM      5  C   UNL     1       5.753  -0.991   1.728  1.00  0.00     0.043 C 
BRANCH   5   6
ATOM      6  C   UNL     1       6.772  -0.912   0.678  1.00  0.00    -0.044 A 
ATOM      7  C   UNL     1       8.036  -0.365   0.907  1.00  0.00     0.008 A 
ATOM      8  C   UNL     1       6.509  -1.413  -0.576  1.00  0.00     0.054 A 
ATOM      9  C   UNL     1       8.950  -0.349  -0.114  1.00  0.00     0.051 A 
ATOM     10  C   UNL     1       7.465  -1.383  -1.603  1.00  0.00     0.166 A 
ATOM     11  C   UNL     1       8.711  -0.842  -1.377  1.00  0.00     0.165 A 
ATOM     12  O   UNL     1       7.480  -1.801  -2.928  1.00  0.00    -0.454 OA
ATOM     13  O   UNL     1       9.464  -0.937  -2.555  1.00  0.00    -0.454 OA
ATOM     14  C   UNL     1       8.838  -1.949  -3.317  1.00  0.00     0.468 C 
ENDBRANCH   5   6
ENDBRANCH   1   5
TORSDOF 3
ENDMDL
MODEL 4
REMARK VINA RESULT:      -5.7      2.051      5.439
REMARK SMILES CC(=O)CCc1ccc2c(c1)OCO2
REMARK SMILES IDX 4 1 2 2 1 3 3 4 5 5 6 6 7 7 11 8 8 9 10 10 9 11 12 12 14 13
REMARK SMILES IDX 13 14
REMARK H PARENT
REMARK Flexibility Score: inf
ROOT
ATOM      1  C   UNL     1       8.305  -1.699  -2.368  1.00  0.00     0.080 C 
ENDROOT
BRANCH   1   2
ATOM      2  C   UNL     1       8.878  -0.340  -2.347  1.00  0.00     0.130 C 
ATOM      3  C   UNL     1       8.191   0.669  -3.251  1.00  0.00     0.087 C 
ATOM      4  O   UNL     1       9.810   0.055  -1.706  1.00  0.00    -0.300 OA
ENDBRANCH   1   2
BRANCH   1   5
ATOM      5  C   UNL     1       8.165  -2.367  -1.058  1.00  0.00     0.043 C 
BRANCH   5   6
ATOM      6  C   UNL     1       7.326  -1.706  -0.054  1.00  0.00    -0.044 A 
ATOM      7  C   UNL     1       7.286  -2.127   1.276  1.00  0.00     0.008 A 
ATOM      8  C   UNL     1       6.566  -0.614  -0.404  1.00  0.00     0.054 A 
ATOM      9  C   UNL     1       6.499  -1.444   2.167  1.00  0.00     0.051 A 
ATOM     10  C   UNL     1       5.770   0.066   0.530  1.00  0.00     0.166 A 
ATOM     11  C   UNL     1       5.729  -0.350   1.842  1.00  0.00     0.165 A 
ATOM     12  O   UNL     1       4.923   1.166   0.466  1.00  0.00    -0.454 OA
ATOM     13  O   UNL     1       4.867   0.493   2.556  1.00  0.00    -0.454 OA
ATOM     14  C   UNL     1       4.777   1.673   1.785  1.00  0.00     0.468 C 
ENDBRANCH   5   6
ENDBRANCH   1   5
TORSDOF 3
ENDMDL
MODEL 5
REMARK VINA RESULT:      -5.7      1.314      6.120
REMARK SMILES CC(=O)CCc1ccc2c(c1)OCO2
REMARK SMILES IDX 4 1 2 2 1 3 3 4 5 5 6 6 7 7 11 8 8 9 10 10 9 11 12 12 14 13
REMARK SMILES IDX 13 14
REMARK H PARENT
REMARK Flexibility Score: inf
ROOT
ATOM      1  C   UNL     1       8.766  -4.038  -0.384  1.00  0.00     0.080 C 
ENDROOT
BRANCH   1   2
ATOM      2  C   UNL     1       9.363  -4.894  -1.424  1.00  0.00     0.130 C 
ATOM      3  C   UNL     1       8.875  -6.333  -1.442  1.00  0.00     0.087 C 
ATOM      4  O   UNL     1      10.179  -4.590  -2.248  1.00  0.00    -0.300 OA
ENDBRANCH   1   2
BRANCH   1   5
ATOM      5  C   UNL     1       8.390  -2.671  -0.801  1.00  0.00     0.043 C 
BRANCH   5   6
ATOM      6  C   UNL     1       7.510  -1.915   0.094  1.00  0.00    -0.044 A 
ATOM      7  C   UNL     1       7.401  -2.210   1.454  1.00  0.00     0.008 A 
ATOM      8  C   UNL     1       6.778  -0.857  -0.392  1.00  0.00     0.054 A 
ATOM      9  C   UNL     1       6.579  -1.443   2.238  1.00  0.00     0.051 A 
ATOM     10  C   UNL     1       5.944  -0.088   0.434  1.00  0.00     0.166 A 
ATOM     11  C   UNL     1       5.836  -0.380   1.775  1.00  0.00     0.165 A 
ATOM     12  O   UNL     1       5.112   1.005   0.226  1.00  0.00    -0.454 OA
ATOM     13  O   UNL     1       4.948   0.530   2.364  1.00  0.00    -0.454 OA
ATOM     14  C   UNL     1       4.907   1.634   1.483  1.00  0.00     0.468 C 
ENDBRANCH   5   6
ENDBRANCH   1   5
TORSDOF 3
ENDMDL
