@<TRIPOS>MOLECULE
/home/cewinharhar/GITHUB/reincatalyze/data/processed/docking_pred/2023-May-31-1727_sub9_nm5_bs15_s42_ex16_mel10_mts10000_k50_ec075_g099_lra3e-4_lrc3e-3/035d1107efb5fe3e99d2a33353f0da4e413613a6_ligand_9.pdbqt
 14 15 0 0 0
SMALL
GASTEIGER

@<TRIPOS>ATOM
      1  C          8.3050   -1.6990   -2.3680 C.3     1  UNL1        0.0800
      2  C          8.8780   -0.3400   -2.3470 C.2     1  UNL1        0.1300
      3  C          8.1910    0.6690   -3.2510 C.3     1  UNL1        0.0870
      4  O          9.8100    0.0550   -1.7060 O.2     1  UNL1       -0.3000
      5  C          8.1650   -2.3670   -1.0580 C.3     1  UNL1        0.0430
      6  C          7.3260   -1.7060   -0.0540 C.2     1  UNL1       -0.0440
      7  C          7.2860   -2.1270    1.2760 C.2     1  UNL1        0.0080
      8  C          6.5660   -0.6140   -0.4040 C.2     1  UNL1        0.0540
      9  C          6.4990   -1.4440    2.1670 C.2     1  UNL1        0.0510
     10  C          5.7700    0.0660    0.5300 C.2     1  UNL1        0.1660
     11  C          5.7290   -0.3500    1.8420 C.2     1  UNL1        0.1650
     12  O          4.9230    1.1660    0.4660 O.2     1  UNL1       -0.4540
     13  O          4.8670    0.4930    2.5560 O.2     1  UNL1       -0.4540
     14  C          4.7770    1.6730    1.7850 C.3     1  UNL1        0.4680
@<TRIPOS>BOND
     1     3     2    1
     2     1     2    1
     3     1     5    1
     4     2     4    2
     5     5     6    1
     6     8     6    2
     7     8    10    1
     8     6     7    1
     9    12    10    1
    10    12    14    1
    11    10    11    2
    12     7     9    2
    13    14    13    1
    14    11     9    1
    15    11    13    1
