@<TRIPOS>MOLECULE
/home/cewinharhar/GITHUB/reincatalyze/data/processed/docking_pred/2023-May-31-1727_sub9_nm5_bs15_s42_ex16_mel10_mts10000_k50_ec075_g099_lra3e-4_lrc3e-3/035d1107efb5fe3e99d2a33353f0da4e413613a6_ligand_9.pdbqt
 14 15 0 0 0
SMALL
GASTEIGER

@<TRIPOS>ATOM
      1  C          5.2050   -0.1570    2.2570 C.3     1  UNL1        0.0800
      2  C          4.2830    0.9690    2.0210 C.2     1  UNL1        0.1300
      3  C          4.6580    1.8850    0.8680 C.3     1  UNL1        0.0870
      4  O          3.2850    1.2420    2.6250 O.2     1  UNL1       -0.3000
      5  C          6.6280    0.0900    1.9450 C.3     1  UNL1        0.0430
      6  C          7.2350   -0.7280    0.8910 C.2     1  UNL1       -0.0440
      7  C          7.5430   -2.0760    1.0800 C.2     1  UNL1        0.0080
      8  C          7.4950   -0.1790   -0.3430 C.2     1  UNL1        0.0540
      9  C          8.0840   -2.7880    0.0410 C.2     1  UNL1        0.0510
     10  C          8.0500   -0.9310   -1.3890 C.2     1  UNL1        0.1660
     11  C          8.3540   -2.2620   -1.2030 C.2     1  UNL1        0.1650
     12  O          8.4100   -0.6530   -2.7020 O.2     1  UNL1       -0.4540
     13  O          8.8900   -2.7730   -2.3920 O.2     1  UNL1       -0.4540
     14  C          8.4630   -1.8860   -3.4050 C.3     1  UNL1        0.4680
@<TRIPOS>BOND
     1    14    12    1
     2    14    13    1
     3    12    10    1
     4    13    11    1
     5    10    11    2
     6    10     8    1
     7    11     9    1
     8     8     6    2
     9     9     7    2
    10     3     2    1
    11     6     7    1
    12     6     5    1
    13     5     1    1
    14     2     1    1
    15     2     4    2
