@<TRIPOS>MOLECULE
/home/cewinharhar/GITHUB/reincatalyze/data/processed/docking_pred/2023-May-31-1727_sub9_nm5_bs15_s42_ex16_mel10_mts10000_k50_ec075_g099_lra3e-4_lrc3e-3/035d1107efb5fe3e99d2a33353f0da4e413613a6_ligand_9.pdbqt
 14 15 0 0 0
SMALL
GASTEIGER

@<TRIPOS>ATOM
      1  C          5.7970   -0.2770    2.2720 C.3     1  UNL1        0.0800
      2  C          4.7080    0.6790    2.0030 C.2     1  UNL1        0.1300
      3  C          4.9370    1.6130    0.8270 C.3     1  UNL1        0.0870
      4  O          3.6740    0.8020    2.5970 O.2     1  UNL1       -0.3000
      5  C          7.0680   -0.0330    1.5590 C.3     1  UNL1        0.0430
      6  C          7.4450   -0.9890    0.5140 C.2     1  UNL1       -0.0440
      7  C          7.3140   -0.6970   -0.8440 C.2     1  UNL1        0.0080
      8  C          7.9740   -2.2120    0.8580 C.2     1  UNL1        0.0540
      9  C          7.7120   -1.6280   -1.7680 C.2     1  UNL1        0.0510
     10  C          8.3740   -3.1470   -0.1090 C.2     1  UNL1        0.1660
     11  C          8.2440   -2.8580   -1.4490 C.2     1  UNL1        0.1650
     12  O          8.9240   -4.4220   -0.0580 O.2     1  UNL1       -0.4540
     13  O          8.7120   -3.9500   -2.1920 O.2     1  UNL1       -0.4540
     14  C          9.5470   -4.6710   -1.3100 C.3     1  UNL1        0.4680
@<TRIPOS>BOND
     1    13    11    1
     2    13    14    1
     3     9    11    2
     4     9     7    1
     5    11    10    1
     6    14    12    1
     7     7     6    2
     8    10    12    1
     9    10     8    2
    10     6     8    1
    11     6     5    1
    12     3     2    1
    13     5     1    1
    14     2     1    1
    15     2     4    2
