@<TRIPOS>MOLECULE
/home/cewinharhar/GITHUB/reincatalyze/data/processed/docking_pred/2023-May-31-1727_sub9_nm5_bs15_s42_ex16_mel10_mts10000_k50_ec075_g099_lra3e-4_lrc3e-3/035d1107efb5fe3e99d2a33353f0da4e413613a6_ligand_9.pdbqt
 14 15 0 0 0
SMALL
GASTEIGER

@<TRIPOS>ATOM
      1  C          5.5030    0.2310    2.5200 C.3     1  UNL1        0.0800
      2  C          4.3740    1.0710    2.0800 C.2     1  UNL1        0.1300
      3  C          4.6030    1.8460    0.7940 C.3     1  UNL1        0.0870
      4  O          3.3100    1.2120    2.6140 O.2     1  UNL1       -0.3000
      5  C          5.7530   -0.9910    1.7280 C.3     1  UNL1        0.0430
      6  C          6.7720   -0.9120    0.6780 C.2     1  UNL1       -0.0440
      7  C          8.0360   -0.3650    0.9070 C.2     1  UNL1        0.0080
      8  C          6.5090   -1.4130   -0.5760 C.2     1  UNL1        0.0540
      9  C          8.9500   -0.3490   -0.1140 C.2     1  UNL1        0.0510
     10  C          7.4650   -1.3830   -1.6030 C.2     1  UNL1        0.1660
     11  C          8.7110   -0.8420   -1.3770 C.2     1  UNL1        0.1650
     12  O          7.4800   -1.8010   -2.9280 O.2     1  UNL1       -0.4540
     13  O          9.4640   -0.9370   -2.5550 O.2     1  UNL1       -0.4540
     14  C          8.8380   -1.9490   -3.3170 C.3     1  UNL1        0.4680
@<TRIPOS>BOND
     1    14    12    1
     2    14    13    1
     3    12    10    1
     4    13    11    1
     5    10    11    2
     6    10     8    1
     7    11     9    1
     8     8     6    2
     9     9     7    2
    10     6     7    1
    11     6     5    1
    12     3     2    1
    13     5     1    1
    14     2     1    1
    15     2     4    2
