@<TRIPOS>MOLECULE
/home/cewinharhar/GITHUB/reincatalyze/data/processed/docking_pred/2023-May-31-1727_sub9_nm5_bs15_s42_ex16_mel10_mts10000_k50_ec075_g099_lra3e-4_lrc3e-3/035d1107efb5fe3e99d2a33353f0da4e413613a6_ligand_9.pdbqt
 14 15 0 0 0
SMALL
GASTEIGER

@<TRIPOS>ATOM
      1  C          8.7660   -4.0380   -0.3840 C.2     1  UNL1        0.0800
      2  C          9.3630   -4.8940   -1.4240 C.2     1  UNL1        0.1300
      3  C          8.8750   -6.3330   -1.4420 C.3     1  UNL1        0.0870
      4  O         10.1790   -4.5900   -2.2480 O.2     1  UNL1       -0.3000
      5  C          8.3900   -2.6710   -0.8010 C.2     1  UNL1        0.0430
      6  C          7.5100   -1.9150    0.0940 C.2     1  UNL1       -0.0440
      7  C          7.4010   -2.2100    1.4540 C.2     1  UNL1        0.0080
      8  C          6.7780   -0.8570   -0.3920 C.2     1  UNL1        0.0540
      9  C          6.5790   -1.4430    2.2380 C.2     1  UNL1        0.0510
     10  C          5.9440   -0.0880    0.4340 C.2     1  UNL1        0.1660
     11  C          5.8360   -0.3800    1.7750 C.2     1  UNL1        0.1650
     12  O          5.1120    1.0050    0.2260 O.2     1  UNL1       -0.4540
     13  O          4.9480    0.5300    2.3640 O.2     1  UNL1       -0.4540
     14  C          4.9070    1.6340    1.4830 C.3     1  UNL1        0.4680
@<TRIPOS>BOND
     1     4     2    2
     2     3     2    1
     3     2     1    1
     4     5     1    2
     5     5     6    1
     6     8     6    2
     7     8    10    1
     8     6     7    1
     9    12    10    1
    10    12    14    1
    11    10    11    2
    12     7     9    2
    13    14    13    1
    14    11     9    1
    15    11    13    1
