MODEL 1
REMARK VINA RESULT:      -7.7      0.000      0.000
REMARK SMILES CC(=O)CCc1ccc2c(c1)OCO2
REMARK SMILES IDX 4 1 2 2 1 3 3 4 5 5 6 6 7 7 11 8 8 9 10 10 9 11 12 12 14 13
REMARK SMILES IDX 13 14
REMARK H PARENT
REMARK Flexibility Score: inf
ROOT
ATOM      1  C   UNL     1       5.491   1.882   1.206  1.00  0.00     0.080 C 
ENDROOT
BRANCH   1   2
ATOM      2  C   UNL     1       4.949   0.762   1.997  1.00  0.00     0.130 C 
ATOM      3  C   UNL     1       5.858  -0.449   2.118  1.00  0.00     0.087 C 
ATOM      4  O   UNL     1       3.887   0.698   2.549  1.00  0.00    -0.300 OA
ENDBRANCH   1   2
BRANCH   1   5
ATOM      5  C   UNL     1       5.478   1.708  -0.262  1.00  0.00     0.043 C 
BRANCH   5   6
ATOM      6  C   UNL     1       6.598   0.975  -0.860  1.00  0.00    -0.044 A 
ATOM      7  C   UNL     1       7.927   1.350  -0.654  1.00  0.00     0.008 A 
ATOM      8  C   UNL     1       6.358  -0.138  -1.632  1.00  0.00     0.054 A 
ATOM      9  C   UNL     1       8.925   0.602  -1.223  1.00  0.00     0.051 A 
ATOM     10  C   UNL     1       7.400  -0.885  -2.202  1.00  0.00     0.166 A 
ATOM     11  C   UNL     1       8.711  -0.516  -1.999  1.00  0.00     0.165 A 
ATOM     12  O   UNL     1       7.457  -2.020  -3.002  1.00  0.00    -0.454 OA
ATOM     13  O   UNL     1       9.543  -1.421  -2.671  1.00  0.00    -0.454 OA
ATOM     14  C   UNL     1       8.756  -2.577  -2.865  1.00  0.00     0.468 C 
ENDBRANCH   5   6
ENDBRANCH   1   5
TORSDOF 3
ENDMDL
MODEL 2
REMARK VINA RESULT:      -7.0      1.176      1.296
REMARK SMILES CC(=O)CCc1ccc2c(c1)OCO2
REMARK SMILES IDX 4 1 2 2 1 3 3 4 5 5 6 6 7 7 11 8 8 9 10 10 9 11 12 12 14 13
REMARK SMILES IDX 13 14
REMARK H PARENT
REMARK Flexibility Score: inf
ROOT
ATOM      1  C   UNL     1       6.275   1.173   0.876  1.00  0.00     0.080 C 
ENDROOT
BRANCH   1   2
ATOM      2  C   UNL     1       5.578   0.400   1.920  1.00  0.00     0.130 C 
ATOM      3  C   UNL     1       6.315  -0.832   2.417  1.00  0.00     0.087 C 
ATOM      4  O   UNL     1       4.511   0.628   2.415  1.00  0.00    -0.300 OA
ENDBRANCH   1   2
BRANCH   1   5
ATOM      5  C   UNL     1       5.901   0.867  -0.521  1.00  0.00     0.043 C 
BRANCH   5   6
ATOM      6  C   UNL     1       6.852   0.081  -1.312  1.00  0.00    -0.044 A 
ATOM      7  C   UNL     1       7.700   0.668  -2.254  1.00  0.00     0.008 A 
ATOM      8  C   UNL     1       6.952  -1.277  -1.120  1.00  0.00     0.054 A 
ATOM      9  C   UNL     1       8.584  -0.124  -2.939  1.00  0.00     0.051 A 
ATOM     10  C   UNL     1       7.867  -2.064  -1.836  1.00  0.00     0.166 A 
ATOM     11  C   UNL     1       8.702  -1.485  -2.765  1.00  0.00     0.165 A 
ATOM     12  O   UNL     1       8.180  -3.417  -1.852  1.00  0.00    -0.454 OA
ATOM     13  O   UNL     1       9.507  -2.482  -3.330  1.00  0.00    -0.454 OA
ATOM     14  C   UNL     1       9.481  -3.551  -2.407  1.00  0.00     0.468 C 
ENDBRANCH   5   6
ENDBRANCH   1   5
TORSDOF 3
ENDMDL
MODEL 3
REMARK VINA RESULT:      -6.9      1.863      2.454
REMARK SMILES CC(=O)CCc1ccc2c(c1)OCO2
REMARK SMILES IDX 4 1 2 2 1 3 3 4 5 5 6 6 7 7 11 8 8 9 10 10 9 11 12 12 14 13
REMARK SMILES IDX 13 14
REMARK H PARENT
REMARK Flexibility Score: inf
ROOT
ATOM      1  C   UNL     1       6.517   1.055   1.323  1.00  0.00     0.080 C 
ENDROOT
BRANCH   1   2
ATOM      2  C   UNL     1       5.186   1.622   1.042  1.00  0.00     0.130 C 
ATOM      3  C   UNL     1       4.988   2.146  -0.370  1.00  0.00     0.087 C 
ATOM      4  O   UNL     1       4.254   1.715   1.789  1.00  0.00    -0.300 OA
ENDBRANCH   1   2
BRANCH   1   5
ATOM      5  C   UNL     1       7.485   1.079   0.206  1.00  0.00     0.043 C 
BRANCH   5   6
ATOM      6  C   UNL     1       7.718  -0.180  -0.506  1.00  0.00    -0.044 A 
ATOM      7  C   UNL     1       7.713  -0.259  -1.899  1.00  0.00     0.008 A 
ATOM      8  C   UNL     1       7.981  -1.332   0.200  1.00  0.00     0.054 A 
ATOM      9  C   UNL     1       7.966  -1.465  -2.500  1.00  0.00     0.051 A 
ATOM     10  C   UNL     1       8.237  -2.554  -0.441  1.00  0.00     0.166 A 
ATOM     11  C   UNL     1       8.231  -2.631  -1.816  1.00  0.00     0.165 A 
ATOM     12  O   UNL     1       8.525  -3.840  -0.001  1.00  0.00    -0.454 OA
ATOM     13  O   UNL     1       8.513  -3.951  -2.194  1.00  0.00    -0.454 OA
ATOM     14  C   UNL     1       9.147  -4.532  -1.073  1.00  0.00     0.468 C 
ENDBRANCH   5   6
ENDBRANCH   1   5
TORSDOF 3
ENDMDL
MODEL 4
REMARK VINA RESULT:      -6.9      1.920      2.416
REMARK SMILES CC(=O)CCc1ccc2c(c1)OCO2
REMARK SMILES IDX 4 1 2 2 1 3 3 4 5 5 6 6 7 7 11 8 8 9 10 10 9 11 12 12 14 13
REMARK SMILES IDX 13 14
REMARK H PARENT
REMARK Flexibility Score: inf
ROOT
ATOM      1  C   UNL     1       5.898   1.265  -0.282  1.00  0.00     0.080 C 
ENDROOT
BRANCH   1   2
ATOM      2  C   UNL     1       5.273   1.298   1.053  1.00  0.00     0.130 C 
ATOM      3  C   UNL     1       5.570   0.100   1.939  1.00  0.00     0.087 C 
ATOM      4  O   UNL     1       4.568   2.149   1.514  1.00  0.00    -0.300 OA
ENDBRANCH   1   2
BRANCH   1   5
ATOM      5  C   UNL     1       7.335   0.922  -0.320  1.00  0.00     0.043 C 
BRANCH   5   6
ATOM      6  C   UNL     1       7.698  -0.384  -0.879  1.00  0.00    -0.044 A 
ATOM      7  C   UNL     1       7.829  -0.594  -2.253  1.00  0.00     0.008 A 
ATOM      8  C   UNL     1       7.950  -1.445  -0.041  1.00  0.00     0.054 A 
ATOM      9  C   UNL     1       8.198  -1.835  -2.704  1.00  0.00     0.051 A 
ATOM     10  C   UNL     1       8.327  -2.705  -0.531  1.00  0.00     0.166 A 
ATOM     11  C   UNL     1       8.455  -2.913  -1.887  1.00  0.00     0.165 A 
ATOM     12  O   UNL     1       8.636  -3.924   0.059  1.00  0.00    -0.454 OA
ATOM     13  O   UNL     1       8.837  -4.243  -2.104  1.00  0.00    -0.454 OA
ATOM     14  C   UNL     1       9.391  -4.677  -0.879  1.00  0.00     0.468 C 
ENDBRANCH   5   6
ENDBRANCH   1   5
TORSDOF 3
ENDMDL
MODEL 5
REMARK VINA RESULT:      -6.8      1.167      1.657
REMARK SMILES CC(=O)CCc1ccc2c(c1)OCO2
REMARK SMILES IDX 4 1 2 2 1 3 3 4 5 5 6 6 7 7 11 8 8 9 10 10 9 11 12 12 14 13
REMARK SMILES IDX 13 14
REMARK H PARENT
REMARK Flexibility Score: inf
ROOT
ATOM      1  C   UNL     1       5.389  -0.094   1.940  1.00  0.00     0.080 C 
ENDROOT
BRANCH   1   2
ATOM      2  C   UNL     1       4.449   1.040   1.878  1.00  0.00     0.130 C 
ATOM      3  C   UNL     1       4.767   2.091   0.828  1.00  0.00     0.087 C 
ATOM      4  O   UNL     1       3.475   1.226   2.551  1.00  0.00    -0.300 OA
ENDBRANCH   1   2
BRANCH   1   5
ATOM      5  C   UNL     1       6.810   0.224   1.687  1.00  0.00     0.043 C 
BRANCH   5   6
ATOM      6  C   UNL     1       7.347  -0.114   0.366  1.00  0.00    -0.044 A 
ATOM      7  C   UNL     1       7.765   0.863  -0.539  1.00  0.00     0.008 A 
ATOM      8  C   UNL     1       7.481  -1.432  -0.006  1.00  0.00     0.054 A 
ATOM      9  C   UNL     1       8.283   0.474  -1.747  1.00  0.00     0.051 A 
ATOM     10  C   UNL     1       8.015  -1.802  -1.250  1.00  0.00     0.166 A 
ATOM     11  C   UNL     1       8.426  -0.838  -2.144  1.00  0.00     0.165 A 
ATOM     12  O   UNL     1       8.263  -3.016  -1.879  1.00  0.00    -0.454 OA
ATOM     13  O   UNL     1       8.915  -1.470  -3.294  1.00  0.00    -0.454 OA
ATOM     14  C   UNL     1       9.231  -2.786  -2.892  1.00  0.00     0.468 C 
ENDBRANCH   5   6
ENDBRANCH   1   5
TORSDOF 3
ENDMDL
