@<TRIPOS>MOLECULE
/home/cewinharhar/GITHUB/reincatalyze/data/processed/docking_pred/2023-May-31-1727_sub9_nm5_bs15_s42_ex16_mel10_mts10000_k50_ec075_g099_lra3e-4_lrc3e-3/04093ca98f76925b46d8e425639cb467aa73d951_ligand_9.pdbqt
 14 15 0 0 0
SMALL
GASTEIGER

@<TRIPOS>ATOM
      1  C          6.5170    1.0550    1.3230 C.3     1  UNL1        0.0800
      2  C          5.1860    1.6220    1.0420 C.2     1  UNL1        0.1300
      3  C          4.9880    2.1460   -0.3700 C.3     1  UNL1        0.0870
      4  O          4.2540    1.7150    1.7890 O.2     1  UNL1       -0.3000
      5  C          7.4850    1.0790    0.2060 C.3     1  UNL1        0.0430
      6  C          7.7180   -0.1800   -0.5060 C.2     1  UNL1       -0.0440
      7  C          7.7130   -0.2590   -1.8990 C.2     1  UNL1        0.0080
      8  C          7.9810   -1.3320    0.2000 C.2     1  UNL1        0.0540
      9  C          7.9660   -1.4650   -2.5000 C.2     1  UNL1        0.0510
     10  C          8.2370   -2.5540   -0.4410 C.2     1  UNL1        0.1660
     11  C          8.2310   -2.6310   -1.8160 C.2     1  UNL1        0.1650
     12  O          8.5250   -3.8400   -0.0010 O.2     1  UNL1       -0.4540
     13  O          8.5130   -3.9510   -2.1940 O.2     1  UNL1       -0.4540
     14  C          9.1470   -4.5320   -1.0730 C.3     1  UNL1        0.4680
@<TRIPOS>BOND
     1     9     7    1
     2     9    11    2
     3    13    11    1
     4    13    14    1
     5     7     6    2
     6    11    10    1
     7    14    12    1
     8     6     8    1
     9     6     5    1
    10    10    12    1
    11    10     8    2
    12     3     2    1
    13     5     1    1
    14     2     1    1
    15     2     4    2
