@<TRIPOS>MOLECULE
/home/cewinharhar/GITHUB/reincatalyze/data/processed/docking_pred/2023-May-31-1727_sub9_nm5_bs15_s42_ex16_mel10_mts10000_k50_ec075_g099_lra3e-4_lrc3e-3/04093ca98f76925b46d8e425639cb467aa73d951_ligand_9.pdbqt
 14 15 0 0 0
SMALL
GASTEIGER

@<TRIPOS>ATOM
      1  C          5.3890   -0.0940    1.9400 C.3     1  UNL1        0.0800
      2  C          4.4490    1.0400    1.8780 C.2     1  UNL1        0.1300
      3  C          4.7670    2.0910    0.8280 C.3     1  UNL1        0.0870
      4  O          3.4750    1.2260    2.5510 O.2     1  UNL1       -0.3000
      5  C          6.8100    0.2240    1.6870 C.3     1  UNL1        0.0430
      6  C          7.3470   -0.1140    0.3660 C.2     1  UNL1       -0.0440
      7  C          7.7650    0.8630   -0.5390 C.2     1  UNL1        0.0080
      8  C          7.4810   -1.4320   -0.0060 C.2     1  UNL1        0.0540
      9  C          8.2830    0.4740   -1.7470 C.2     1  UNL1        0.0510
     10  C          8.0150   -1.8020   -1.2500 C.2     1  UNL1        0.1660
     11  C          8.4260   -0.8380   -2.1440 C.2     1  UNL1        0.1650
     12  O          8.2630   -3.0160   -1.8790 O.2     1  UNL1       -0.4540
     13  O          8.9150   -1.4700   -3.2940 O.2     1  UNL1       -0.4540
     14  C          9.2310   -2.7860   -2.8920 C.3     1  UNL1        0.4680
@<TRIPOS>BOND
     1    13    14    1
     2    13    11    1
     3    14    12    1
     4    11     9    2
     5    11    10    1
     6    12    10    1
     7     9     7    1
     8    10     8    2
     9     7     6    2
    10     8     6    1
    11     6     5    1
    12     3     2    1
    13     5     1    1
    14     2     1    1
    15     2     4    2
