@<TRIPOS>MOLECULE
/home/cewinharhar/GITHUB/reincatalyze/data/processed/docking_pred/2023-May-31-1727_sub9_nm5_bs15_s42_ex16_mel10_mts10000_k50_ec075_g099_lra3e-4_lrc3e-3/04093ca98f76925b46d8e425639cb467aa73d951_ligand_9.pdbqt
 14 15 0 0 0
SMALL
GASTEIGER

@<TRIPOS>ATOM
      1  C          6.2750    1.1730    0.8760 C.3     1  UNL1        0.0800
      2  C          5.5780    0.4000    1.9200 C.2     1  UNL1        0.1300
      3  C          6.3150   -0.8320    2.4170 C.3     1  UNL1        0.0870
      4  O          4.5110    0.6280    2.4150 O.2     1  UNL1       -0.3000
      5  C          5.9010    0.8670   -0.5210 C.3     1  UNL1        0.0430
      6  C          6.8520    0.0810   -1.3120 C.2     1  UNL1       -0.0440
      7  C          7.7000    0.6680   -2.2540 C.2     1  UNL1        0.0080
      8  C          6.9520   -1.2770   -1.1200 C.2     1  UNL1        0.0540
      9  C          8.5840   -0.1240   -2.9390 C.2     1  UNL1        0.0510
     10  C          7.8670   -2.0640   -1.8360 C.2     1  UNL1        0.1660
     11  C          8.7020   -1.4850   -2.7650 C.2     1  UNL1        0.1650
     12  O          8.1800   -3.4170   -1.8520 O.2     1  UNL1       -0.4540
     13  O          9.5070   -2.4820   -3.3300 O.2     1  UNL1       -0.4540
     14  C          9.4810   -3.5510   -2.4070 C.3     1  UNL1        0.4680
@<TRIPOS>BOND
     1    13    11    1
     2    13    14    1
     3     9    11    2
     4     9     7    1
     5    11    10    1
     6    14    12    1
     7     7     6    2
     8    12    10    1
     9    10     8    2
    10     6     8    1
    11     6     5    1
    12     5     1    1
    13     1     2    1
    14     2     4    2
    15     2     3    1
