@<TRIPOS>MOLECULE
/home/cewinharhar/GITHUB/reincatalyze/data/processed/docking_pred/2023-May-31-1727_sub9_nm5_bs15_s42_ex16_mel10_mts10000_k50_ec075_g099_lra3e-4_lrc3e-3/04093ca98f76925b46d8e425639cb467aa73d951_ligand_9.pdbqt
 14 15 0 0 0
SMALL
GASTEIGER

@<TRIPOS>ATOM
      1  C          5.8980    1.2650   -0.2820 C.3     1  UNL1        0.0800
      2  C          5.2730    1.2980    1.0530 C.2     1  UNL1        0.1300
      3  C          5.5700    0.1000    1.9390 C.3     1  UNL1        0.0870
      4  O          4.5680    2.1490    1.5140 O.2     1  UNL1       -0.3000
      5  C          7.3350    0.9220   -0.3200 C.3     1  UNL1        0.0430
      6  C          7.6980   -0.3840   -0.8790 C.2     1  UNL1       -0.0440
      7  C          7.8290   -0.5940   -2.2530 C.2     1  UNL1        0.0080
      8  C          7.9500   -1.4450   -0.0410 C.2     1  UNL1        0.0540
      9  C          8.1980   -1.8350   -2.7040 C.2     1  UNL1        0.0510
     10  C          8.3270   -2.7050   -0.5310 C.2     1  UNL1        0.1660
     11  C          8.4550   -2.9130   -1.8870 C.2     1  UNL1        0.1650
     12  O          8.6360   -3.9240    0.0590 O.2     1  UNL1       -0.4540
     13  O          8.8370   -4.2430   -2.1040 O.2     1  UNL1       -0.4540
     14  C          9.3910   -4.6770   -0.8790 C.3     1  UNL1        0.4680
@<TRIPOS>BOND
     1     9     7    1
     2     9    11    2
     3     7     6    2
     4    13    11    1
     5    13    14    1
     6    11    10    1
     7     6     5    1
     8     6     8    1
     9    14    12    1
    10    10     8    2
    11    10    12    1
    12     5     1    1
    13     1     2    1
    14     2     4    2
    15     2     3    1
