@<TRIPOS>MOLECULE
/home/cewinharhar/GITHUB/reincatalyze/data/processed/docking_pred/2023-May-31-1727_sub9_nm5_bs15_s42_ex16_mel10_mts10000_k50_ec075_g099_lra3e-4_lrc3e-3/0493ae4577fb245076a56c9e7bbbfc493763ce5a_ligand_9.pdbqt
 14 15 0 0 0
SMALL
GASTEIGER

@<TRIPOS>ATOM
      1  C          6.5620    1.3560    0.0240 C.3     1  UNL1        0.0800
      2  C          5.3180    1.4000    0.8150 C.2     1  UNL1        0.1300
      3  C          5.2150    0.3650    1.9220 C.3     1  UNL1        0.0870
      4  O          4.3920    2.1500    0.6880 O.2     1  UNL1       -0.3000
      5  C          6.6220    0.3290   -1.0370 C.3     1  UNL1        0.0430
      6  C          7.3400   -0.9110   -0.7300 C.2     1  UNL1       -0.0440
      7  C          7.5800   -1.3260    0.5800 C.2     1  UNL1        0.0080
      8  C          7.7770   -1.7240   -1.7500 C.2     1  UNL1        0.0540
      9  C          8.2340   -2.5120    0.7950 C.2     1  UNL1        0.0510
     10  C          8.4440   -2.9330   -1.5020 C.2     1  UNL1        0.1660
     11  C          8.6820   -3.3430   -0.2090 C.2     1  UNL1        0.1650
     12  O          8.9830   -3.9290   -2.3080 O.2     1  UNL1       -0.4540
     13  O          9.3560   -4.5700   -0.2420 O.2     1  UNL1       -0.4540
     14  C          9.0930   -5.1060   -1.5220 C.3     1  UNL1        0.4680
@<TRIPOS>BOND
     1    12    14    1
     2    12    10    1
     3     8    10    1
     4     8     6    2
     5    14    13    1
     6    10    11    2
     7     5     6    1
     8     5     1    1
     9     6     7    1
    10    13    11    1
    11    11     9    1
    12     1     2    1
    13     7     9    2
    14     4     2    2
    15     2     3    1
