@<TRIPOS>MOLECULE
/home/cewinharhar/GITHUB/reincatalyze/data/processed/docking_pred/2023-May-31-1727_sub9_nm5_bs15_s42_ex16_mel10_mts10000_k50_ec075_g099_lra3e-4_lrc3e-3/0493ae4577fb245076a56c9e7bbbfc493763ce5a_ligand_9.pdbqt
 14 15 0 0 0
SMALL
GASTEIGER

@<TRIPOS>ATOM
      1  C          5.6800    1.7150    1.1160 C.3     1  UNL1        0.0800
      2  C          5.1560    0.6490    1.9890 C.2     1  UNL1        0.1300
      3  C          6.1020   -0.5140    2.2330 C.3     1  UNL1        0.0870
      4  O          4.0850    0.5960    2.5220 O.2     1  UNL1       -0.3000
      5  C          5.5890    1.4700   -0.3390 C.3     1  UNL1        0.0430
      6  C          6.6940    0.7410   -0.9670 C.2     1  UNL1       -0.0440
      7  C          8.0150    1.1900   -0.8980 C.2     1  UNL1        0.0080
      8  C          6.4530   -0.4400   -1.6280 C.2     1  UNL1        0.0540
      9  C          9.0030    0.4430   -1.4850 C.2     1  UNL1        0.0510
     10  C          7.4850   -1.1840   -2.2200 C.2     1  UNL1        0.1660
     11  C          8.7880   -0.7420   -2.1530 C.2     1  UNL1        0.1650
     12  O          7.5380   -2.3770   -2.9320 O.2     1  UNL1       -0.4540
     13  O          9.6100   -1.6600   -2.8170 O.2     1  UNL1       -0.4540
     14  C          8.8700   -2.8630   -2.8580 C.3     1  UNL1        0.4680
@<TRIPOS>BOND
     1    12    14    1
     2    12    10    1
     3    14    13    1
     4    13    11    1
     5    10    11    2
     6    10     8    1
     7    11     9    1
     8     8     6    2
     9     9     7    2
    10     6     7    1
    11     6     5    1
    12     5     1    1
    13     1     2    1
    14     2     3    1
    15     2     4    2
