@<TRIPOS>MOLECULE
/home/cewinharhar/GITHUB/reincatalyze/data/processed/docking_pred/2023-May-31-1727_sub9_nm5_bs15_s42_ex16_mel10_mts10000_k50_ec075_g099_lra3e-4_lrc3e-3/0493ae4577fb245076a56c9e7bbbfc493763ce5a_ligand_9.pdbqt
 14 15 0 0 0
SMALL
GASTEIGER

@<TRIPOS>ATOM
      1  C          5.3710   -0.0580    1.9430 C.3     1  UNL1        0.0800
      2  C          4.4260    1.0700    1.8440 C.2     1  UNL1        0.1300
      3  C          4.7570    2.1040    0.7820 C.3     1  UNL1        0.0870
      4  O          3.4400    1.2620    2.4970 O.2     1  UNL1       -0.3000
      5  C          6.7920    0.2600    1.6940 C.3     1  UNL1        0.0430
      6  C          7.3350   -0.0850    0.3770 C.2     1  UNL1       -0.0440
      7  C          7.7690    0.8870   -0.5260 C.2     1  UNL1        0.0080
      8  C          7.4570   -1.4030    0.0060 C.2     1  UNL1        0.0540
      9  C          8.2920    0.4920   -1.7310 C.2     1  UNL1        0.0510
     10  C          7.9960   -1.7800   -1.2340 C.2     1  UNL1        0.1660
     11  C          8.4240   -0.8210   -2.1250 C.2     1  UNL1        0.1650
     12  O          8.2350   -2.9970   -1.8600 O.2     1  UNL1       -0.4540
     13  O          8.9130   -1.4590   -3.2720 O.2     1  UNL1       -0.4540
     14  C          9.2120   -2.7780   -2.8670 C.3     1  UNL1        0.4680
@<TRIPOS>BOND
     1    13    14    1
     2    13    11    1
     3    14    12    1
     4    11     9    2
     5    11    10    1
     6    12    10    1
     7     9     7    1
     8    10     8    2
     9     7     6    2
    10     8     6    1
    11     6     5    1
    12     3     2    1
    13     5     1    1
    14     2     1    1
    15     2     4    2
