MODEL 1
REMARK VINA RESULT:      -7.5      0.000      0.000
REMARK SMILES CC(=O)CCc1ccc2c(c1)OCO2
REMARK SMILES IDX 4 1 2 2 1 3 3 4 5 5 6 6 7 7 11 8 8 9 10 10 9 11 12 12 14 13
REMARK SMILES IDX 13 14
REMARK H PARENT
REMARK Flexibility Score: inf
ROOT
ATOM      1  C   UNL     1       5.680   1.715   1.116  1.00  0.00     0.080 C 
ENDROOT
BRANCH   1   2
ATOM      2  C   UNL     1       5.156   0.649   1.989  1.00  0.00     0.130 C 
ATOM      3  C   UNL     1       6.102  -0.514   2.233  1.00  0.00     0.087 C 
ATOM      4  O   UNL     1       4.085   0.596   2.522  1.00  0.00    -0.300 OA
ENDBRANCH   1   2
BRANCH   1   5
ATOM      5  C   UNL     1       5.589   1.470  -0.339  1.00  0.00     0.043 C 
BRANCH   5   6
ATOM      6  C   UNL     1       6.694   0.741  -0.967  1.00  0.00    -0.044 A 
ATOM      7  C   UNL     1       8.015   1.190  -0.898  1.00  0.00     0.008 A 
ATOM      8  C   UNL     1       6.453  -0.440  -1.628  1.00  0.00     0.054 A 
ATOM      9  C   UNL     1       9.003   0.443  -1.485  1.00  0.00     0.051 A 
ATOM     10  C   UNL     1       7.485  -1.184  -2.220  1.00  0.00     0.166 A 
ATOM     11  C   UNL     1       8.788  -0.742  -2.153  1.00  0.00     0.165 A 
ATOM     12  O   UNL     1       7.538  -2.377  -2.932  1.00  0.00    -0.454 OA
ATOM     13  O   UNL     1       9.610  -1.660  -2.817  1.00  0.00    -0.454 OA
ATOM     14  C   UNL     1       8.870  -2.863  -2.858  1.00  0.00     0.468 C 
ENDBRANCH   5   6
ENDBRANCH   1   5
TORSDOF 3
ENDMDL
MODEL 2
REMARK VINA RESULT:      -6.9      1.799      2.163
REMARK SMILES CC(=O)CCc1ccc2c(c1)OCO2
REMARK SMILES IDX 4 1 2 2 1 3 3 4 5 5 6 6 7 7 11 8 8 9 10 10 9 11 12 12 14 13
REMARK SMILES IDX 13 14
REMARK H PARENT
REMARK Flexibility Score: inf
ROOT
ATOM      1  C   UNL     1       6.017   1.495  -0.092  1.00  0.00     0.080 C 
ENDROOT
BRANCH   1   2
ATOM      2  C   UNL     1       5.150   1.397   1.096  1.00  0.00     0.130 C 
ATOM      3  C   UNL     1       5.401   0.192   1.987  1.00  0.00     0.087 C 
ATOM      4  O   UNL     1       4.282   2.150   1.437  1.00  0.00    -0.300 OA
ENDBRANCH   1   2
BRANCH   1   5
ATOM      5  C   UNL     1       7.387   0.959   0.055  1.00  0.00     0.043 C 
BRANCH   5   6
ATOM      6  C   UNL     1       7.689  -0.304  -0.625  1.00  0.00    -0.044 A 
ATOM      7  C   UNL     1       7.755  -0.402  -2.016  1.00  0.00     0.008 A 
ATOM      8  C   UNL     1       7.947  -1.437   0.110  1.00  0.00     0.054 A 
ATOM      9  C   UNL     1       8.070  -1.609  -2.585  1.00  0.00     0.051 A 
ATOM     10  C   UNL     1       8.267  -2.661  -0.499  1.00  0.00     0.166 A 
ATOM     11  C   UNL     1       8.331  -2.758  -1.871  1.00  0.00     0.165 A 
ATOM     12  O   UNL     1       8.566  -3.932  -0.025  1.00  0.00    -0.454 OA
ATOM     13  O   UNL     1       8.667  -4.074  -2.214  1.00  0.00    -0.454 OA
ATOM     14  C   UNL     1       9.259  -4.622  -1.055  1.00  0.00     0.468 C 
ENDBRANCH   5   6
ENDBRANCH   1   5
TORSDOF 3
ENDMDL
MODEL 3
REMARK VINA RESULT:      -6.7      1.121      1.610
REMARK SMILES CC(=O)CCc1ccc2c(c1)OCO2
REMARK SMILES IDX 4 1 2 2 1 3 3 4 5 5 6 6 7 7 11 8 8 9 10 10 9 11 12 12 14 13
REMARK SMILES IDX 13 14
REMARK H PARENT
REMARK Flexibility Score: inf
ROOT
ATOM      1  C   UNL     1       5.371  -0.058   1.943  1.00  0.00     0.080 C 
ENDROOT
BRANCH   1   2
ATOM      2  C   UNL     1       4.426   1.070   1.844  1.00  0.00     0.130 C 
ATOM      3  C   UNL     1       4.757   2.104   0.782  1.00  0.00     0.087 C 
ATOM      4  O   UNL     1       3.440   1.262   2.497  1.00  0.00    -0.300 OA
ENDBRANCH   1   2
BRANCH   1   5
ATOM      5  C   UNL     1       6.792   0.260   1.694  1.00  0.00     0.043 C 
BRANCH   5   6
ATOM      6  C   UNL     1       7.335  -0.085   0.377  1.00  0.00    -0.044 A 
ATOM      7  C   UNL     1       7.769   0.887  -0.526  1.00  0.00     0.008 A 
ATOM      8  C   UNL     1       7.457  -1.403   0.006  1.00  0.00     0.054 A 
ATOM      9  C   UNL     1       8.292   0.492  -1.731  1.00  0.00     0.051 A 
ATOM     10  C   UNL     1       7.996  -1.780  -1.234  1.00  0.00     0.166 A 
ATOM     11  C   UNL     1       8.424  -0.821  -2.125  1.00  0.00     0.165 A 
ATOM     12  O   UNL     1       8.235  -2.997  -1.860  1.00  0.00    -0.454 OA
ATOM     13  O   UNL     1       8.913  -1.459  -3.272  1.00  0.00    -0.454 OA
ATOM     14  C   UNL     1       9.212  -2.778  -2.867  1.00  0.00     0.468 C 
ENDBRANCH   5   6
ENDBRANCH   1   5
TORSDOF 3
ENDMDL
MODEL 4
REMARK VINA RESULT:      -6.6      1.884      2.325
REMARK SMILES CC(=O)CCc1ccc2c(c1)OCO2
REMARK SMILES IDX 4 1 2 2 1 3 3 4 5 5 6 6 7 7 11 8 8 9 10 10 9 11 12 12 14 13
REMARK SMILES IDX 13 14
REMARK H PARENT
REMARK Flexibility Score: inf
ROOT
ATOM      1  C   UNL     1       5.956   0.333   1.799  1.00  0.00     0.080 C 
ENDROOT
BRANCH   1   2
ATOM      2  C   UNL     1       4.818   1.239   1.558  1.00  0.00     0.130 C 
ATOM      3  C   UNL     1       4.957   2.149   0.350  1.00  0.00     0.087 C 
ATOM      4  O   UNL     1       3.809   1.338   2.196  1.00  0.00    -0.300 OA
ENDBRANCH   1   2
BRANCH   1   5
ATOM      5  C   UNL     1       7.142   0.534   0.941  1.00  0.00     0.043 C 
BRANCH   5   6
ATOM      6  C   UNL     1       7.496  -0.550   0.021  1.00  0.00    -0.044 A 
ATOM      7  C   UNL     1       7.496  -0.380  -1.365  1.00  0.00     0.008 A 
ATOM      8  C   UNL     1       7.872  -1.777   0.515  1.00  0.00     0.054 A 
ATOM      9  C   UNL     1       7.865  -1.430  -2.165  1.00  0.00     0.051 A 
ATOM     10  C   UNL     1       8.246  -2.835  -0.327  1.00  0.00     0.166 A 
ATOM     11  C   UNL     1       8.244  -2.668  -1.695  1.00  0.00     0.165 A 
ATOM     12  O   UNL     1       8.659  -4.145  -0.118  1.00  0.00    -0.454 OA
ATOM     13  O   UNL     1       8.653  -3.865  -2.295  1.00  0.00    -0.454 OA
ATOM     14  C   UNL     1       9.344  -4.572  -1.286  1.00  0.00     0.468 C 
ENDBRANCH   5   6
ENDBRANCH   1   5
TORSDOF 3
ENDMDL
MODEL 5
REMARK VINA RESULT:      -6.5      2.111      2.482
REMARK SMILES CC(=O)CCc1ccc2c(c1)OCO2
REMARK SMILES IDX 4 1 2 2 1 3 3 4 5 5 6 6 7 7 11 8 8 9 10 10 9 11 12 12 14 13
REMARK SMILES IDX 13 14
REMARK H PARENT
REMARK Flexibility Score: inf
ROOT
ATOM      1  C   UNL     1       6.562   1.356   0.024  1.00  0.00     0.080 C 
ENDROOT
BRANCH   1   2
ATOM      2  C   UNL     1       5.318   1.400   0.815  1.00  0.00     0.130 C 
ATOM      3  C   UNL     1       5.215   0.365   1.922  1.00  0.00     0.087 C 
ATOM      4  O   UNL     1       4.392   2.150   0.688  1.00  0.00    -0.300 OA
ENDBRANCH   1   2
BRANCH   1   5
ATOM      5  C   UNL     1       6.622   0.329  -1.037  1.00  0.00     0.043 C 
BRANCH   5   6
ATOM      6  C   UNL     1       7.340  -0.911  -0.730  1.00  0.00    -0.044 A 
ATOM      7  C   UNL     1       7.580  -1.326   0.580  1.00  0.00     0.008 A 
ATOM      8  C   UNL     1       7.777  -1.724  -1.750  1.00  0.00     0.054 A 
ATOM      9  C   UNL     1       8.234  -2.512   0.795  1.00  0.00     0.051 A 
ATOM     10  C   UNL     1       8.444  -2.933  -1.502  1.00  0.00     0.166 A 
ATOM     11  C   UNL     1       8.682  -3.343  -0.209  1.00  0.00     0.165 A 
ATOM     12  O   UNL     1       8.983  -3.929  -2.308  1.00  0.00    -0.454 OA
ATOM     13  O   UNL     1       9.356  -4.570  -0.242  1.00  0.00    -0.454 OA
ATOM     14  C   UNL     1       9.093  -5.106  -1.522  1.00  0.00     0.468 C 
ENDBRANCH   5   6
ENDBRANCH   1   5
TORSDOF 3
ENDMDL
