@<TRIPOS>MOLECULE
/home/cewinharhar/GITHUB/reincatalyze/data/processed/docking_pred/2023-May-31-1727_sub9_nm5_bs15_s42_ex16_mel10_mts10000_k50_ec075_g099_lra3e-4_lrc3e-3/04ddb75cd798430fba35b9e1d356ad9641e4fbfb_ligand_9.pdbqt
 14 15 0 0 0
SMALL
GASTEIGER

@<TRIPOS>ATOM
      1  C          5.3730   -0.1010    1.9300 C.3     1  UNL1        0.0800
      2  C          4.4500    1.0470    1.8670 C.2     1  UNL1        0.1300
      3  C          4.7940    2.1010    0.8280 C.3     1  UNL1        0.0870
      4  O          3.4730    1.2430    2.5320 O.2     1  UNL1       -0.3000
      5  C          6.8010    0.1970    1.6900 C.3     1  UNL1        0.0430
      6  C          7.3410   -0.1330    0.3680 C.2     1  UNL1       -0.0440
      7  C          7.7510    0.8490   -0.5350 C.2     1  UNL1        0.0080
      8  C          7.4850   -1.4480   -0.0080 C.2     1  UNL1        0.0540
      9  C          8.2730    0.4680   -1.7430 C.2     1  UNL1        0.0510
     10  C          8.0230   -1.8110   -1.2520 C.2     1  UNL1        0.1660
     11  C          8.4270   -0.8410   -2.1430 C.2     1  UNL1        0.1650
     12  O          8.2800   -3.0220   -1.8840 O.2     1  UNL1       -0.4540
     13  O          8.9210   -1.4670   -3.2960 O.2     1  UNL1       -0.4540
     14  C          9.2470   -2.7810   -2.8960 C.3     1  UNL1        0.4680
@<TRIPOS>BOND
     1    13    14    1
     2    13    11    1
     3    14    12    1
     4    11     9    2
     5    11    10    1
     6    12    10    1
     7     9     7    1
     8    10     8    2
     9     7     6    2
    10     8     6    1
    11     6     5    1
    12     3     2    1
    13     5     1    1
    14     2     1    1
    15     2     4    2
