@<TRIPOS>MOLECULE
/home/cewinharhar/GITHUB/reincatalyze/data/processed/docking_pred/2023-May-31-1727_sub9_nm5_bs15_s42_ex16_mel10_mts10000_k50_ec075_g099_lra3e-4_lrc3e-3/04ddb75cd798430fba35b9e1d356ad9641e4fbfb_ligand_9.pdbqt
 14 15 0 0 0
SMALL
GASTEIGER

@<TRIPOS>ATOM
      1  C          6.8600    0.9580    1.3390 C.3     1  UNL1        0.0800
      2  C          5.4030    1.1600    1.4330 C.2     1  UNL1        0.1300
      3  C          4.8190    2.1500    0.4390 C.3     1  UNL1        0.0870
      4  O          4.6350    0.6410    2.1920 O.2     1  UNL1       -0.3000
      5  C          7.4390    1.0060   -0.0200 C.3     1  UNL1        0.0430
      6  C          7.7100   -0.2740   -0.6790 C.2     1  UNL1       -0.0440
      7  C          7.7770   -0.3970   -2.0680 C.2     1  UNL1        0.0080
      8  C          7.9370   -1.4020    0.0740 C.2     1  UNL1        0.0540
      9  C          8.0620   -1.6200   -2.6160 C.2     1  UNL1        0.0510
     10  C          8.2270   -2.6430   -0.5130 C.2     1  UNL1        0.1660
     11  C          8.2930   -2.7640   -1.8840 C.2     1  UNL1        0.1650
     12  O          8.4930   -3.9140   -0.0190 O.2     1  UNL1       -0.4540
     13  O          8.5950   -4.0930   -2.2050 O.2     1  UNL1       -0.4540
     14  C          9.1710   -4.6380   -1.0360 C.3     1  UNL1        0.4680
@<TRIPOS>BOND
     1     9     7    1
     2     9    11    2
     3    13    11    1
     4    13    14    1
     5     7     6    2
     6    11    10    1
     7    14    12    1
     8     6     5    1
     9     6     8    1
    10    10    12    1
    11    10     8    2
    12     5     1    1
    13     3     2    1
    14     1     2    1
    15     2     4    2
