MODEL 1
REMARK VINA RESULT:      -7.6      0.000      0.000
REMARK SMILES CC(=O)CCc1ccc2c(c1)OCO2
REMARK SMILES IDX 4 1 2 2 1 3 3 4 5 5 6 6 7 7 11 8 8 9 10 10 9 11 12 12 14 13
REMARK SMILES IDX 13 14
REMARK H PARENT
REMARK Flexibility Score: inf
ROOT
ATOM      1  C   UNL     1       5.521   1.897   1.213  1.00  0.00     0.080 C 
ENDROOT
BRANCH   1   2
ATOM      2  C   UNL     1       5.008   0.762   2.001  1.00  0.00     0.130 C 
ATOM      3  C   UNL     1       5.957  -0.416   2.139  1.00  0.00     0.087 C 
ATOM      4  O   UNL     1       3.941   0.662   2.539  1.00  0.00    -0.300 OA
ENDBRANCH   1   2
BRANCH   1   5
ATOM      5  C   UNL     1       5.505   1.731  -0.255  1.00  0.00     0.043 C 
BRANCH   5   6
ATOM      6  C   UNL     1       6.619   0.995  -0.859  1.00  0.00    -0.044 A 
ATOM      7  C   UNL     1       7.949   1.377  -0.676  1.00  0.00     0.008 A 
ATOM      8  C   UNL     1       6.374  -0.130  -1.613  1.00  0.00     0.054 A 
ATOM      9  C   UNL     1       8.943   0.626  -1.249  1.00  0.00     0.051 A 
ATOM     10  C   UNL     1       7.411  -0.880  -2.187  1.00  0.00     0.166 A 
ATOM     11  C   UNL     1       8.723  -0.502  -2.007  1.00  0.00     0.165 A 
ATOM     12  O   UNL     1       7.462  -2.025  -2.972  1.00  0.00    -0.454 OA
ATOM     13  O   UNL     1       9.550  -1.413  -2.678  1.00  0.00    -0.454 OA
ATOM     14  C   UNL     1       8.765  -2.575  -2.846  1.00  0.00     0.468 C 
ENDBRANCH   5   6
ENDBRANCH   1   5
TORSDOF 3
ENDMDL
MODEL 2
REMARK VINA RESULT:      -7.0      1.865      2.371
REMARK SMILES CC(=O)CCc1ccc2c(c1)OCO2
REMARK SMILES IDX 4 1 2 2 1 3 3 4 5 5 6 6 7 7 11 8 8 9 10 10 9 11 12 12 14 13
REMARK SMILES IDX 13 14
REMARK H PARENT
REMARK Flexibility Score: inf
ROOT
ATOM      1  C   UNL     1       5.773   1.263  -0.271  1.00  0.00     0.080 C 
ENDROOT
BRANCH   1   2
ATOM      2  C   UNL     1       5.154   1.305   1.066  1.00  0.00     0.130 C 
ATOM      3  C   UNL     1       5.480   0.129   1.971  1.00  0.00     0.087 C 
ATOM      4  O   UNL     1       4.434   2.150   1.517  1.00  0.00    -0.300 OA
ENDBRANCH   1   2
BRANCH   1   5
ATOM      5  C   UNL     1       7.210   0.918  -0.313  1.00  0.00     0.043 C 
BRANCH   5   6
ATOM      6  C   UNL     1       7.571  -0.377  -0.896  1.00  0.00    -0.044 A 
ATOM      7  C   UNL     1       7.656  -0.574  -2.276  1.00  0.00     0.008 A 
ATOM      8  C   UNL     1       7.868  -1.442  -0.078  1.00  0.00     0.054 A 
ATOM      9  C   UNL     1       8.026  -1.805  -2.751  1.00  0.00     0.051 A 
ATOM     10  C   UNL     1       8.245  -2.692  -0.592  1.00  0.00     0.166 A 
ATOM     11  C   UNL     1       8.328  -2.887  -1.954  1.00  0.00     0.165 A 
ATOM     12  O   UNL     1       8.592  -3.912  -0.025  1.00  0.00    -0.454 OA
ATOM     13  O   UNL     1       8.721  -4.209  -2.196  1.00  0.00    -0.454 OA
ATOM     14  C   UNL     1       9.324  -4.646  -0.996  1.00  0.00     0.468 C 
ENDBRANCH   5   6
ENDBRANCH   1   5
TORSDOF 3
ENDMDL
MODEL 3
REMARK VINA RESULT:      -7.0      1.109      1.210
REMARK SMILES CC(=O)CCc1ccc2c(c1)OCO2
REMARK SMILES IDX 4 1 2 2 1 3 3 4 5 5 6 6 7 7 11 8 8 9 10 10 9 11 12 12 14 13
REMARK SMILES IDX 13 14
REMARK H PARENT
REMARK Flexibility Score: inf
ROOT
ATOM      1  C   UNL     1       6.250   1.200   0.915  1.00  0.00     0.080 C 
ENDROOT
BRANCH   1   2
ATOM      2  C   UNL     1       5.551   0.404   1.939  1.00  0.00     0.130 C 
ATOM      3  C   UNL     1       6.301  -0.820   2.435  1.00  0.00     0.087 C 
ATOM      4  O   UNL     1       4.473   0.608   2.420  1.00  0.00    -0.300 OA
ENDBRANCH   1   2
BRANCH   1   5
ATOM      5  C   UNL     1       5.900   0.906  -0.491  1.00  0.00     0.043 C 
BRANCH   5   6
ATOM      6  C   UNL     1       6.865   0.129  -1.273  1.00  0.00    -0.044 A 
ATOM      7  C   UNL     1       7.786   0.733  -2.131  1.00  0.00     0.008 A 
ATOM      8  C   UNL     1       6.903  -1.241  -1.155  1.00  0.00     0.054 A 
ATOM      9  C   UNL     1       8.678  -0.055  -2.812  1.00  0.00     0.051 A 
ATOM     10  C   UNL     1       7.828  -2.023  -1.864  1.00  0.00     0.166 A 
ATOM     11  C   UNL     1       8.736  -1.427  -2.711  1.00  0.00     0.165 A 
ATOM     12  O   UNL     1       8.092  -3.385  -1.941  1.00  0.00    -0.454 OA
ATOM     13  O   UNL     1       9.534  -2.423  -3.288  1.00  0.00    -0.454 OA
ATOM     14  C   UNL     1       9.416  -3.539  -2.431  1.00  0.00     0.468 C 
ENDBRANCH   5   6
ENDBRANCH   1   5
TORSDOF 3
ENDMDL
MODEL 4
REMARK VINA RESULT:      -6.8      1.886      2.432
REMARK SMILES CC(=O)CCc1ccc2c(c1)OCO2
REMARK SMILES IDX 4 1 2 2 1 3 3 4 5 5 6 6 7 7 11 8 8 9 10 10 9 11 12 12 14 13
REMARK SMILES IDX 13 14
REMARK H PARENT
REMARK Flexibility Score: inf
ROOT
ATOM      1  C   UNL     1       6.860   0.958   1.339  1.00  0.00     0.080 C 
ENDROOT
BRANCH   1   2
ATOM      2  C   UNL     1       5.403   1.160   1.433  1.00  0.00     0.130 C 
ATOM      3  C   UNL     1       4.819   2.150   0.439  1.00  0.00     0.087 C 
ATOM      4  O   UNL     1       4.635   0.641   2.192  1.00  0.00    -0.300 OA
ENDBRANCH   1   2
BRANCH   1   5
ATOM      5  C   UNL     1       7.439   1.006  -0.020  1.00  0.00     0.043 C 
BRANCH   5   6
ATOM      6  C   UNL     1       7.710  -0.274  -0.679  1.00  0.00    -0.044 A 
ATOM      7  C   UNL     1       7.777  -0.397  -2.068  1.00  0.00     0.008 A 
ATOM      8  C   UNL     1       7.937  -1.402   0.074  1.00  0.00     0.054 A 
ATOM      9  C   UNL     1       8.062  -1.620  -2.616  1.00  0.00     0.051 A 
ATOM     10  C   UNL     1       8.227  -2.643  -0.513  1.00  0.00     0.166 A 
ATOM     11  C   UNL     1       8.293  -2.764  -1.884  1.00  0.00     0.165 A 
ATOM     12  O   UNL     1       8.493  -3.914  -0.019  1.00  0.00    -0.454 OA
ATOM     13  O   UNL     1       8.595  -4.093  -2.205  1.00  0.00    -0.454 OA
ATOM     14  C   UNL     1       9.171  -4.638  -1.036  1.00  0.00     0.468 C 
ENDBRANCH   5   6
ENDBRANCH   1   5
TORSDOF 3
ENDMDL
MODEL 5
REMARK VINA RESULT:      -6.8      1.169      1.666
REMARK SMILES CC(=O)CCc1ccc2c(c1)OCO2
REMARK SMILES IDX 4 1 2 2 1 3 3 4 5 5 6 6 7 7 11 8 8 9 10 10 9 11 12 12 14 13
REMARK SMILES IDX 13 14
REMARK H PARENT
REMARK Flexibility Score: inf
ROOT
ATOM      1  C   UNL     1       5.373  -0.101   1.930  1.00  0.00     0.080 C 
ENDROOT
BRANCH   1   2
ATOM      2  C   UNL     1       4.450   1.047   1.867  1.00  0.00     0.130 C 
ATOM      3  C   UNL     1       4.794   2.101   0.828  1.00  0.00     0.087 C 
ATOM      4  O   UNL     1       3.473   1.243   2.532  1.00  0.00    -0.300 OA
ENDBRANCH   1   2
BRANCH   1   5
ATOM      5  C   UNL     1       6.801   0.197   1.690  1.00  0.00     0.043 C 
BRANCH   5   6
ATOM      6  C   UNL     1       7.341  -0.133   0.368  1.00  0.00    -0.044 A 
ATOM      7  C   UNL     1       7.751   0.849  -0.535  1.00  0.00     0.008 A 
ATOM      8  C   UNL     1       7.485  -1.448  -0.008  1.00  0.00     0.054 A 
ATOM      9  C   UNL     1       8.273   0.468  -1.743  1.00  0.00     0.051 A 
ATOM     10  C   UNL     1       8.023  -1.811  -1.252  1.00  0.00     0.166 A 
ATOM     11  C   UNL     1       8.427  -0.841  -2.143  1.00  0.00     0.165 A 
ATOM     12  O   UNL     1       8.280  -3.022  -1.884  1.00  0.00    -0.454 OA
ATOM     13  O   UNL     1       8.921  -1.467  -3.296  1.00  0.00    -0.454 OA
ATOM     14  C   UNL     1       9.247  -2.781  -2.896  1.00  0.00     0.468 C 
ENDBRANCH   5   6
ENDBRANCH   1   5
TORSDOF 3
ENDMDL
