@<TRIPOS>MOLECULE
/home/cewinharhar/GITHUB/reincatalyze/data/processed/docking_pred/2023-May-31-1727_sub9_nm5_bs15_s42_ex16_mel10_mts10000_k50_ec075_g099_lra3e-4_lrc3e-3/04ddb75cd798430fba35b9e1d356ad9641e4fbfb_ligand_9.pdbqt
 14 15 0 0 0
SMALL
GASTEIGER

@<TRIPOS>ATOM
      1  C          5.5210    1.8970    1.2130 C.3     1  UNL1        0.0800
      2  C          5.0080    0.7620    2.0010 C.2     1  UNL1        0.1300
      3  C          5.9570   -0.4160    2.1390 C.3     1  UNL1        0.0870
      4  O          3.9410    0.6620    2.5390 O.2     1  UNL1       -0.3000
      5  C          5.5050    1.7310   -0.2550 C.3     1  UNL1        0.0430
      6  C          6.6190    0.9950   -0.8590 C.2     1  UNL1       -0.0440
      7  C          7.9490    1.3770   -0.6760 C.2     1  UNL1        0.0080
      8  C          6.3740   -0.1300   -1.6130 C.2     1  UNL1        0.0540
      9  C          8.9430    0.6260   -1.2490 C.2     1  UNL1        0.0510
     10  C          7.4110   -0.8800   -2.1870 C.2     1  UNL1        0.1660
     11  C          8.7230   -0.5020   -2.0070 C.2     1  UNL1        0.1650
     12  O          7.4620   -2.0250   -2.9720 O.2     1  UNL1       -0.4540
     13  O          9.5500   -1.4130   -2.6780 O.2     1  UNL1       -0.4540
     14  C          8.7650   -2.5750   -2.8460 C.3     1  UNL1        0.4680
@<TRIPOS>BOND
     1    12    14    1
     2    12    10    1
     3    14    13    1
     4    13    11    1
     5    10    11    2
     6    10     8    1
     7    11     9    1
     8     8     6    2
     9     9     7    2
    10     6     7    1
    11     6     5    1
    12     5     1    1
    13     1     2    1
    14     2     3    1
    15     2     4    2
