@<TRIPOS>MOLECULE
/home/cewinharhar/GITHUB/reincatalyze/data/processed/docking_pred/2023-May-31-1727_sub9_nm5_bs15_s42_ex16_mel10_mts10000_k50_ec075_g099_lra3e-4_lrc3e-3/04ddb75cd798430fba35b9e1d356ad9641e4fbfb_ligand_9.pdbqt
 14 15 0 0 0
SMALL
GASTEIGER

@<TRIPOS>ATOM
      1  C          6.2500    1.2000    0.9150 C.3     1  UNL1        0.0800
      2  C          5.5510    0.4040    1.9390 C.2     1  UNL1        0.1300
      3  C          6.3010   -0.8200    2.4350 C.3     1  UNL1        0.0870
      4  O          4.4730    0.6080    2.4200 O.2     1  UNL1       -0.3000
      5  C          5.9000    0.9060   -0.4910 C.3     1  UNL1        0.0430
      6  C          6.8650    0.1290   -1.2730 C.2     1  UNL1       -0.0440
      7  C          7.7860    0.7330   -2.1310 C.2     1  UNL1        0.0080
      8  C          6.9030   -1.2410   -1.1550 C.2     1  UNL1        0.0540
      9  C          8.6780   -0.0550   -2.8120 C.2     1  UNL1        0.0510
     10  C          7.8280   -2.0230   -1.8640 C.2     1  UNL1        0.1660
     11  C          8.7360   -1.4270   -2.7110 C.2     1  UNL1        0.1650
     12  O          8.0920   -3.3850   -1.9410 O.2     1  UNL1       -0.4540
     13  O          9.5340   -2.4230   -3.2880 O.2     1  UNL1       -0.4540
     14  C          9.4160   -3.5390   -2.4310 C.3     1  UNL1        0.4680
@<TRIPOS>BOND
     1    13    11    1
     2    13    14    1
     3     9    11    2
     4     9     7    1
     5    11    10    1
     6    14    12    1
     7     7     6    2
     8    12    10    1
     9    10     8    2
    10     6     8    1
    11     6     5    1
    12     5     1    1
    13     1     2    1
    14     2     4    2
    15     2     3    1
