@<TRIPOS>MOLECULE
/home/cewinharhar/GITHUB/reincatalyze/data/processed/docking_pred/2023-May-31-1727_sub9_nm5_bs15_s42_ex16_mel10_mts10000_k50_ec075_g099_lra3e-4_lrc3e-3/051d9442833557c4466992e4bdada3c2de553c76_ligand_9.pdbqt
 14 15 0 0 0
SMALL
GASTEIGER

@<TRIPOS>ATOM
      1  C          5.5960    1.8770    1.2400 C.3     1  UNL1        0.0800
      2  C          5.0530    0.7380    2.0030 C.2     1  UNL1        0.1300
      3  C          5.9990   -0.4380    2.1750 C.3     1  UNL1        0.0870
      4  O          3.9660    0.6350    2.4960 O.2     1  UNL1       -0.3000
      5  C          5.5780    1.7430   -0.2320 C.3     1  UNL1        0.0430
      6  C          6.6760    0.9930   -0.8490 C.2     1  UNL1       -0.0440
      7  C          8.0120    1.3600   -0.6870 C.2     1  UNL1        0.0080
      8  C          6.4070   -0.1310   -1.5970 C.2     1  UNL1        0.0540
      9  C          8.9900    0.5970   -1.2710 C.2     1  UNL1        0.0510
     10  C          7.4280   -0.8940   -2.1830 C.2     1  UNL1        0.1660
     11  C          8.7470   -0.5310   -2.0230 C.2     1  UNL1        0.1650
     12  O          7.4540   -2.0420   -2.9670 O.2     1  UNL1       -0.4540
     13  O          9.5530   -1.4520   -2.7030 O.2     1  UNL1       -0.4540
     14  C          8.7530   -2.6060   -2.8580 C.3     1  UNL1        0.4680
@<TRIPOS>BOND
     1    12    14    1
     2    12    10    1
     3    14    13    1
     4    13    11    1
     5    10    11    2
     6    10     8    1
     7    11     9    1
     8     8     6    2
     9     9     7    2
    10     6     7    1
    11     6     5    1
    12     5     1    1
    13     1     2    1
    14     2     3    1
    15     2     4    2
