@<TRIPOS>MOLECULE
/home/cewinharhar/GITHUB/reincatalyze/data/processed/docking_pred/2023-May-31-1727_sub9_nm5_bs15_s42_ex16_mel10_mts10000_k50_ec075_g099_lra3e-4_lrc3e-3/051d9442833557c4466992e4bdada3c2de553c76_ligand_9.pdbqt
 14 15 0 0 0
SMALL
GASTEIGER

@<TRIPOS>ATOM
      1  C          5.7500    1.1730   -0.3410 C.3     1  UNL1        0.0800
      2  C          5.1860    1.2500    1.0190 C.2     1  UNL1        0.1300
      3  C          5.4370    0.0360    1.8970 C.3     1  UNL1        0.0870
      4  O          4.5610    2.1490    1.5060 O.2     1  UNL1       -0.3000
      5  C          7.2030    0.9210   -0.4290 C.3     1  UNL1        0.0430
      6  C          7.6280   -0.3660   -0.9880 C.2     1  UNL1       -0.0440
      7  C          7.8660   -0.5430   -2.3520 C.2     1  UNL1        0.0080
      8  C          7.8320   -1.4440   -0.1570 C.2     1  UNL1        0.0540
      9  C          8.2870   -1.7680   -2.8010 C.2     1  UNL1        0.0510
     10  C          8.2640   -2.6860   -0.6450 C.2     1  UNL1        0.1660
     11  C          8.4980   -2.8610   -1.9910 C.2     1  UNL1        0.1650
     12  O          8.5460   -3.9150   -0.0600 O.2     1  UNL1       -0.4540
     13  O          8.9160   -4.1800   -2.2080 O.2     1  UNL1       -0.4540
     14  C          9.3820   -4.6350   -0.9540 C.3     1  UNL1        0.4680
@<TRIPOS>BOND
     1     9     7    1
     2     9    11    2
     3     7     6    2
     4    13    11    1
     5    13    14    1
     6    11    10    1
     7     6     5    1
     8     6     8    1
     9    14    12    1
    10    10     8    2
    11    10    12    1
    12     5     1    1
    13     1     2    1
    14     2     4    2
    15     2     3    1
