@<TRIPOS>MOLECULE
/home/cewinharhar/GITHUB/reincatalyze/data/processed/docking_pred/2023-May-31-1727_sub9_nm5_bs15_s42_ex16_mel10_mts10000_k50_ec075_g099_lra3e-4_lrc3e-3/051d9442833557c4466992e4bdada3c2de553c76_ligand_9.pdbqt
 14 15 0 0 0
SMALL
GASTEIGER

@<TRIPOS>ATOM
      1  C          6.9320    1.2350    1.2160 C.3     1  UNL1        0.0800
      2  C          5.4680    1.2310    1.3860 C.2     1  UNL1        0.1300
      3  C          4.7020    2.1490    0.4480 C.3     1  UNL1        0.0870
      4  O          4.8200    0.5950    2.1680 O.2     1  UNL1       -0.3000
      5  C          7.4270    1.2020   -0.1770 C.3     1  UNL1        0.0430
      6  C          7.6720   -0.1150   -0.7700 C.2     1  UNL1       -0.0440
      7  C          7.6960   -0.3160   -2.1520 C.2     1  UNL1        0.0080
      8  C          7.9170   -1.2000    0.0390 C.2     1  UNL1        0.0540
      9  C          7.9580   -1.5700   -2.6380 C.2     1  UNL1        0.0510
     10  C          8.1840   -2.4730   -0.4870 C.2     1  UNL1        0.1660
     11  C          8.2060   -2.6720   -1.8500 C.2     1  UNL1        0.1650
     12  O          8.4590   -3.7160    0.0700 O.2     1  UNL1       -0.4540
     13  O          8.4930   -4.0190   -2.1040 O.2     1  UNL1       -0.4540
     14  C          9.1020   -4.5000   -0.9240 C.3     1  UNL1        0.4680
@<TRIPOS>BOND
     1     9     7    1
     2     9    11    2
     3     7     6    2
     4    13    11    1
     5    13    14    1
     6    11    10    1
     7    14    12    1
     8     6     5    1
     9     6     8    1
    10    10     8    2
    11    10    12    1
    12     5     1    1
    13     3     2    1
    14     1     2    1
    15     2     4    2
