MODEL 1
REMARK VINA RESULT:      -7.5      0.000      0.000
REMARK SMILES CC(=O)CCc1ccc2c(c1)OCO2
REMARK SMILES IDX 4 1 2 2 1 3 3 4 5 5 6 6 7 7 11 8 8 9 10 10 9 11 12 12 14 13
REMARK SMILES IDX 13 14
REMARK H PARENT
REMARK Flexibility Score: inf
ROOT
ATOM      1  C   UNL     1       5.596   1.877   1.240  1.00  0.00     0.080 C 
ENDROOT
BRANCH   1   2
ATOM      2  C   UNL     1       5.053   0.738   2.003  1.00  0.00     0.130 C 
ATOM      3  C   UNL     1       5.999  -0.438   2.175  1.00  0.00     0.087 C 
ATOM      4  O   UNL     1       3.966   0.635   2.496  1.00  0.00    -0.300 OA
ENDBRANCH   1   2
BRANCH   1   5
ATOM      5  C   UNL     1       5.578   1.743  -0.232  1.00  0.00     0.043 C 
BRANCH   5   6
ATOM      6  C   UNL     1       6.676   0.993  -0.849  1.00  0.00    -0.044 A 
ATOM      7  C   UNL     1       8.012   1.360  -0.687  1.00  0.00     0.008 A 
ATOM      8  C   UNL     1       6.407  -0.131  -1.597  1.00  0.00     0.054 A 
ATOM      9  C   UNL     1       8.990   0.597  -1.271  1.00  0.00     0.051 A 
ATOM     10  C   UNL     1       7.428  -0.894  -2.183  1.00  0.00     0.166 A 
ATOM     11  C   UNL     1       8.747  -0.531  -2.023  1.00  0.00     0.165 A 
ATOM     12  O   UNL     1       7.454  -2.042  -2.967  1.00  0.00    -0.454 OA
ATOM     13  O   UNL     1       9.553  -1.452  -2.703  1.00  0.00    -0.454 OA
ATOM     14  C   UNL     1       8.753  -2.606  -2.858  1.00  0.00     0.468 C 
ENDBRANCH   5   6
ENDBRANCH   1   5
TORSDOF 3
ENDMDL
MODEL 2
REMARK VINA RESULT:      -6.8      1.849      2.337
REMARK SMILES CC(=O)CCc1ccc2c(c1)OCO2
REMARK SMILES IDX 4 1 2 2 1 3 3 4 5 5 6 6 7 7 11 8 8 9 10 10 9 11 12 12 14 13
REMARK SMILES IDX 13 14
REMARK H PARENT
REMARK Flexibility Score: inf
ROOT
ATOM      1  C   UNL     1       5.750   1.173  -0.341  1.00  0.00     0.080 C 
ENDROOT
BRANCH   1   2
ATOM      2  C   UNL     1       5.186   1.250   1.019  1.00  0.00     0.130 C 
ATOM      3  C   UNL     1       5.437   0.036   1.897  1.00  0.00     0.087 C 
ATOM      4  O   UNL     1       4.561   2.149   1.506  1.00  0.00    -0.300 OA
ENDBRANCH   1   2
BRANCH   1   5
ATOM      5  C   UNL     1       7.203   0.921  -0.429  1.00  0.00     0.043 C 
BRANCH   5   6
ATOM      6  C   UNL     1       7.628  -0.366  -0.988  1.00  0.00    -0.044 A 
ATOM      7  C   UNL     1       7.866  -0.543  -2.352  1.00  0.00     0.008 A 
ATOM      8  C   UNL     1       7.832  -1.444  -0.157  1.00  0.00     0.054 A 
ATOM      9  C   UNL     1       8.287  -1.768  -2.801  1.00  0.00     0.051 A 
ATOM     10  C   UNL     1       8.264  -2.686  -0.645  1.00  0.00     0.166 A 
ATOM     11  C   UNL     1       8.498  -2.861  -1.991  1.00  0.00     0.165 A 
ATOM     12  O   UNL     1       8.546  -3.915  -0.060  1.00  0.00    -0.454 OA
ATOM     13  O   UNL     1       8.916  -4.180  -2.208  1.00  0.00    -0.454 OA
ATOM     14  C   UNL     1       9.382  -4.635  -0.954  1.00  0.00     0.468 C 
ENDBRANCH   5   6
ENDBRANCH   1   5
TORSDOF 3
ENDMDL
MODEL 3
REMARK VINA RESULT:      -6.6      1.849      2.380
REMARK SMILES CC(=O)CCc1ccc2c(c1)OCO2
REMARK SMILES IDX 4 1 2 2 1 3 3 4 5 5 6 6 7 7 11 8 8 9 10 10 9 11 12 12 14 13
REMARK SMILES IDX 13 14
REMARK H PARENT
REMARK Flexibility Score: inf
ROOT
ATOM      1  C   UNL     1       6.932   1.235   1.216  1.00  0.00     0.080 C 
ENDROOT
BRANCH   1   2
ATOM      2  C   UNL     1       5.468   1.231   1.386  1.00  0.00     0.130 C 
ATOM      3  C   UNL     1       4.702   2.149   0.448  1.00  0.00     0.087 C 
ATOM      4  O   UNL     1       4.820   0.595   2.168  1.00  0.00    -0.300 OA
ENDBRANCH   1   2
BRANCH   1   5
ATOM      5  C   UNL     1       7.427   1.202  -0.177  1.00  0.00     0.043 C 
BRANCH   5   6
ATOM      6  C   UNL     1       7.672  -0.115  -0.770  1.00  0.00    -0.044 A 
ATOM      7  C   UNL     1       7.696  -0.316  -2.152  1.00  0.00     0.008 A 
ATOM      8  C   UNL     1       7.917  -1.200   0.039  1.00  0.00     0.054 A 
ATOM      9  C   UNL     1       7.958  -1.570  -2.638  1.00  0.00     0.051 A 
ATOM     10  C   UNL     1       8.184  -2.473  -0.487  1.00  0.00     0.166 A 
ATOM     11  C   UNL     1       8.206  -2.672  -1.850  1.00  0.00     0.165 A 
ATOM     12  O   UNL     1       8.459  -3.716   0.070  1.00  0.00    -0.454 OA
ATOM     13  O   UNL     1       8.493  -4.019  -2.104  1.00  0.00    -0.454 OA
ATOM     14  C   UNL     1       9.102  -4.500  -0.924  1.00  0.00     0.468 C 
ENDBRANCH   5   6
ENDBRANCH   1   5
TORSDOF 3
ENDMDL
MODEL 4
REMARK VINA RESULT:      -6.6      1.172      1.656
REMARK SMILES CC(=O)CCc1ccc2c(c1)OCO2
REMARK SMILES IDX 4 1 2 2 1 3 3 4 5 5 6 6 7 7 11 8 8 9 10 10 9 11 12 12 14 13
REMARK SMILES IDX 13 14
REMARK H PARENT
REMARK Flexibility Score: inf
ROOT
ATOM      1  C   UNL     1       5.397  -0.083   1.932  1.00  0.00     0.080 C 
ENDROOT
BRANCH   1   2
ATOM      2  C   UNL     1       4.459   1.052   1.866  1.00  0.00     0.130 C 
ATOM      3  C   UNL     1       4.785   2.105   0.821  1.00  0.00     0.087 C 
ATOM      4  O   UNL     1       3.481   1.237   2.533  1.00  0.00    -0.300 OA
ENDBRANCH   1   2
BRANCH   1   5
ATOM      5  C   UNL     1       6.819   0.232   1.680  1.00  0.00     0.043 C 
BRANCH   5   6
ATOM      6  C   UNL     1       7.358  -0.113   0.361  1.00  0.00    -0.044 A 
ATOM      7  C   UNL     1       7.782   0.858  -0.547  1.00  0.00     0.008 A 
ATOM      8  C   UNL     1       7.487  -1.433  -0.006  1.00  0.00     0.054 A 
ATOM      9  C   UNL     1       8.302   0.463  -1.752  1.00  0.00     0.051 A 
ATOM     10  C   UNL     1       8.023  -1.810  -1.247  1.00  0.00     0.166 A 
ATOM     11  C   UNL     1       8.441  -0.851  -2.143  1.00  0.00     0.165 A 
ATOM     12  O   UNL     1       8.267  -3.027  -1.870  1.00  0.00    -0.454 OA
ATOM     13  O   UNL     1       8.930  -1.489  -3.290  1.00  0.00    -0.454 OA
ATOM     14  C   UNL     1       9.239  -2.805  -2.882  1.00  0.00     0.468 C 
ENDBRANCH   5   6
ENDBRANCH   1   5
TORSDOF 3
ENDMDL
MODEL 5
REMARK VINA RESULT:      -6.4      1.532      2.235
REMARK SMILES CC(=O)CCc1ccc2c(c1)OCO2
REMARK SMILES IDX 4 1 2 2 1 3 3 4 5 5 6 6 7 7 11 8 8 9 10 10 9 11 12 12 14 13
REMARK SMILES IDX 13 14
REMARK H PARENT
REMARK Flexibility Score: inf
ROOT
ATOM      1  C   UNL     1       5.340  -0.062   2.225  1.00  0.00     0.080 C 
ENDROOT
BRANCH   1   2
ATOM      2  C   UNL     1       4.440   1.065   1.923  1.00  0.00     0.130 C 
ATOM      3  C   UNL     1       4.904   1.987   0.808  1.00  0.00     0.087 C 
ATOM      4  O   UNL     1       3.397   1.335   2.448  1.00  0.00    -0.300 OA
ENDBRANCH   1   2
BRANCH   1   5
ATOM      5  C   UNL     1       6.769   0.141   1.904  1.00  0.00     0.043 C 
BRANCH   5   6
ATOM      6  C   UNL     1       7.329  -0.652   0.806  1.00  0.00    -0.044 A 
ATOM      7  C   UNL     1       7.623  -2.010   0.944  1.00  0.00     0.008 A 
ATOM      8  C   UNL     1       7.555  -0.069  -0.419  1.00  0.00     0.054 A 
ATOM      9  C   UNL     1       8.120  -2.697  -0.133  1.00  0.00     0.051 A 
ATOM     10  C   UNL     1       8.064  -0.797  -1.505  1.00  0.00     0.166 A 
ATOM     11  C   UNL     1       8.356  -2.136  -1.369  1.00  0.00     0.165 A 
ATOM     12  O   UNL     1       8.385  -0.483  -2.820  1.00  0.00    -0.454 OA
ATOM     13  O   UNL     1       8.844  -2.617  -2.590  1.00  0.00    -0.454 OA
ATOM     14  C   UNL     1       8.397  -1.694  -3.561  1.00  0.00     0.468 C 
ENDBRANCH   5   6
ENDBRANCH   1   5
TORSDOF 3
ENDMDL
