@<TRIPOS>MOLECULE
/home/cewinharhar/GITHUB/reincatalyze/data/processed/docking_pred/2023-May-31-1727_sub9_nm5_bs15_s42_ex16_mel10_mts10000_k50_ec075_g099_lra3e-4_lrc3e-3/051d9442833557c4466992e4bdada3c2de553c76_ligand_9.pdbqt
 14 15 0 0 0
SMALL
GASTEIGER

@<TRIPOS>ATOM
      1  C          5.3400   -0.0620    2.2250 C.3     1  UNL1        0.0800
      2  C          4.4400    1.0650    1.9230 C.2     1  UNL1        0.1300
      3  C          4.9040    1.9870    0.8080 C.3     1  UNL1        0.0870
      4  O          3.3970    1.3350    2.4480 O.2     1  UNL1       -0.3000
      5  C          6.7690    0.1410    1.9040 C.3     1  UNL1        0.0430
      6  C          7.3290   -0.6520    0.8060 C.2     1  UNL1       -0.0440
      7  C          7.6230   -2.0100    0.9440 C.2     1  UNL1        0.0080
      8  C          7.5550   -0.0690   -0.4190 C.2     1  UNL1        0.0540
      9  C          8.1200   -2.6970   -0.1330 C.2     1  UNL1        0.0510
     10  C          8.0640   -0.7970   -1.5050 C.2     1  UNL1        0.1660
     11  C          8.3560   -2.1360   -1.3690 C.2     1  UNL1        0.1650
     12  O          8.3850   -0.4830   -2.8200 O.2     1  UNL1       -0.4540
     13  O          8.8440   -2.6170   -2.5900 O.2     1  UNL1       -0.4540
     14  C          8.3970   -1.6940   -3.5610 C.3     1  UNL1        0.4680
@<TRIPOS>BOND
     1    14    12    1
     2    14    13    1
     3    12    10    1
     4    13    11    1
     5    10    11    2
     6    10     8    1
     7    11     9    1
     8     8     6    2
     9     9     7    2
    10     6     7    1
    11     6     5    1
    12     3     2    1
    13     5     1    1
    14     2     1    1
    15     2     4    2
