@<TRIPOS>MOLECULE
/home/cewinharhar/GITHUB/reincatalyze/data/processed/docking_pred/2023-May-31-1727_sub9_nm5_bs15_s42_ex16_mel10_mts10000_k50_ec075_g099_lra3e-4_lrc3e-3/088b63c47bd4d7a6949fea46fb2e227d24226938_ligand_9.pdbqt
 14 15 0 0 0
SMALL
GASTEIGER

@<TRIPOS>ATOM
      1  C          5.3890    1.9530    1.1980 C.3     1  UNL1        0.0800
      2  C          4.8070    0.8580    1.9940 C.2     1  UNL1        0.1300
      3  C          5.6220   -0.4240    2.0300 C.3     1  UNL1        0.0870
      4  O          3.7790    0.8620    2.6100 O.2     1  UNL1       -0.3000
      5  C          5.3950    1.7610   -0.2680 C.3     1  UNL1        0.0430
      6  C          6.5320    1.0370   -0.8440 C.2     1  UNL1       -0.0440
      7  C          7.8540    1.3980   -0.5810 C.2     1  UNL1        0.0080
      8  C          6.3150   -0.0550   -1.6520 C.2     1  UNL1        0.0540
      9  C          8.8690    0.6590   -1.1330 C.2     1  UNL1        0.0510
     10  C          7.3730   -0.7940   -2.2030 C.2     1  UNL1        0.1660
     11  C          8.6780   -0.4370   -1.9450 C.2     1  UNL1        0.1650
     12  O          7.4530   -1.9080   -3.0290 O.2     1  UNL1       -0.4540
     13  O          9.5290   -1.3300   -2.6090 O.2     1  UNL1       -0.4540
     14  C          8.7430   -2.4760   -2.8610 C.3     1  UNL1        0.4680
@<TRIPOS>BOND
     1    12    14    1
     2    12    10    1
     3    14    13    1
     4    13    11    1
     5    10    11    2
     6    10     8    1
     7    11     9    1
     8     8     6    2
     9     9     7    2
    10     6     7    1
    11     6     5    1
    12     5     1    1
    13     1     2    1
    14     2     3    1
    15     2     4    2
