@<TRIPOS>MOLECULE
/home/cewinharhar/GITHUB/reincatalyze/data/processed/docking_pred/2023-May-31-1727_sub9_nm5_bs15_s42_ex16_mel10_mts10000_k50_ec075_g099_lra3e-4_lrc3e-3/088b63c47bd4d7a6949fea46fb2e227d24226938_ligand_9.pdbqt
 14 15 0 0 0
SMALL
GASTEIGER

@<TRIPOS>ATOM
      1  C          6.4520    0.5130    1.4600 C.3     1  UNL1        0.0800
      2  C          6.0250    0.8580    0.0920 C.2     1  UNL1        0.1300
      3  C          5.0940    2.0540   -0.0160 C.3     1  UNL1        0.0870
      4  O          6.3230    0.3110   -0.9310 O.2     1  UNL1       -0.3000
      5  C          6.5130   -0.9290    1.7790 C.3     1  UNL1        0.0430
      6  C          7.6970   -1.4060    2.4990 C.2     1  UNL1       -0.0440
      7  C          7.8530   -1.2290    3.8750 C.2     1  UNL1        0.0080
      8  C          8.6900   -2.0780    1.8240 C.2     1  UNL1        0.0540
      9  C          8.9740   -1.7250    4.4890 C.2     1  UNL1        0.0510
     10  C          9.8270   -2.5760    2.4770 C.2     1  UNL1        0.1660
     11  C          9.9810   -2.4000    3.8350 C.2     1  UNL1        0.1650
     12  O         10.9570   -3.2720    2.0660 O.2     1  UNL1       -0.4540
     13  O         11.1900   -2.9870    4.2310 O.2     1  UNL1       -0.4540
     14  C         11.5100   -3.9080    3.2090 C.3     1  UNL1        0.4680
@<TRIPOS>BOND
     1     4     2    2
     2     3     2    1
     3     2     1    1
     4     1     5    1
     5     5     6    1
     6     8    10    1
     7     8     6    2
     8    12    10    1
     9    12    14    1
    10    10    11    2
    11     6     7    1
    12    14    13    1
    13    11    13    1
    14    11     9    1
    15     7     9    2
