@<TRIPOS>MOLECULE
/home/cewinharhar/GITHUB/reincatalyze/data/processed/docking_pred/2023-May-31-1727_sub9_nm5_bs15_s42_ex16_mel10_mts10000_k50_ec075_g099_lra3e-4_lrc3e-3/08a74a7e320cd1ecb560e86b752820c061dfae11_ligand_9.pdbqt
 14 15 0 0 0
SMALL
GASTEIGER

@<TRIPOS>ATOM
      1  C          6.4180    1.3750    0.2430 C.3     1  UNL1        0.0800
      2  C          5.2180    1.3520    1.1000 C.2     1  UNL1        0.1300
      3  C          5.1180    0.1690    2.0470 C.3     1  UNL1        0.0870
      4  O          4.3240    2.1500    1.1350 O.2     1  UNL1       -0.3000
      5  C          6.4620    0.3740   -0.8430 C.3     1  UNL1        0.0430
      6  C          7.2190   -0.8560   -0.5910 C.2     1  UNL1       -0.0440
      7  C          7.5090   -1.2990    0.7010 C.2     1  UNL1        0.0080
      8  C          7.6440   -1.6310   -1.6440 C.2     1  UNL1        0.0540
      9  C          8.1980   -2.4730    0.8630 C.2     1  UNL1        0.0510
     10  C          8.3470   -2.8290   -1.4490 C.2     1  UNL1        0.1660
     11  C          8.6340   -3.2660   -0.1750 C.2     1  UNL1        0.1650
     12  O          8.8860   -3.7890   -2.2970 O.2     1  UNL1       -0.4540
     13  O          9.3370   -4.4750   -0.2610 O.2     1  UNL1       -0.4540
     14  C          9.0480   -4.9840   -1.5470 C.3     1  UNL1        0.4680
@<TRIPOS>BOND
     1    12    14    1
     2    12    10    1
     3     8    10    1
     4     8     6    2
     5    14    13    1
     6    10    11    2
     7     5     6    1
     8     5     1    1
     9     6     7    1
    10    13    11    1
    11    11     9    1
    12     1     2    1
    13     7     9    2
    14     2     4    2
    15     2     3    1
