@<TRIPOS>MOLECULE
/home/cewinharhar/GITHUB/reincatalyze/data/processed/docking_pred/2023-May-31-1727_sub9_nm5_bs15_s42_ex16_mel10_mts10000_k50_ec075_g099_lra3e-4_lrc3e-3/08a74a7e320cd1ecb560e86b752820c061dfae11_ligand_9.pdbqt
 14 15 0 0 0
SMALL
GASTEIGER

@<TRIPOS>ATOM
      1  C          5.5290    1.8860    1.2290 C.3     1  UNL1        0.0800
      2  C          4.9930    0.7490    2.0000 C.2     1  UNL1        0.1300
      3  C          5.9110   -0.4580    2.1010 C.3     1  UNL1        0.0870
      4  O          3.9320    0.6670    2.5490 O.2     1  UNL1       -0.3000
      5  C          5.5180    1.7380   -0.2420 C.3     1  UNL1        0.0430
      6  C          6.6280    0.9990   -0.8490 C.2     1  UNL1       -0.0440
      7  C          7.9590    1.3800   -0.6760 C.2     1  UNL1        0.0080
      8  C          6.3770   -0.1270   -1.5980 C.2     1  UNL1        0.0540
      9  C          8.9490    0.6260   -1.2510 C.2     1  UNL1        0.0510
     10  C          7.4090   -0.8810   -2.1760 C.2     1  UNL1        0.1660
     11  C          8.7230   -0.5050   -2.0050 C.2     1  UNL1        0.1650
     12  O          7.4540   -2.0290   -2.9570 O.2     1  UNL1       -0.4540
     13  O          9.5450   -1.4190   -2.6770 O.2     1  UNL1       -0.4540
     14  C          8.7570   -2.5800   -2.8370 C.3     1  UNL1        0.4680
@<TRIPOS>BOND
     1    12    14    1
     2    12    10    1
     3    14    13    1
     4    13    11    1
     5    10    11    2
     6    10     8    1
     7    11     9    1
     8     8     6    2
     9     9     7    2
    10     6     7    1
    11     6     5    1
    12     5     1    1
    13     1     2    1
    14     2     3    1
    15     2     4    2
