@<TRIPOS>MOLECULE
/home/cewinharhar/GITHUB/reincatalyze/data/processed/docking_pred/2023-May-31-1727_sub9_nm5_bs15_s42_ex16_mel10_mts10000_k50_ec075_g099_lra3e-4_lrc3e-3/08a74a7e320cd1ecb560e86b752820c061dfae11_ligand_9.pdbqt
 14 15 0 0 0
SMALL
GASTEIGER

@<TRIPOS>ATOM
      1  C          5.9720    0.3020    1.8400 C.3     1  UNL1        0.0800
      2  C          4.8260    1.1980    1.6050 C.2     1  UNL1        0.1300
      3  C          4.9600    2.1260    0.4090 C.3     1  UNL1        0.0870
      4  O          3.8120    1.2780    2.2390 O.2     1  UNL1       -0.3000
      5  C          7.1500    0.5100    0.9720 C.3     1  UNL1        0.0430
      6  C          7.5000   -0.5710    0.0460 C.2     1  UNL1       -0.0440
      7  C          7.4900   -0.3960   -1.3390 C.2     1  UNL1        0.0080
      8  C          7.8800   -1.7990    0.5340 C.2     1  UNL1        0.0540
      9  C          7.8550   -1.4430   -2.1450 C.2     1  UNL1        0.0510
     10  C          8.2490   -2.8540   -0.3150 C.2     1  UNL1        0.1660
     11  C          8.2390   -2.6810   -1.6820 C.2     1  UNL1        0.1650
     12  O          8.6660   -4.1640   -0.1130 O.2     1  UNL1       -0.4540
     13  O          8.6460   -3.8760   -2.2890 O.2     1  UNL1       -0.4540
     14  C          9.3430   -4.5860   -1.2870 C.3     1  UNL1        0.4680
@<TRIPOS>BOND
     1    13    11    1
     2    13    14    1
     3     9    11    2
     4     9     7    1
     5    11    10    1
     6     7     6    2
     7    14    12    1
     8    10    12    1
     9    10     8    2
    10     6     8    1
    11     6     5    1
    12     3     2    1
    13     5     1    1
    14     2     1    1
    15     2     4    2
