@<TRIPOS>MOLECULE
/home/cewinharhar/GITHUB/reincatalyze/data/processed/docking_pred/2023-May-31-1727_sub9_nm5_bs15_s42_ex16_mel10_mts10000_k50_ec075_g099_lra3e-4_lrc3e-3/08e84468c81f1cd513554bb3b422d21af10d92b8_ligand_9.pdbqt
 14 15 0 0 0
SMALL
GASTEIGER

@<TRIPOS>ATOM
      1  C          6.1560    0.4610    1.6150 C.3     1  UNL1        0.0800
      2  C          4.9680    1.3090    1.4090 C.2     1  UNL1        0.1300
      3  C          4.9810    2.1500    0.1430 C.3     1  UNL1        0.0870
      4  O          4.0050    1.4110    2.1140 O.2     1  UNL1       -0.3000
      5  C          7.2490    0.6220    0.6350 C.3     1  UNL1        0.0430
      6  C          7.5760   -0.5370   -0.2010 C.2     1  UNL1       -0.0440
      7  C          7.5840   -0.4700   -1.5950 C.2     1  UNL1        0.0080
      8  C          7.9160   -1.7340    0.3840 C.2     1  UNL1        0.0540
      9  C          7.9250   -1.5860   -2.3140 C.2     1  UNL1        0.0510
     10  C          8.2630   -2.8610   -0.3760 C.2     1  UNL1        0.1660
     11  C          8.2690   -2.7960   -1.7520 C.2     1  UNL1        0.1650
     12  O          8.6390   -4.1630   -0.0680 O.2     1  UNL1       -0.4540
     13  O          8.6470   -4.0450   -2.2600 O.2     1  UNL1       -0.4540
     14  C          9.3150   -4.6940   -1.1990 C.3     1  UNL1        0.4680
@<TRIPOS>BOND
     1     9    11    2
     2     9     7    1
     3    13    11    1
     4    13    14    1
     5    11    10    1
     6     7     6    2
     7    14    12    1
     8    10    12    1
     9    10     8    2
    10     6     8    1
    11     6     5    1
    12     3     2    1
    13     5     1    1
    14     2     1    1
    15     2     4    2
