@<TRIPOS>MOLECULE
/home/cewinharhar/GITHUB/reincatalyze/data/processed/docking_pred/2023-May-31-1727_sub9_nm5_bs15_s42_ex16_mel10_mts10000_k50_ec075_g099_lra3e-4_lrc3e-3/08e84468c81f1cd513554bb3b422d21af10d92b8_ligand_9.pdbqt
 14 15 0 0 0
SMALL
GASTEIGER

@<TRIPOS>ATOM
      1  C          6.2320    1.2070    0.8760 C.3     1  UNL1        0.0800
      2  C          5.5690    0.3890    1.9080 C.2     1  UNL1        0.1300
      3  C          6.3530   -0.8250    2.3780 C.3     1  UNL1        0.0870
      4  O          4.4970    0.5680    2.4120 O.2     1  UNL1       -0.3000
      5  C          5.8920    0.8880   -0.5260 C.3     1  UNL1        0.0430
      6  C          6.8710    0.1140   -1.2950 C.2     1  UNL1       -0.0440
      7  C          7.8190    0.7230   -2.1190 C.2     1  UNL1        0.0080
      8  C          6.8950   -1.2580   -1.1950 C.2     1  UNL1        0.0540
      9  C          8.7220   -0.0620   -2.7880 C.2     1  UNL1        0.0510
     10  C          7.8320   -2.0370   -1.8910 C.2     1  UNL1        0.1660
     11  C          8.7660   -1.4360   -2.7050 C.2     1  UNL1        0.1650
     12  O          8.0860   -3.4000   -1.9810 O.2     1  UNL1       -0.4540
     13  O          9.5720   -2.4300   -3.2750 O.2     1  UNL1       -0.4540
     14  C          9.4220   -3.5580   -2.4380 C.3     1  UNL1        0.4680
@<TRIPOS>BOND
     1    13    11    1
     2    13    14    1
     3     9    11    2
     4     9     7    1
     5    11    10    1
     6    14    12    1
     7     7     6    2
     8    12    10    1
     9    10     8    2
    10     6     8    1
    11     6     5    1
    12     5     1    1
    13     1     2    1
    14     2     3    1
    15     2     4    2
