MODEL 1
REMARK VINA RESULT:      -7.6      0.000      0.000
REMARK SMILES CC(=O)CCc1ccc2c(c1)OCO2
REMARK SMILES IDX 4 1 2 2 1 3 3 4 5 5 6 6 7 7 11 8 8 9 10 10 9 11 12 12 14 13
REMARK SMILES IDX 13 14
REMARK H PARENT
REMARK Flexibility Score: inf
ROOT
ATOM      1  C   UNL     1       5.600   1.888   1.254  1.00  0.00     0.080 C 
ENDROOT
BRANCH   1   2
ATOM      2  C   UNL     1       5.035   0.753   2.005  1.00  0.00     0.130 C 
ATOM      3  C   UNL     1       5.961  -0.439   2.176  1.00  0.00     0.087 C 
ATOM      4  O   UNL     1       3.943   0.662   2.489  1.00  0.00    -0.300 OA
ENDBRANCH   1   2
BRANCH   1   5
ATOM      5  C   UNL     1       5.587   1.767  -0.219  1.00  0.00     0.043 C 
BRANCH   5   6
ATOM      6  C   UNL     1       6.675   1.005  -0.839  1.00  0.00    -0.044 A 
ATOM      7  C   UNL     1       8.013   1.378  -0.707  1.00  0.00     0.008 A 
ATOM      8  C   UNL     1       6.396  -0.134  -1.557  1.00  0.00     0.054 A 
ATOM      9  C   UNL     1       8.982   0.604  -1.291  1.00  0.00     0.051 A 
ATOM     10  C   UNL     1       7.407  -0.909  -2.145  1.00  0.00     0.166 A 
ATOM     11  C   UNL     1       8.728  -0.540  -2.015  1.00  0.00     0.165 A 
ATOM     12  O   UNL     1       7.423  -2.073  -2.903  1.00  0.00    -0.454 OA
ATOM     13  O   UNL     1       9.525  -1.475  -2.688  1.00  0.00    -0.454 OA
ATOM     14  C   UNL     1       8.724  -2.633  -2.804  1.00  0.00     0.468 C 
ENDBRANCH   5   6
ENDBRANCH   1   5
TORSDOF 3
ENDMDL
MODEL 2
REMARK VINA RESULT:      -7.0      1.793      2.262
REMARK SMILES CC(=O)CCc1ccc2c(c1)OCO2
REMARK SMILES IDX 4 1 2 2 1 3 3 4 5 5 6 6 7 7 11 8 8 9 10 10 9 11 12 12 14 13
REMARK SMILES IDX 13 14
REMARK H PARENT
REMARK Flexibility Score: inf
ROOT
ATOM      1  C   UNL     1       5.905   1.533  -0.301  1.00  0.00     0.080 C 
ENDROOT
BRANCH   1   2
ATOM      2  C   UNL     1       5.209   1.452   0.996  1.00  0.00     0.130 C 
ATOM      3  C   UNL     1       5.686   0.346   1.922  1.00  0.00     0.087 C 
ATOM      4  O   UNL     1       4.322   2.149   1.399  1.00  0.00    -0.300 OA
ENDBRANCH   1   2
BRANCH   1   5
ATOM      5  C   UNL     1       7.321   1.109  -0.307  1.00  0.00     0.043 C 
BRANCH   5   6
ATOM      6  C   UNL     1       7.627  -0.198  -0.895  1.00  0.00    -0.044 A 
ATOM      7  C   UNL     1       7.702  -0.395  -2.275  1.00  0.00     0.008 A 
ATOM      8  C   UNL     1       7.880  -1.277  -0.080  1.00  0.00     0.054 A 
ATOM      9  C   UNL     1       8.020  -1.639  -2.754  1.00  0.00     0.051 A 
ATOM     10  C   UNL     1       8.204  -2.540  -0.598  1.00  0.00     0.166 A 
ATOM     11  C   UNL     1       8.277  -2.734  -1.960  1.00  0.00     0.165 A 
ATOM     12  O   UNL     1       8.500  -3.775  -0.034  1.00  0.00    -0.454 OA
ATOM     13  O   UNL     1       8.614  -4.071  -2.207  1.00  0.00    -0.454 OA
ATOM     14  C   UNL     1       9.200  -4.536  -1.008  1.00  0.00     0.468 C 
ENDBRANCH   5   6
ENDBRANCH   1   5
TORSDOF 3
ENDMDL
MODEL 3
REMARK VINA RESULT:      -7.0      1.086      1.181
REMARK SMILES CC(=O)CCc1ccc2c(c1)OCO2
REMARK SMILES IDX 4 1 2 2 1 3 3 4 5 5 6 6 7 7 11 8 8 9 10 10 9 11 12 12 14 13
REMARK SMILES IDX 13 14
REMARK H PARENT
REMARK Flexibility Score: inf
ROOT
ATOM      1  C   UNL     1       6.232   1.207   0.876  1.00  0.00     0.080 C 
ENDROOT
BRANCH   1   2
ATOM      2  C   UNL     1       5.569   0.389   1.908  1.00  0.00     0.130 C 
ATOM      3  C   UNL     1       6.353  -0.825   2.378  1.00  0.00     0.087 C 
ATOM      4  O   UNL     1       4.497   0.568   2.412  1.00  0.00    -0.300 OA
ENDBRANCH   1   2
BRANCH   1   5
ATOM      5  C   UNL     1       5.892   0.888  -0.526  1.00  0.00     0.043 C 
BRANCH   5   6
ATOM      6  C   UNL     1       6.871   0.114  -1.295  1.00  0.00    -0.044 A 
ATOM      7  C   UNL     1       7.819   0.723  -2.119  1.00  0.00     0.008 A 
ATOM      8  C   UNL     1       6.895  -1.258  -1.195  1.00  0.00     0.054 A 
ATOM      9  C   UNL     1       8.722  -0.062  -2.788  1.00  0.00     0.051 A 
ATOM     10  C   UNL     1       7.832  -2.037  -1.891  1.00  0.00     0.166 A 
ATOM     11  C   UNL     1       8.766  -1.436  -2.705  1.00  0.00     0.165 A 
ATOM     12  O   UNL     1       8.086  -3.400  -1.981  1.00  0.00    -0.454 OA
ATOM     13  O   UNL     1       9.572  -2.430  -3.275  1.00  0.00    -0.454 OA
ATOM     14  C   UNL     1       9.422  -3.558  -2.438  1.00  0.00     0.468 C 
ENDBRANCH   5   6
ENDBRANCH   1   5
TORSDOF 3
ENDMDL
MODEL 4
REMARK VINA RESULT:      -6.7      1.102      1.596
REMARK SMILES CC(=O)CCc1ccc2c(c1)OCO2
REMARK SMILES IDX 4 1 2 2 1 3 3 4 5 5 6 6 7 7 11 8 8 9 10 10 9 11 12 12 14 13
REMARK SMILES IDX 13 14
REMARK H PARENT
REMARK Flexibility Score: inf
ROOT
ATOM      1  C   UNL     1       5.348  -0.016   1.995  1.00  0.00     0.080 C 
ENDROOT
BRANCH   1   2
ATOM      2  C   UNL     1       4.394   1.100   1.869  1.00  0.00     0.130 C 
ATOM      3  C   UNL     1       4.726   2.122   0.795  1.00  0.00     0.087 C 
ATOM      4  O   UNL     1       3.398   1.292   2.507  1.00  0.00    -0.300 OA
ENDBRANCH   1   2
BRANCH   1   5
ATOM      5  C   UNL     1       6.770   0.313   1.762  1.00  0.00     0.043 C 
BRANCH   5   6
ATOM      6  C   UNL     1       7.322   0.002   0.440  1.00  0.00    -0.044 A 
ATOM      7  C   UNL     1       7.876   0.983  -0.384  1.00  0.00     0.008 A 
ATOM      8  C   UNL     1       7.332  -1.296  -0.014  1.00  0.00     0.054 A 
ATOM      9  C   UNL     1       8.400   0.617  -1.597  1.00  0.00     0.051 A 
ATOM     10  C   UNL     1       7.875  -1.643  -1.261  1.00  0.00     0.166 A 
ATOM     11  C   UNL     1       8.421  -0.675  -2.074  1.00  0.00     0.165 A 
ATOM     12  O   UNL     1       8.019  -2.835  -1.960  1.00  0.00    -0.454 OA
ATOM     13  O   UNL     1       8.886  -1.283  -3.247  1.00  0.00    -0.454 OA
ATOM     14  C   UNL     1       9.046  -2.648  -2.922  1.00  0.00     0.468 C 
ENDBRANCH   5   6
ENDBRANCH   1   5
TORSDOF 3
ENDMDL
MODEL 5
REMARK VINA RESULT:      -6.6      1.931      2.474
REMARK SMILES CC(=O)CCc1ccc2c(c1)OCO2
REMARK SMILES IDX 4 1 2 2 1 3 3 4 5 5 6 6 7 7 11 8 8 9 10 10 9 11 12 12 14 13
REMARK SMILES IDX 13 14
REMARK H PARENT
REMARK Flexibility Score: inf
ROOT
ATOM      1  C   UNL     1       6.156   0.461   1.615  1.00  0.00     0.080 C 
ENDROOT
BRANCH   1   2
ATOM      2  C   UNL     1       4.968   1.309   1.409  1.00  0.00     0.130 C 
ATOM      3  C   UNL     1       4.981   2.150   0.143  1.00  0.00     0.087 C 
ATOM      4  O   UNL     1       4.005   1.411   2.114  1.00  0.00    -0.300 OA
ENDBRANCH   1   2
BRANCH   1   5
ATOM      5  C   UNL     1       7.249   0.622   0.635  1.00  0.00     0.043 C 
BRANCH   5   6
ATOM      6  C   UNL     1       7.576  -0.537  -0.201  1.00  0.00    -0.044 A 
ATOM      7  C   UNL     1       7.584  -0.470  -1.595  1.00  0.00     0.008 A 
ATOM      8  C   UNL     1       7.916  -1.734   0.384  1.00  0.00     0.054 A 
ATOM      9  C   UNL     1       7.925  -1.586  -2.314  1.00  0.00     0.051 A 
ATOM     10  C   UNL     1       8.263  -2.861  -0.376  1.00  0.00     0.166 A 
ATOM     11  C   UNL     1       8.269  -2.796  -1.752  1.00  0.00     0.165 A 
ATOM     12  O   UNL     1       8.639  -4.163  -0.068  1.00  0.00    -0.454 OA
ATOM     13  O   UNL     1       8.647  -4.045  -2.260  1.00  0.00    -0.454 OA
ATOM     14  C   UNL     1       9.315  -4.694  -1.199  1.00  0.00     0.468 C 
ENDBRANCH   5   6
ENDBRANCH   1   5
TORSDOF 3
ENDMDL
