@<TRIPOS>MOLECULE
/home/cewinharhar/GITHUB/reincatalyze/data/processed/docking_pred/2023-May-31-1727_sub9_nm5_bs15_s42_ex16_mel10_mts10000_k50_ec075_g099_lra3e-4_lrc3e-3/090474ec6ad34f6c7e6271970b3dfdf762d08d64_ligand_9.pdbqt
 14 15 0 0 0
SMALL
GASTEIGER

@<TRIPOS>ATOM
      1  C          9.7500    1.3180    2.6710 C.3     1  UNL1        0.0800
      2  C         11.1720    0.9310    2.6340 C.2     1  UNL1        0.1300
      3  C         12.0900    1.7410    3.5330 C.3     1  UNL1        0.0870
      4  O         11.6800    0.0620    1.9850 O.2     1  UNL1       -0.3000
      5  C          9.2200    1.9700    1.4550 C.3     1  UNL1        0.0430
      6  C          8.4640    1.1320    0.5200 C.2     1  UNL1       -0.0440
      7  C          7.0860    1.2670    0.3490 C.2     1  UNL1        0.0080
      8  C          9.1160    0.1940   -0.2450 C.2     1  UNL1        0.0540
      9  C          6.4470    0.4670   -0.5630 C.2     1  UNL1        0.0510
     10  C          8.4370   -0.6110   -1.1720 C.2     1  UNL1        0.1660
     11  C          7.0760   -0.4790   -1.3410 C.2     1  UNL1        0.1650
     12  O          8.8220   -1.6120   -2.0550 O.2     1  UNL1       -0.4540
     13  O          6.6530   -1.3920   -2.3160 O.2     1  UNL1       -0.4540
     14  C          7.8140   -1.7190   -3.0500 C.3     1  UNL1        0.4680
@<TRIPOS>BOND
     1    14    13    1
     2    14    12    1
     3    13    11    1
     4    12    10    1
     5    11    10    2
     6    11     9    1
     7    10     8    1
     8     9     7    2
     9     8     6    2
    10     7     6    1
    11     6     5    1
    12     5     1    1
    13     4     2    2
    14     2     1    1
    15     2     3    1
