@<TRIPOS>MOLECULE
/home/cewinharhar/GITHUB/reincatalyze/data/processed/docking_pred/2023-May-31-1727_sub9_nm5_bs15_s42_ex16_mel10_mts10000_k50_ec075_g099_lra3e-4_lrc3e-3/090474ec6ad34f6c7e6271970b3dfdf762d08d64_ligand_9.pdbqt
 14 15 0 0 0
SMALL
GASTEIGER

@<TRIPOS>ATOM
      1  C          5.6920    1.1170    0.3610 C.3     1  UNL1        0.0800
      2  C          5.2570    0.4380    1.5950 C.2     1  UNL1        0.1300
      3  C          5.8680   -0.9320    1.8340 C.3     1  UNL1        0.0870
      4  O          4.4870    0.8380    2.4220 O.2     1  UNL1       -0.3000
      5  C          6.7550    2.1320    0.5160 C.3     1  UNL1        0.0430
      6  C          8.1190    1.6450    0.7400 C.2     1  UNL1       -0.0440
      7  C          8.8940    1.1050   -0.2880 C.2     1  UNL1        0.0080
      8  C          8.6880    1.7370    1.9890 C.2     1  UNL1        0.0540
      9  C         10.1730    0.6940   -0.0130 C.2     1  UNL1        0.0510
     10  C         10.0000    1.3090    2.2420 C.2     1  UNL1        0.1660
     11  C         10.7640    0.7750    1.2280 C.2     1  UNL1        0.1650
     12  O         10.8120    1.2800    3.3690 O.2     1  UNL1       -0.4540
     13  O         12.0200    0.4320    1.7440 O.2     1  UNL1       -0.4540
     14  C         12.1580    1.1910    2.9270 C.3     1  UNL1        0.4680
@<TRIPOS>BOND
     1     7     9    1
     2     7     6    2
     3     9    11    2
     4     1     5    1
     5     1     2    1
     6     5     6    1
     7     6     8    1
     8    11    13    1
     9    11    10    1
    10     2     3    1
    11     2     4    2
    12    13    14    1
    13     8    10    2
    14    10    12    1
    15    14    12    1
