MODEL 1
REMARK VINA RESULT:      -7.0      0.000      0.000
REMARK SMILES CC(=O)CCc1ccc2c(c1)OCO2
REMARK SMILES IDX 4 1 2 2 1 3 3 4 5 5 6 6 7 7 11 8 8 9 10 10 9 11 12 12 14 13
REMARK SMILES IDX 13 14
REMARK H PARENT
REMARK Flexibility Score: inf
ROOT
ATOM      1  C   UNL     1       5.712   1.599   1.053  1.00  0.00     0.080 C 
ENDROOT
BRANCH   1   2
ATOM      2  C   UNL     1       5.179   0.569   1.962  1.00  0.00     0.130 C 
ATOM      3  C   UNL     1       6.098  -0.613   2.216  1.00  0.00     0.087 C 
ATOM      4  O   UNL     1       4.117   0.557   2.518  1.00  0.00    -0.300 OA
ENDBRANCH   1   2
BRANCH   1   5
ATOM      5  C   UNL     1       5.594   1.316  -0.393  1.00  0.00     0.043 C 
BRANCH   5   6
ATOM      6  C   UNL     1       6.716   0.625  -1.034  1.00  0.00    -0.044 A 
ATOM      7  C   UNL     1       8.010   1.148  -1.034  1.00  0.00     0.008 A 
ATOM      8  C   UNL     1       6.518  -0.595  -1.639  1.00  0.00     0.054 A 
ATOM      9  C   UNL     1       9.017   0.433  -1.630  1.00  0.00     0.051 A 
ATOM     10  C   UNL     1       7.568  -1.305  -2.241  1.00  0.00     0.166 A 
ATOM     11  C   UNL     1       8.845  -0.788  -2.242  1.00  0.00     0.165 A 
ATOM     12  O   UNL     1       7.663  -2.521  -2.907  1.00  0.00    -0.454 OA
ATOM     13  O   UNL     1       9.694  -1.687  -2.901  1.00  0.00    -0.454 OA
ATOM     14  C   UNL     1       9.022  -2.929  -2.865  1.00  0.00     0.468 C 
ENDBRANCH   5   6
ENDBRANCH   1   5
TORSDOF 3
ENDMDL
MODEL 2
REMARK VINA RESULT:      -7.0      3.059      3.973
REMARK SMILES CC(=O)CCc1ccc2c(c1)OCO2
REMARK SMILES IDX 4 1 2 2 1 3 3 4 5 5 6 6 7 7 11 8 8 9 10 10 9 11 12 12 14 13
REMARK SMILES IDX 13 14
REMARK H PARENT
REMARK Flexibility Score: inf
ROOT
ATOM      1  C   UNL     1       9.750   1.318   2.671  1.00  0.00     0.080 C 
ENDROOT
BRANCH   1   2
ATOM      2  C   UNL     1      11.172   0.931   2.634  1.00  0.00     0.130 C 
ATOM      3  C   UNL     1      12.090   1.741   3.533  1.00  0.00     0.087 C 
ATOM      4  O   UNL     1      11.680   0.062   1.985  1.00  0.00    -0.300 OA
ENDBRANCH   1   2
BRANCH   1   5
ATOM      5  C   UNL     1       9.220   1.970   1.455  1.00  0.00     0.043 C 
BRANCH   5   6
ATOM      6  C   UNL     1       8.464   1.132   0.520  1.00  0.00    -0.044 A 
ATOM      7  C   UNL     1       7.086   1.267   0.349  1.00  0.00     0.008 A 
ATOM      8  C   UNL     1       9.116   0.194  -0.245  1.00  0.00     0.054 A 
ATOM      9  C   UNL     1       6.447   0.467  -0.563  1.00  0.00     0.051 A 
ATOM     10  C   UNL     1       8.437  -0.611  -1.172  1.00  0.00     0.166 A 
ATOM     11  C   UNL     1       7.076  -0.479  -1.341  1.00  0.00     0.165 A 
ATOM     12  O   UNL     1       8.822  -1.612  -2.055  1.00  0.00    -0.454 OA
ATOM     13  O   UNL     1       6.653  -1.392  -2.316  1.00  0.00    -0.454 OA
ATOM     14  C   UNL     1       7.814  -1.719  -3.050  1.00  0.00     0.468 C 
ENDBRANCH   5   6
ENDBRANCH   1   5
TORSDOF 3
ENDMDL
MODEL 3
REMARK VINA RESULT:      -6.9      3.341      4.189
REMARK SMILES CC(=O)CCc1ccc2c(c1)OCO2
REMARK SMILES IDX 4 1 2 2 1 3 3 4 5 5 6 6 7 7 11 8 8 9 10 10 9 11 12 12 14 13
REMARK SMILES IDX 13 14
REMARK H PARENT
REMARK Flexibility Score: inf
ROOT
ATOM      1  C   UNL     1       5.692   1.117   0.361  1.00  0.00     0.080 C 
ENDROOT
BRANCH   1   2
ATOM      2  C   UNL     1       5.257   0.438   1.595  1.00  0.00     0.130 C 
ATOM      3  C   UNL     1       5.868  -0.932   1.834  1.00  0.00     0.087 C 
ATOM      4  O   UNL     1       4.487   0.838   2.422  1.00  0.00    -0.300 OA
ENDBRANCH   1   2
BRANCH   1   5
ATOM      5  C   UNL     1       6.755   2.132   0.516  1.00  0.00     0.043 C 
BRANCH   5   6
ATOM      6  C   UNL     1       8.119   1.645   0.740  1.00  0.00    -0.044 A 
ATOM      7  C   UNL     1       8.894   1.105  -0.288  1.00  0.00     0.008 A 
ATOM      8  C   UNL     1       8.688   1.737   1.989  1.00  0.00     0.054 A 
ATOM      9  C   UNL     1      10.173   0.694  -0.013  1.00  0.00     0.051 A 
ATOM     10  C   UNL     1      10.000   1.309   2.242  1.00  0.00     0.166 A 
ATOM     11  C   UNL     1      10.764   0.775   1.228  1.00  0.00     0.165 A 
ATOM     12  O   UNL     1      10.812   1.280   3.369  1.00  0.00    -0.454 OA
ATOM     13  O   UNL     1      12.020   0.432   1.744  1.00  0.00    -0.454 OA
ATOM     14  C   UNL     1      12.158   1.191   2.927  1.00  0.00     0.468 C 
ENDBRANCH   5   6
ENDBRANCH   1   5
TORSDOF 3
ENDMDL
MODEL 4
REMARK VINA RESULT:      -6.9      3.677      4.558
REMARK SMILES CC(=O)CCc1ccc2c(c1)OCO2
REMARK SMILES IDX 4 1 2 2 1 3 3 4 5 5 6 6 7 7 11 8 8 9 10 10 9 11 12 12 14 13
REMARK SMILES IDX 13 14
REMARK H PARENT
REMARK Flexibility Score: inf
ROOT
ATOM      1  C   UNL     1       5.768  -0.076   1.971  1.00  0.00     0.080 C 
ENDROOT
BRANCH   1   2
ATOM      2  C   UNL     1       4.766   0.973   1.708  1.00  0.00     0.130 C 
ATOM      3  C   UNL     1       5.037   1.840   0.490  1.00  0.00     0.087 C 
ATOM      4  O   UNL     1       3.774   1.217   2.335  1.00  0.00    -0.300 OA
ENDBRANCH   1   2
BRANCH   1   5
ATOM      5  C   UNL     1       6.931  -0.108   1.060  1.00  0.00     0.043 C 
BRANCH   5   6
ATOM      6  C   UNL     1       8.189   0.455   1.559  1.00  0.00    -0.044 A 
ATOM      7  C   UNL     1       8.229   1.615   2.334  1.00  0.00     0.008 A 
ATOM      8  C   UNL     1       9.380  -0.178   1.291  1.00  0.00     0.054 A 
ATOM      9  C   UNL     1       9.439   2.070   2.789  1.00  0.00     0.051 A 
ATOM     10  C   UNL     1      10.605   0.310   1.771  1.00  0.00     0.166 A 
ATOM     11  C   UNL     1      10.645   1.456   2.535  1.00  0.00     0.165 A 
ATOM     12  O   UNL     1      11.927  -0.106   1.663  1.00  0.00    -0.454 OA
ATOM     13  O   UNL     1      11.977   1.721   2.880  1.00  0.00    -0.454 OA
ATOM     14  C   UNL     1      12.654   0.490   2.727  1.00  0.00     0.468 C 
ENDBRANCH   5   6
ENDBRANCH   1   5
TORSDOF 3
ENDMDL
MODEL 5
REMARK VINA RESULT:      -6.8      3.283      3.912
REMARK SMILES CC(=O)CCc1ccc2c(c1)OCO2
REMARK SMILES IDX 4 1 2 2 1 3 3 4 5 5 6 6 7 7 11 8 8 9 10 10 9 11 12 12 14 13
REMARK SMILES IDX 13 14
REMARK H PARENT
REMARK Flexibility Score: inf
ROOT
ATOM      1  C   UNL     1      10.096   1.652   2.651  1.00  0.00     0.080 C 
ENDROOT
BRANCH   1   2
ATOM      2  C   UNL     1      11.425   1.026   2.767  1.00  0.00     0.130 C 
ATOM      3  C   UNL     1      12.338   1.628   3.822  1.00  0.00     0.087 C 
ATOM      4  O   UNL     1      11.864   0.108   2.134  1.00  0.00    -0.300 OA
ENDBRANCH   1   2
BRANCH   1   5
ATOM      5  C   UNL     1       8.989   0.761   2.243  1.00  0.00     0.043 C 
BRANCH   5   6
ATOM      6  C   UNL     1       8.856   0.469   0.813  1.00  0.00    -0.044 A 
ATOM      7  C   UNL     1       9.423   1.285  -0.168  1.00  0.00     0.008 A 
ATOM      8  C   UNL     1       8.179  -0.654   0.399  1.00  0.00     0.054 A 
ATOM      9  C   UNL     1       9.282   0.937  -1.487  1.00  0.00     0.051 A 
ATOM     10  C   UNL     1       8.050  -0.986  -0.958  1.00  0.00     0.166 A 
ATOM     11  C   UNL     1       8.608  -0.181  -1.926  1.00  0.00     0.165 A 
ATOM     12  O   UNL     1       7.441  -2.026  -1.650  1.00  0.00    -0.454 OA
ATOM     13  O   UNL     1       8.336  -0.734  -3.184  1.00  0.00    -0.454 OA
ATOM     14  C   UNL     1       8.037  -2.093  -2.937  1.00  0.00     0.468 C 
ENDBRANCH   5   6
ENDBRANCH   1   5
TORSDOF 3
ENDMDL
