@<TRIPOS>MOLECULE
/home/cewinharhar/GITHUB/reincatalyze/data/processed/docking_pred/2023-May-31-1727_sub9_nm5_bs15_s42_ex16_mel10_mts10000_k50_ec075_g099_lra3e-4_lrc3e-3/090474ec6ad34f6c7e6271970b3dfdf762d08d64_ligand_9.pdbqt
 14 15 0 0 0
SMALL
GASTEIGER

@<TRIPOS>ATOM
      1  C         10.0960    1.6520    2.6510 C.3     1  UNL1        0.0800
      2  C         11.4250    1.0260    2.7670 C.2     1  UNL1        0.1300
      3  C         12.3380    1.6280    3.8220 C.3     1  UNL1        0.0870
      4  O         11.8640    0.1080    2.1340 O.2     1  UNL1       -0.3000
      5  C          8.9890    0.7610    2.2430 C.3     1  UNL1        0.0430
      6  C          8.8560    0.4690    0.8130 C.2     1  UNL1       -0.0440
      7  C          9.4230    1.2850   -0.1680 C.2     1  UNL1        0.0080
      8  C          8.1790   -0.6540    0.3990 C.2     1  UNL1        0.0540
      9  C          9.2820    0.9370   -1.4870 C.2     1  UNL1        0.0510
     10  C          8.0500   -0.9860   -0.9580 C.2     1  UNL1        0.1660
     11  C          8.6080   -0.1810   -1.9260 C.2     1  UNL1        0.1650
     12  O          7.4410   -2.0260   -1.6500 O.2     1  UNL1       -0.4540
     13  O          8.3360   -0.7340   -3.1840 O.2     1  UNL1       -0.4540
     14  C          8.0370   -2.0930   -2.9370 C.3     1  UNL1        0.4680
@<TRIPOS>BOND
     1    13    14    1
     2    13    11    1
     3    14    12    1
     4    11     9    2
     5    11    10    1
     6    12    10    1
     7     9     7    1
     8    10     8    2
     9     7     6    2
    10     8     6    1
    11     6     5    1
    12     4     2    2
    13     5     1    1
    14     1     2    1
    15     2     3    1
