@<TRIPOS>MOLECULE
/home/cewinharhar/GITHUB/reincatalyze/data/processed/docking_pred/2023-May-31-1727_sub9_nm5_bs15_s42_ex16_mel10_mts10000_k50_ec075_g099_lra3e-4_lrc3e-3/09c0e00cbaa22f287e1ef7d21129eabb08ea3244_ligand_9.pdbqt
 14 15 0 0 0
SMALL
GASTEIGER

@<TRIPOS>ATOM
      1  C          6.1040    1.6740    0.0130 C.3     1  UNL1        0.0800
      2  C          5.1840    1.3880    1.1290 C.2     1  UNL1        0.1300
      3  C          5.4590    0.0980    1.8840 C.3     1  UNL1        0.0870
      4  O          4.2560    2.0470    1.5050 O.2     1  UNL1       -0.3000
      5  C          6.2150    0.6270   -1.0240 C.3     1  UNL1        0.0430
      6  C          7.5240   -0.0070   -1.2000 C.2     1  UNL1       -0.0440
      7  C          8.6450    0.3860   -0.4660 C.2     1  UNL1        0.0080
      8  C          7.6730   -1.0440   -2.0910 C.2     1  UNL1        0.0540
      9  C          9.8330   -0.2700   -0.6620 C.2     1  UNL1        0.0510
     10  C          8.9020   -1.6980   -2.2710 C.2     1  UNL1        0.1660
     11  C         10.0080   -1.3100   -1.5480 C.2     1  UNL1        0.1650
     12  O          9.3360   -2.7450   -3.0750 O.2     1  UNL1       -0.4540
     13  O         11.0920   -2.1180   -1.9160 O.2     1  UNL1       -0.4540
     14  C         10.5190   -3.2730   -2.4920 C.3     1  UNL1        0.4680
@<TRIPOS>BOND
     1    12    14    1
     2    12    10    1
     3    14    13    1
     4    10     8    1
     5    10    11    2
     6     8     6    2
     7    13    11    1
     8    11     9    1
     9     6     5    1
    10     6     7    1
    11     5     1    1
    12     9     7    2
    13     1     2    1
    14     2     4    2
    15     2     3    1
