@<TRIPOS>MOLECULE
/home/cewinharhar/GITHUB/reincatalyze/data/processed/docking_pred/2023-May-31-1727_sub9_nm5_bs15_s42_ex16_mel10_mts10000_k50_ec075_g099_lra3e-4_lrc3e-3/09c0e00cbaa22f287e1ef7d21129eabb08ea3244_ligand_9.pdbqt
 14 15 0 0 0
SMALL
GASTEIGER

@<TRIPOS>ATOM
      1  C          6.0770    0.3770    1.7290 C.3     1  UNL1        0.0800
      2  C          5.1600    1.3690    1.1390 C.2     1  UNL1        0.1300
      3  C          5.4570    1.7530   -0.3010 C.3     1  UNL1        0.0870
      4  O          4.2190    1.9000    1.6560 O.2     1  UNL1       -0.3000
      5  C          6.2050   -0.9050    1.0040 C.3     1  UNL1        0.0430
      6  C          7.4700   -1.1580    0.3090 C.2     1  UNL1       -0.0440
      7  C          8.7070   -0.8570    0.8820 C.2     1  UNL1        0.0080
      8  C          7.4660   -1.7350   -0.9400 C.2     1  UNL1        0.0540
      9  C          9.8520   -1.1460    0.1860 C.2     1  UNL1        0.0510
     10  C          8.6540   -2.0200   -1.6300 C.2     1  UNL1        0.1660
     11  C          9.8740   -1.7230   -1.0650 C.2     1  UNL1        0.1650
     12  O          8.9480   -2.5830   -2.8660 O.2     1  UNL1       -0.4540
     13  O         10.8870   -2.1050   -1.9540 O.2     1  UNL1       -0.4540
     14  C         10.2890   -3.0480   -2.8180 C.3     1  UNL1        0.4680
@<TRIPOS>BOND
     1    12    14    1
     2    12    10    1
     3    14    13    1
     4    13    11    1
     5    10    11    2
     6    10     8    1
     7    11     9    1
     8     8     6    2
     9     3     2    1
    10     9     7    2
    11     6     7    1
    12     6     5    1
    13     5     1    1
    14     2     4    2
    15     2     1    1
