@<TRIPOS>MOLECULE
/home/cewinharhar/GITHUB/reincatalyze/data/processed/docking_pred/2023-May-31-1727_sub9_nm5_bs15_s42_ex16_mel10_mts10000_k50_ec075_g099_lra3e-4_lrc3e-3/09c0e00cbaa22f287e1ef7d21129eabb08ea3244_ligand_9.pdbqt
 14 15 0 0 0
SMALL
GASTEIGER

@<TRIPOS>ATOM
      1  C          6.6560    0.0450    1.9350 C.3     1  UNL1        0.0800
      2  C          5.3590    0.7220    1.7570 C.2     1  UNL1        0.1300
      3  C          5.2760    1.6660    0.5700 C.3     1  UNL1        0.0870
      4  O          4.3740    0.6140    2.4310 O.2     1  UNL1       -0.3000
      5  C          6.7020   -1.3840    1.5610 C.3     1  UNL1        0.0430
      6  C          7.3840   -1.7280    0.3100 C.2     1  UNL1       -0.0440
      7  C          7.0080   -1.1790   -0.9170 C.2     1  UNL1        0.0080
      8  C          8.4510   -2.5960    0.3230 C.2     1  UNL1        0.0540
      9  C          7.7080   -1.5240   -2.0440 C.2     1  UNL1        0.0510
     10  C          9.1500   -2.9320   -0.8460 C.2     1  UNL1        0.1660
     11  C          8.7790   -2.3910   -2.0570 C.2     1  UNL1        0.1650
     12  O         10.2330   -3.7560   -1.1270 O.2     1  UNL1       -0.4540
     13  O          9.6320   -2.8860   -3.0520 O.2     1  UNL1       -0.4540
     14  C         10.7830   -3.3340   -2.3670 C.3     1  UNL1        0.4680
@<TRIPOS>BOND
     1    13    14    1
     2    13    11    1
     3    14    12    1
     4    11     9    2
     5    11    10    1
     6     9     7    1
     7    12    10    1
     8     7     6    2
     9    10     8    2
    10     6     8    1
    11     6     5    1
    12     3     2    1
    13     5     1    1
    14     2     1    1
    15     2     4    2
