MODEL 1
REMARK VINA RESULT:      -8.3      0.000      0.000
REMARK SMILES CC(=O)CCc1ccc2c(c1)OCO2
REMARK SMILES IDX 4 1 2 2 1 3 3 4 5 5 6 6 7 7 11 8 8 9 10 10 9 11 12 12 14 13
REMARK SMILES IDX 13 14
REMARK H PARENT
REMARK Flexibility Score: inf
ROOT
ATOM      1  C   UNL     1       5.777   1.541   0.887  1.00  0.00     0.080 C 
ENDROOT
BRANCH   1   2
ATOM      2  C   UNL     1       5.250   0.598   1.890  1.00  0.00     0.130 C 
ATOM      3  C   UNL     1       6.167  -0.564   2.234  1.00  0.00     0.087 C 
ATOM      4  O   UNL     1       4.197   0.641   2.459  1.00  0.00    -0.300 OA
ENDBRANCH   1   2
BRANCH   1   5
ATOM      5  C   UNL     1       5.795   1.062  -0.511  1.00  0.00     0.043 C 
BRANCH   5   6
ATOM      6  C   UNL     1       7.006   0.378  -0.970  1.00  0.00    -0.044 A 
ATOM      7  C   UNL     1       8.276   0.941  -0.832  1.00  0.00     0.008 A 
ATOM      8  C   UNL     1       6.919  -0.874  -1.533  1.00  0.00     0.054 A 
ATOM      9  C   UNL     1       9.369   0.232  -1.259  1.00  0.00     0.051 A 
ATOM     10  C   UNL     1       8.055  -1.578  -1.961  1.00  0.00     0.166 A 
ATOM     11  C   UNL     1       9.308  -1.022  -1.826  1.00  0.00     0.165 A 
ATOM     12  O   UNL     1       8.265  -2.820  -2.548  1.00  0.00    -0.454 OA
ATOM     13  O   UNL     1      10.257  -1.923  -2.326  1.00  0.00    -0.454 OA
ATOM     14  C   UNL     1       9.618  -3.182  -2.314  1.00  0.00     0.468 C 
ENDBRANCH   5   6
ENDBRANCH   1   5
TORSDOF 3
ENDMDL
MODEL 2
REMARK VINA RESULT:      -7.8      0.940      1.004
REMARK SMILES CC(=O)CCc1ccc2c(c1)OCO2
REMARK SMILES IDX 4 1 2 2 1 3 3 4 5 5 6 6 7 7 11 8 8 9 10 10 9 11 12 12 14 13
REMARK SMILES IDX 13 14
REMARK H PARENT
REMARK Flexibility Score: inf
ROOT
ATOM      1  C   UNL     1       6.104   1.674   0.013  1.00  0.00     0.080 C 
ENDROOT
BRANCH   1   2
ATOM      2  C   UNL     1       5.184   1.388   1.129  1.00  0.00     0.130 C 
ATOM      3  C   UNL     1       5.459   0.098   1.884  1.00  0.00     0.087 C 
ATOM      4  O   UNL     1       4.256   2.047   1.505  1.00  0.00    -0.300 OA
ENDBRANCH   1   2
BRANCH   1   5
ATOM      5  C   UNL     1       6.215   0.627  -1.024  1.00  0.00     0.043 C 
BRANCH   5   6
ATOM      6  C   UNL     1       7.524  -0.007  -1.200  1.00  0.00    -0.044 A 
ATOM      7  C   UNL     1       8.645   0.386  -0.466  1.00  0.00     0.008 A 
ATOM      8  C   UNL     1       7.673  -1.044  -2.091  1.00  0.00     0.054 A 
ATOM      9  C   UNL     1       9.833  -0.270  -0.662  1.00  0.00     0.051 A 
ATOM     10  C   UNL     1       8.902  -1.698  -2.271  1.00  0.00     0.166 A 
ATOM     11  C   UNL     1      10.008  -1.310  -1.548  1.00  0.00     0.165 A 
ATOM     12  O   UNL     1       9.336  -2.745  -3.075  1.00  0.00    -0.454 OA
ATOM     13  O   UNL     1      11.092  -2.118  -1.916  1.00  0.00    -0.454 OA
ATOM     14  C   UNL     1      10.519  -3.273  -2.492  1.00  0.00     0.468 C 
ENDBRANCH   5   6
ENDBRANCH   1   5
TORSDOF 3
ENDMDL
MODEL 3
REMARK VINA RESULT:      -7.6      1.206      1.685
REMARK SMILES CC(=O)CCc1ccc2c(c1)OCO2
REMARK SMILES IDX 4 1 2 2 1 3 3 4 5 5 6 6 7 7 11 8 8 9 10 10 9 11 12 12 14 13
REMARK SMILES IDX 13 14
REMARK H PARENT
REMARK Flexibility Score: inf
ROOT
ATOM      1  C   UNL     1       5.901   1.325  -0.280  1.00  0.00     0.080 C 
ENDROOT
BRANCH   1   2
ATOM      2  C   UNL     1       5.227   1.239   1.029  1.00  0.00     0.130 C 
ATOM      3  C   UNL     1       5.589   0.026   1.868  1.00  0.00     0.087 C 
ATOM      4  O   UNL     1       4.436   2.006   1.501  1.00  0.00    -0.300 OA
ENDBRANCH   1   2
BRANCH   1   5
ATOM      5  C   UNL     1       7.374   1.208  -0.262  1.00  0.00     0.043 C 
BRANCH   5   6
ATOM      6  C   UNL     1       7.970   0.126  -1.051  1.00  0.00    -0.044 A 
ATOM      7  C   UNL     1       7.693  -0.045  -2.408  1.00  0.00     0.008 A 
ATOM      8  C   UNL     1       8.856  -0.746  -0.463  1.00  0.00     0.054 A 
ATOM      9  C   UNL     1       8.308  -1.062  -3.091  1.00  0.00     0.051 A 
ATOM     10  C   UNL     1       9.471  -1.780  -1.186  1.00  0.00     0.166 A 
ATOM     11  C   UNL     1       9.197  -1.949  -2.526  1.00  0.00     0.165 A 
ATOM     12  O   UNL     1      10.380  -2.781  -0.867  1.00  0.00    -0.454 OA
ATOM     13  O   UNL     1       9.935  -3.040  -3.002  1.00  0.00    -0.454 OA
ATOM     14  C   UNL     1      10.989  -3.211  -2.076  1.00  0.00     0.468 C 
ENDBRANCH   5   6
ENDBRANCH   1   5
TORSDOF 3
ENDMDL
MODEL 4
REMARK VINA RESULT:      -7.4      1.366      2.201
REMARK SMILES CC(=O)CCc1ccc2c(c1)OCO2
REMARK SMILES IDX 4 1 2 2 1 3 3 4 5 5 6 6 7 7 11 8 8 9 10 10 9 11 12 12 14 13
REMARK SMILES IDX 13 14
REMARK H PARENT
REMARK Flexibility Score: inf
ROOT
ATOM      1  C   UNL     1       6.656   0.045   1.935  1.00  0.00     0.080 C 
ENDROOT
BRANCH   1   2
ATOM      2  C   UNL     1       5.359   0.722   1.757  1.00  0.00     0.130 C 
ATOM      3  C   UNL     1       5.276   1.666   0.570  1.00  0.00     0.087 C 
ATOM      4  O   UNL     1       4.374   0.614   2.431  1.00  0.00    -0.300 OA
ENDBRANCH   1   2
BRANCH   1   5
ATOM      5  C   UNL     1       6.702  -1.384   1.561  1.00  0.00     0.043 C 
BRANCH   5   6
ATOM      6  C   UNL     1       7.384  -1.728   0.310  1.00  0.00    -0.044 A 
ATOM      7  C   UNL     1       7.008  -1.179  -0.917  1.00  0.00     0.008 A 
ATOM      8  C   UNL     1       8.451  -2.596   0.323  1.00  0.00     0.054 A 
ATOM      9  C   UNL     1       7.708  -1.524  -2.044  1.00  0.00     0.051 A 
ATOM     10  C   UNL     1       9.150  -2.932  -0.846  1.00  0.00     0.166 A 
ATOM     11  C   UNL     1       8.779  -2.391  -2.057  1.00  0.00     0.165 A 
ATOM     12  O   UNL     1      10.233  -3.756  -1.127  1.00  0.00    -0.454 OA
ATOM     13  O   UNL     1       9.632  -2.886  -3.052  1.00  0.00    -0.454 OA
ATOM     14  C   UNL     1      10.783  -3.334  -2.367  1.00  0.00     0.468 C 
ENDBRANCH   5   6
ENDBRANCH   1   5
TORSDOF 3
ENDMDL
MODEL 5
REMARK VINA RESULT:      -7.3      1.344      1.779
REMARK SMILES CC(=O)CCc1ccc2c(c1)OCO2
REMARK SMILES IDX 4 1 2 2 1 3 3 4 5 5 6 6 7 7 11 8 8 9 10 10 9 11 12 12 14 13
REMARK SMILES IDX 13 14
REMARK H PARENT
REMARK Flexibility Score: inf
ROOT
ATOM      1  C   UNL     1       6.077   0.377   1.729  1.00  0.00     0.080 C 
ENDROOT
BRANCH   1   2
ATOM      2  C   UNL     1       5.160   1.369   1.139  1.00  0.00     0.130 C 
ATOM      3  C   UNL     1       5.457   1.753  -0.301  1.00  0.00     0.087 C 
ATOM      4  O   UNL     1       4.219   1.900   1.656  1.00  0.00    -0.300 OA
ENDBRANCH   1   2
BRANCH   1   5
ATOM      5  C   UNL     1       6.205  -0.905   1.004  1.00  0.00     0.043 C 
BRANCH   5   6
ATOM      6  C   UNL     1       7.470  -1.158   0.309  1.00  0.00    -0.044 A 
ATOM      7  C   UNL     1       8.707  -0.857   0.882  1.00  0.00     0.008 A 
ATOM      8  C   UNL     1       7.466  -1.735  -0.940  1.00  0.00     0.054 A 
ATOM      9  C   UNL     1       9.852  -1.146   0.186  1.00  0.00     0.051 A 
ATOM     10  C   UNL     1       8.654  -2.020  -1.630  1.00  0.00     0.166 A 
ATOM     11  C   UNL     1       9.874  -1.723  -1.065  1.00  0.00     0.165 A 
ATOM     12  O   UNL     1       8.948  -2.583  -2.866  1.00  0.00    -0.454 OA
ATOM     13  O   UNL     1      10.887  -2.105  -1.954  1.00  0.00    -0.454 OA
ATOM     14  C   UNL     1      10.289  -3.048  -2.818  1.00  0.00     0.468 C 
ENDBRANCH   5   6
ENDBRANCH   1   5
TORSDOF 3
ENDMDL
