@<TRIPOS>MOLECULE
/home/cewinharhar/GITHUB/reincatalyze/data/processed/docking_pred/2023-May-31-1727_sub9_nm5_bs15_s42_ex16_mel10_mts10000_k50_ec075_g099_lra3e-4_lrc3e-3/09c0e00cbaa22f287e1ef7d21129eabb08ea3244_ligand_9.pdbqt
 14 15 0 0 0
SMALL
GASTEIGER

@<TRIPOS>ATOM
      1  C          5.7770    1.5410    0.8870 C.3     1  UNL1        0.0800
      2  C          5.2500    0.5980    1.8900 C.2     1  UNL1        0.1300
      3  C          6.1670   -0.5640    2.2340 C.3     1  UNL1        0.0870
      4  O          4.1970    0.6410    2.4590 O.2     1  UNL1       -0.3000
      5  C          5.7950    1.0620   -0.5110 C.3     1  UNL1        0.0430
      6  C          7.0060    0.3780   -0.9700 C.2     1  UNL1       -0.0440
      7  C          8.2760    0.9410   -0.8320 C.2     1  UNL1        0.0080
      8  C          6.9190   -0.8740   -1.5330 C.2     1  UNL1        0.0540
      9  C          9.3690    0.2320   -1.2590 C.2     1  UNL1        0.0510
     10  C          8.0550   -1.5780   -1.9610 C.2     1  UNL1        0.1660
     11  C          9.3080   -1.0220   -1.8260 C.2     1  UNL1        0.1650
     12  O          8.2650   -2.8200   -2.5480 O.2     1  UNL1       -0.4540
     13  O         10.2570   -1.9230   -2.3260 O.2     1  UNL1       -0.4540
     14  C          9.6180   -3.1820   -2.3140 C.3     1  UNL1        0.4680
@<TRIPOS>BOND
     1    12    14    1
     2    12    10    1
     3    13    14    1
     4    13    11    1
     5    10    11    2
     6    10     8    1
     7    11     9    1
     8     8     6    2
     9     9     7    2
    10     6     7    1
    11     6     5    1
    12     5     1    1
    13     1     2    1
    14     2     3    1
    15     2     4    2
