@<TRIPOS>MOLECULE
/home/cewinharhar/GITHUB/reincatalyze/data/processed/docking_pred/2023-May-31-1727_sub9_nm5_bs15_s42_ex16_mel10_mts10000_k50_ec075_g099_lra3e-4_lrc3e-3/09c0e00cbaa22f287e1ef7d21129eabb08ea3244_ligand_9.pdbqt
 14 15 0 0 0
SMALL
GASTEIGER

@<TRIPOS>ATOM
      1  C          5.9010    1.3250   -0.2800 C.3     1  UNL1        0.0800
      2  C          5.2270    1.2390    1.0290 C.2     1  UNL1        0.1300
      3  C          5.5890    0.0260    1.8680 C.3     1  UNL1        0.0870
      4  O          4.4360    2.0060    1.5010 O.2     1  UNL1       -0.3000
      5  C          7.3740    1.2080   -0.2620 C.3     1  UNL1        0.0430
      6  C          7.9700    0.1260   -1.0510 C.2     1  UNL1       -0.0440
      7  C          7.6930   -0.0450   -2.4080 C.2     1  UNL1        0.0080
      8  C          8.8560   -0.7460   -0.4630 C.2     1  UNL1        0.0540
      9  C          8.3080   -1.0620   -3.0910 C.2     1  UNL1        0.0510
     10  C          9.4710   -1.7800   -1.1860 C.2     1  UNL1        0.1660
     11  C          9.1970   -1.9490   -2.5260 C.2     1  UNL1        0.1650
     12  O         10.3800   -2.7810   -0.8670 O.2     1  UNL1       -0.4540
     13  O          9.9350   -3.0400   -3.0020 O.2     1  UNL1       -0.4540
     14  C         10.9890   -3.2110   -2.0760 C.3     1  UNL1        0.4680
@<TRIPOS>BOND
     1     9    11    2
     2     9     7    1
     3    13    11    1
     4    13    14    1
     5    11    10    1
     6     7     6    2
     7    14    12    1
     8    10    12    1
     9    10     8    2
    10     6     8    1
    11     6     5    1
    12     1     5    1
    13     1     2    1
    14     2     4    2
    15     2     3    1
