@<TRIPOS>MOLECULE
/home/cewinharhar/GITHUB/reincatalyze/data/processed/docking_pred/2023-May-31-1727_sub9_nm5_bs15_s42_ex16_mel10_mts10000_k50_ec075_g099_lra3e-4_lrc3e-3/0bc78f1071f374665515956646110ea4a2a90639_ligand_9.pdbqt
 14 15 0 0 0
SMALL
GASTEIGER

@<TRIPOS>ATOM
      1  C          5.8680    1.2770   -0.2680 C.3     1  UNL1        0.0800
      2  C          5.2230    1.3010    1.0570 C.2     1  UNL1        0.1300
      3  C          5.5060    0.0980    1.9400 C.3     1  UNL1        0.0870
      4  O          4.5100    2.1500    1.5120 O.2     1  UNL1       -0.3000
      5  C          7.2950    0.8940   -0.2910 C.3     1  UNL1        0.0430
      6  C          7.6310   -0.4080   -0.8760 C.2     1  UNL1       -0.0440
      7  C          7.6880   -0.6100   -2.2560 C.2     1  UNL1        0.0080
      8  C          7.9300   -1.4730   -0.0590 C.2     1  UNL1        0.0540
      9  C          8.0350   -1.8470   -2.7340 C.2     1  UNL1        0.0510
     10  C          8.2830   -2.7290   -0.5760 C.2     1  UNL1        0.1660
     11  C          8.3390   -2.9290   -1.9380 C.2     1  UNL1        0.1650
     12  O          8.6260   -3.9510   -0.0100 O.2     1  UNL1       -0.4540
     13  O          8.7120   -4.2570   -2.1830 O.2     1  UNL1       -0.4540
     14  C          9.3310   -4.6970   -0.9920 C.3     1  UNL1        0.4680
@<TRIPOS>BOND
     1     9     7    1
     2     9    11    2
     3     7     6    2
     4    13    11    1
     5    13    14    1
     6    11    10    1
     7    14    12    1
     8     6     5    1
     9     6     8    1
    10    10     8    2
    11    10    12    1
    12     5     1    1
    13     1     2    1
    14     2     4    2
    15     2     3    1
