@<TRIPOS>MOLECULE
/home/cewinharhar/GITHUB/reincatalyze/data/processed/docking_pred/2023-May-31-1727_sub9_nm5_bs15_s42_ex16_mel10_mts10000_k50_ec075_g099_lra3e-4_lrc3e-3/0c0669ff2f8dcec30d9aff9f411b757c1c1ac29f_ligand_9.pdbqt
 14 15 0 0 0
SMALL
GASTEIGER

@<TRIPOS>ATOM
      1  C          5.8610    0.2690    1.8960 C.3     1  UNL1        0.0800
      2  C          4.7640    1.2160    1.6230 C.2     1  UNL1        0.1300
      3  C          4.9800    2.1380    0.4360 C.3     1  UNL1        0.0870
      4  O          3.7340    1.3400    2.2230 O.2     1  UNL1       -0.3000
      5  C          7.0900    0.4490    1.0950 C.3     1  UNL1        0.0430
      6  C          7.4270   -0.6080    0.1370 C.2     1  UNL1       -0.0440
      7  C          7.3430   -0.4150   -1.2430 C.2     1  UNL1        0.0080
      8  C          7.8690   -1.8300    0.5880 C.2     1  UNL1        0.0540
      9  C          7.7000   -1.4400   -2.0810 C.2     1  UNL1        0.0510
     10  C          8.2280   -2.8610   -0.2930 C.2     1  UNL1        0.1660
     11  C          8.1450   -2.6710   -1.6550 C.2     1  UNL1        0.1650
     12  O          8.6940   -4.1600   -0.1300 O.2     1  UNL1       -0.4540
     13  O          8.5580   -3.8450   -2.2990 O.2     1  UNL1       -0.4540
     14  C          9.3260   -4.5450   -1.3430 C.3     1  UNL1        0.4680
@<TRIPOS>BOND
     1    13    11    1
     2    13    14    1
     3     9    11    2
     4     9     7    1
     5    11    10    1
     6    14    12    1
     7     7     6    2
     8    10    12    1
     9    10     8    2
    10     6     8    1
    11     6     5    1
    12     3     2    1
    13     5     1    1
    14     2     1    1
    15     2     4    2
