@<TRIPOS>MOLECULE
/home/cewinharhar/GITHUB/reincatalyze/data/processed/docking_pred/2023-May-31-1727_sub9_nm5_bs15_s42_ex16_mel10_mts10000_k50_ec075_g099_lra3e-4_lrc3e-3/0df60b8790b800bbceb9ee276e91b409308b6f54_ligand_9.pdbqt
 14 15 0 0 0
SMALL
GASTEIGER

@<TRIPOS>ATOM
      1  C          6.2050    1.2120    0.8850 C.3     1  UNL1        0.0800
      2  C          5.5360    0.3970    1.9150 C.2     1  UNL1        0.1300
      3  C          6.3250   -0.8060    2.4050 C.3     1  UNL1        0.0870
      4  O          4.4570    0.5710    2.4050 O.2     1  UNL1       -0.3000
      5  C          5.8650    0.8960   -0.5180 C.3     1  UNL1        0.0430
      6  C          6.8460    0.1260   -1.2880 C.2     1  UNL1       -0.0440
      7  C          7.7910    0.7380   -2.1140 C.2     1  UNL1        0.0080
      8  C          6.8750   -1.2460   -1.1890 C.2     1  UNL1        0.0540
      9  C          8.6960   -0.0430   -2.7840 C.2     1  UNL1        0.0510
     10  C          7.8140   -2.0210   -1.8870 C.2     1  UNL1        0.1660
     11  C          8.7450   -1.4170   -2.7020 C.2     1  UNL1        0.1650
     12  O          8.0740   -3.3830   -1.9770 O.2     1  UNL1       -0.4540
     13  O          9.5540   -2.4080   -3.2740 O.2     1  UNL1       -0.4540
     14  C          9.4090   -3.5370   -2.4360 C.3     1  UNL1        0.4680
@<TRIPOS>BOND
     1    13    11    1
     2    13    14    1
     3     9    11    2
     4     9     7    1
     5    11    10    1
     6    14    12    1
     7     7     6    2
     8    12    10    1
     9    10     8    2
    10     6     8    1
    11     6     5    1
    12     5     1    1
    13     1     2    1
    14     2     3    1
    15     2     4    2
