@<TRIPOS>MOLECULE
/home/cewinharhar/GITHUB/reincatalyze/data/processed/docking_pred/2023-May-31-1727_sub9_nm5_bs15_s42_ex16_mel10_mts10000_k50_ec075_g099_lra3e-4_lrc3e-3/104e94148118840ff9051874ebdd157f969f5898_ligand_9.pdbqt
 14 15 0 0 0
SMALL
GASTEIGER

@<TRIPOS>ATOM
      1  C          6.2800    1.2060    0.8700 C.3     1  UNL1        0.0800
      2  C          5.5740    0.4340    1.9090 C.2     1  UNL1        0.1300
      3  C          6.3150   -0.7860    2.4280 C.3     1  UNL1        0.0870
      4  O          4.4970    0.6560    2.3850 O.2     1  UNL1       -0.3000
      5  C          5.9000    0.9160   -0.5290 C.3     1  UNL1        0.0430
      6  C          6.8300    0.1080   -1.3220 C.2     1  UNL1       -0.0440
      7  C          7.5900    0.6520   -2.3590 C.2     1  UNL1        0.0080
      8  C          6.9990   -1.2270   -1.0370 C.2     1  UNL1        0.0540
      9  C          8.4610   -0.1560   -3.0420 C.2     1  UNL1        0.0510
     10  C          7.8990   -2.0310   -1.7530 C.2     1  UNL1        0.1660
     11  C          8.6480   -1.4950   -2.7770 C.2     1  UNL1        0.1650
     12  O          8.2680   -3.3700   -1.6890 O.2     1  UNL1       -0.4540
     13  O          9.4560   -2.5020   -3.3190 O.2     1  UNL1       -0.4540
     14  C          9.5340   -3.4970   -2.3190 C.3     1  UNL1        0.4680
@<TRIPOS>BOND
     1    13    11    1
     2    13    14    1
     3     9    11    2
     4     9     7    1
     5    11    10    1
     6     7     6    2
     7    14    12    1
     8    10    12    1
     9    10     8    2
    10     6     8    1
    11     6     5    1
    12     5     1    1
    13     1     2    1
    14     2     4    2
    15     2     3    1
