@<TRIPOS>MOLECULE
/home/cewinharhar/GITHUB/reincatalyze/data/processed/docking_pred/2023-May-31-1727_sub9_nm5_bs15_s42_ex16_mel10_mts10000_k50_ec075_g099_lra3e-4_lrc3e-3/10ef791c1764d6d7d99274693c0e95c254b80295_ligand_9.pdbqt
 14 15 0 0 0
SMALL
GASTEIGER

@<TRIPOS>ATOM
      1  C          5.7330    1.2920   -0.2670 C.3     1  UNL1        0.0800
      2  C          5.1310    1.3040    1.0780 C.2     1  UNL1        0.1300
      3  C          5.5300    0.1480    1.9800 C.3     1  UNL1        0.0870
      4  O          4.3720    2.1100    1.5380 O.2     1  UNL1       -0.3000
      5  C          7.1800    0.9980   -0.3300 C.3     1  UNL1        0.0430
      6  C          7.5790   -0.2840   -0.9160 C.2     1  UNL1       -0.0440
      7  C          7.7590   -0.4510   -2.2900 C.2     1  UNL1        0.0080
      8  C          7.8180   -1.3680   -0.1030 C.2     1  UNL1        0.0540
      9  C          8.1590   -1.6720   -2.7670 C.2     1  UNL1        0.0510
     10  C          8.2280   -2.6070   -0.6190 C.2     1  UNL1        0.1660
     11  C          8.4040   -2.7720   -1.9750 C.2     1  UNL1        0.1650
     12  O          8.5340   -3.8400   -0.0560 O.2     1  UNL1       -0.4540
     13  O          8.8110   -4.0890   -2.2200 O.2     1  UNL1       -0.4540
     14  C          9.3300   -4.5540   -0.9910 C.3     1  UNL1        0.4680
@<TRIPOS>BOND
     1     9     7    1
     2     9    11    2
     3     7     6    2
     4    13    11    1
     5    13    14    1
     6    11    10    1
     7    14    12    1
     8     6     5    1
     9     6     8    1
    10    10     8    2
    11    10    12    1
    12     5     1    1
    13     1     2    1
    14     2     4    2
    15     2     3    1
