@<TRIPOS>MOLECULE
/home/cewinharhar/GITHUB/reincatalyze/data/processed/docking_pred/2023-May-31-1727_sub9_nm5_bs15_s42_ex16_mel10_mts10000_k50_ec075_g099_lra3e-4_lrc3e-3/10ef791c1764d6d7d99274693c0e95c254b80295_ligand_9.pdbqt
 14 15 0 0 0
SMALL
GASTEIGER

@<TRIPOS>ATOM
      1  C          5.3450   -0.0430    1.9990 C.3     1  UNL1        0.0800
      2  C          4.4030    1.0850    1.8830 C.2     1  UNL1        0.1300
      3  C          4.7510    2.1160    0.8220 C.3     1  UNL1        0.0870
      4  O          3.4080    1.2810    2.5210 O.2     1  UNL1       -0.3000
      5  C          6.7720    0.2750    1.7830 C.3     1  UNL1        0.0430
      6  C          7.3300   -0.0130    0.4590 C.2     1  UNL1       -0.0440
      7  C          7.9110    0.9780   -0.3350 C.2     1  UNL1        0.0080
      8  C          7.3180   -1.2990   -0.0290 C.2     1  UNL1        0.0540
      9  C          8.4380    0.6330   -1.5520 C.2     1  UNL1        0.0510
     10  C          7.8660   -1.6240   -1.2790 C.2     1  UNL1        0.1660
     11  C          8.4380   -0.6470   -2.0630 C.2     1  UNL1        0.1650
     12  O          7.9920   -2.8010   -2.0080 O.2     1  UNL1       -0.4540
     13  O          8.9020   -1.2330   -3.2470 O.2     1  UNL1       -0.4540
     14  C          9.0320   -2.6090   -2.9560 C.3     1  UNL1        0.4680
@<TRIPOS>BOND
     1    13    14    1
     2    13    11    1
     3    14    12    1
     4    11     9    2
     5    11    10    1
     6    12    10    1
     7     9     7    1
     8    10     8    2
     9     7     6    2
    10     8     6    1
    11     6     5    1
    12     3     2    1
    13     5     1    1
    14     2     1    1
    15     2     4    2
