MODEL 1
REMARK VINA RESULT:      -7.6      0.000      0.000
REMARK SMILES CC(=O)CCc1ccc2c(c1)OCO2
REMARK SMILES IDX 4 1 2 2 1 3 3 4 5 5 6 6 7 7 11 8 8 9 10 10 9 11 12 12 14 13
REMARK SMILES IDX 13 14
REMARK H PARENT
REMARK Flexibility Score: inf
ROOT
ATOM      1  C   UNL     1       5.678   1.835   1.296  1.00  0.00     0.080 C 
ENDROOT
BRANCH   1   2
ATOM      2  C   UNL     1       5.082   0.697   2.019  1.00  0.00     0.130 C 
ATOM      3  C   UNL     1       5.974  -0.525   2.158  1.00  0.00     0.087 C 
ATOM      4  O   UNL     1       3.988   0.626   2.504  1.00  0.00    -0.300 OA
ENDBRANCH   1   2
BRANCH   1   5
ATOM      5  C   UNL     1       5.664   1.749  -0.179  1.00  0.00     0.043 C 
BRANCH   5   6
ATOM      6  C   UNL     1       6.740   0.984  -0.817  1.00  0.00    -0.044 A 
ATOM      7  C   UNL     1       8.084   1.332  -0.677  1.00  0.00     0.008 A 
ATOM      8  C   UNL     1       6.442  -0.135  -1.559  1.00  0.00     0.054 A 
ATOM      9  C   UNL     1       9.040   0.555  -1.278  1.00  0.00     0.051 A 
ATOM     10  C   UNL     1       7.441  -0.913  -2.164  1.00  0.00     0.166 A 
ATOM     11  C   UNL     1       8.767  -0.569  -2.027  1.00  0.00     0.165 A 
ATOM     12  O   UNL     1       7.437  -2.060  -2.949  1.00  0.00    -0.454 OA
ATOM     13  O   UNL     1       9.549  -1.501  -2.722  1.00  0.00    -0.454 OA
ATOM     14  C   UNL     1       8.729  -2.643  -2.863  1.00  0.00     0.468 C 
ENDBRANCH   5   6
ENDBRANCH   1   5
TORSDOF 3
ENDMDL
MODEL 2
REMARK VINA RESULT:      -7.0      1.813      2.255
REMARK SMILES CC(=O)CCc1ccc2c(c1)OCO2
REMARK SMILES IDX 4 1 2 2 1 3 3 4 5 5 6 6 7 7 11 8 8 9 10 10 9 11 12 12 14 13
REMARK SMILES IDX 13 14
REMARK H PARENT
REMARK Flexibility Score: inf
ROOT
ATOM      1  C   UNL     1       5.733   1.292  -0.267  1.00  0.00     0.080 C 
ENDROOT
BRANCH   1   2
ATOM      2  C   UNL     1       5.131   1.304   1.078  1.00  0.00     0.130 C 
ATOM      3  C   UNL     1       5.530   0.148   1.980  1.00  0.00     0.087 C 
ATOM      4  O   UNL     1       4.372   2.110   1.538  1.00  0.00    -0.300 OA
ENDBRANCH   1   2
BRANCH   1   5
ATOM      5  C   UNL     1       7.180   0.998  -0.330  1.00  0.00     0.043 C 
BRANCH   5   6
ATOM      6  C   UNL     1       7.579  -0.284  -0.916  1.00  0.00    -0.044 A 
ATOM      7  C   UNL     1       7.759  -0.451  -2.290  1.00  0.00     0.008 A 
ATOM      8  C   UNL     1       7.818  -1.368  -0.103  1.00  0.00     0.054 A 
ATOM      9  C   UNL     1       8.159  -1.672  -2.767  1.00  0.00     0.051 A 
ATOM     10  C   UNL     1       8.228  -2.607  -0.619  1.00  0.00     0.166 A 
ATOM     11  C   UNL     1       8.404  -2.772  -1.975  1.00  0.00     0.165 A 
ATOM     12  O   UNL     1       8.534  -3.840  -0.056  1.00  0.00    -0.454 OA
ATOM     13  O   UNL     1       8.811  -4.089  -2.220  1.00  0.00    -0.454 OA
ATOM     14  C   UNL     1       9.330  -4.554  -0.991  1.00  0.00     0.468 C 
ENDBRANCH   5   6
ENDBRANCH   1   5
TORSDOF 3
ENDMDL
MODEL 3
REMARK VINA RESULT:      -6.9      1.208      1.335
REMARK SMILES CC(=O)CCc1ccc2c(c1)OCO2
REMARK SMILES IDX 4 1 2 2 1 3 3 4 5 5 6 6 7 7 11 8 8 9 10 10 9 11 12 12 14 13
REMARK SMILES IDX 13 14
REMARK H PARENT
REMARK Flexibility Score: inf
ROOT
ATOM      1  C   UNL     1       6.347   1.151   0.801  1.00  0.00     0.080 C 
ENDROOT
BRANCH   1   2
ATOM      2  C   UNL     1       5.662   0.414   1.878  1.00  0.00     0.130 C 
ATOM      3  C   UNL     1       6.392  -0.816   2.390  1.00  0.00     0.087 C 
ATOM      4  O   UNL     1       4.609   0.670   2.390  1.00  0.00    -0.300 OA
ENDBRANCH   1   2
BRANCH   1   5
ATOM      5  C   UNL     1       5.944   0.811  -0.580  1.00  0.00     0.043 C 
BRANCH   5   6
ATOM      6  C   UNL     1       6.885   0.021  -1.378  1.00  0.00    -0.044 A 
ATOM      7  C   UNL     1       7.676   0.591  -2.377  1.00  0.00     0.008 A 
ATOM      8  C   UNL     1       7.032  -1.325  -1.135  1.00  0.00     0.054 A 
ATOM      9  C   UNL     1       8.555  -0.203  -3.066  1.00  0.00     0.051 A 
ATOM     10  C   UNL     1       7.941  -2.115  -1.856  1.00  0.00     0.166 A 
ATOM     11  C   UNL     1       8.721  -1.552  -2.842  1.00  0.00     0.165 A 
ATOM     12  O   UNL     1       8.294  -3.459  -1.830  1.00  0.00    -0.454 OA
ATOM     13  O   UNL     1       9.531  -2.550  -3.399  1.00  0.00    -0.454 OA
ATOM     14  C   UNL     1       9.574  -3.579  -2.432  1.00  0.00     0.468 C 
ENDBRANCH   5   6
ENDBRANCH   1   5
TORSDOF 3
ENDMDL
MODEL 4
REMARK VINA RESULT:      -6.7      1.100      1.590
REMARK SMILES CC(=O)CCc1ccc2c(c1)OCO2
REMARK SMILES IDX 4 1 2 2 1 3 3 4 5 5 6 6 7 7 11 8 8 9 10 10 9 11 12 12 14 13
REMARK SMILES IDX 13 14
REMARK H PARENT
REMARK Flexibility Score: inf
ROOT
ATOM      1  C   UNL     1       5.345  -0.043   1.999  1.00  0.00     0.080 C 
ENDROOT
BRANCH   1   2
ATOM      2  C   UNL     1       4.403   1.085   1.883  1.00  0.00     0.130 C 
ATOM      3  C   UNL     1       4.751   2.116   0.822  1.00  0.00     0.087 C 
ATOM      4  O   UNL     1       3.408   1.281   2.521  1.00  0.00    -0.300 OA
ENDBRANCH   1   2
BRANCH   1   5
ATOM      5  C   UNL     1       6.772   0.275   1.783  1.00  0.00     0.043 C 
BRANCH   5   6
ATOM      6  C   UNL     1       7.330  -0.013   0.459  1.00  0.00    -0.044 A 
ATOM      7  C   UNL     1       7.911   0.978  -0.335  1.00  0.00     0.008 A 
ATOM      8  C   UNL     1       7.318  -1.299  -0.029  1.00  0.00     0.054 A 
ATOM      9  C   UNL     1       8.438   0.633  -1.552  1.00  0.00     0.051 A 
ATOM     10  C   UNL     1       7.866  -1.624  -1.279  1.00  0.00     0.166 A 
ATOM     11  C   UNL     1       8.438  -0.647  -2.063  1.00  0.00     0.165 A 
ATOM     12  O   UNL     1       7.992  -2.801  -2.008  1.00  0.00    -0.454 OA
ATOM     13  O   UNL     1       8.902  -1.233  -3.247  1.00  0.00    -0.454 OA
ATOM     14  C   UNL     1       9.032  -2.609  -2.956  1.00  0.00     0.468 C 
ENDBRANCH   5   6
ENDBRANCH   1   5
TORSDOF 3
ENDMDL
MODEL 5
REMARK VINA RESULT:      -6.7      1.953      2.456
REMARK SMILES CC(=O)CCc1ccc2c(c1)OCO2
REMARK SMILES IDX 4 1 2 2 1 3 3 4 5 5 6 6 7 7 11 8 8 9 10 10 9 11 12 12 14 13
REMARK SMILES IDX 13 14
REMARK H PARENT
REMARK Flexibility Score: inf
ROOT
ATOM      1  C   UNL     1       5.840   0.222   1.981  1.00  0.00     0.080 C 
ENDROOT
BRANCH   1   2
ATOM      2  C   UNL     1       4.751   1.177   1.704  1.00  0.00     0.130 C 
ATOM      3  C   UNL     1       5.000   2.127   0.545  1.00  0.00     0.087 C 
ATOM      4  O   UNL     1       3.706   1.288   2.279  1.00  0.00    -0.300 OA
ENDBRANCH   1   2
BRANCH   1   5
ATOM      5  C   UNL     1       7.085   0.410   1.207  1.00  0.00     0.043 C 
BRANCH   5   6
ATOM      6  C   UNL     1       7.430  -0.626   0.230  1.00  0.00    -0.044 A 
ATOM      7  C   UNL     1       7.354  -0.407  -1.146  1.00  0.00     0.008 A 
ATOM      8  C   UNL     1       7.873  -1.856   0.658  1.00  0.00     0.054 A 
ATOM      9  C   UNL     1       7.718  -1.413  -2.003  1.00  0.00     0.051 A 
ATOM     10  C   UNL     1       8.240  -2.868  -0.241  1.00  0.00     0.166 A 
ATOM     11  C   UNL     1       8.164  -2.652  -1.599  1.00  0.00     0.165 A 
ATOM     12  O   UNL     1       8.709  -4.169  -0.101  1.00  0.00    -0.454 OA
ATOM     13  O   UNL     1       8.584  -3.811  -2.264  1.00  0.00    -0.454 OA
ATOM     14  C   UNL     1       9.349  -4.528  -1.317  1.00  0.00     0.468 C 
ENDBRANCH   5   6
ENDBRANCH   1   5
TORSDOF 3
ENDMDL
