@<TRIPOS>MOLECULE
/home/cewinharhar/GITHUB/reincatalyze/data/processed/docking_pred/2023-May-31-1727_sub9_nm5_bs15_s42_ex16_mel10_mts10000_k50_ec075_g099_lra3e-4_lrc3e-3/12a677e1fc1355f2f00deb0d8e94f00822fba38d_ligand_9.pdbqt
 14 15 0 0 0
SMALL
GASTEIGER

@<TRIPOS>ATOM
      1  C          5.6550    0.2420    1.8390 C.3     1  UNL1        0.0800
      2  C          4.7610    1.3440    1.4390 C.2     1  UNL1        0.1300
      3  C          5.1830    2.1030    0.1920 C.3     1  UNL1        0.0870
      4  O          3.7530    1.7050    1.9760 O.2     1  UNL1       -0.3000
      5  C          7.0310    0.2920    1.3020 C.3     1  UNL1        0.0430
      6  C          7.4010   -0.7210    0.3090 C.2     1  UNL1       -0.0440
      7  C          7.3080   -0.4850   -1.0640 C.2     1  UNL1        0.0080
      8  C          7.8840   -1.9420    0.7180 C.2     1  UNL1        0.0540
      9  C          7.6960   -1.4690   -1.9360 C.2     1  UNL1        0.0510
     10  C          8.2750   -2.9310   -0.1980 C.2     1  UNL1        0.1660
     11  C          8.1830   -2.6990   -1.5520 C.2     1  UNL1        0.1650
     12  O          8.7850   -4.2180   -0.0790 O.2     1  UNL1       -0.4540
     13  O          8.6330   -3.8360   -2.2350 O.2     1  UNL1       -0.4540
     14  C          9.4260   -4.5410   -1.3040 C.3     1  UNL1        0.4680
@<TRIPOS>BOND
     1    13    11    1
     2    13    14    1
     3     9    11    2
     4     9     7    1
     5    11    10    1
     6    14    12    1
     7     7     6    2
     8    10    12    1
     9    10     8    2
    10     3     2    1
    11     6     8    1
    12     6     5    1
    13     5     1    1
    14     2     1    1
    15     2     4    2
