MODEL 1
REMARK VINA RESULT:      -7.6      0.000      0.000
REMARK SMILES CC(=O)CCc1ccc2c(c1)OCO2
REMARK SMILES IDX 4 1 2 2 1 3 3 4 5 5 6 6 7 7 11 8 8 9 10 10 9 11 12 12 14 13
REMARK SMILES IDX 13 14
REMARK H PARENT
REMARK Flexibility Score: inf
ROOT
ATOM      1  C   UNL     1       5.667   1.828   1.297  1.00  0.00     0.080 C 
ENDROOT
BRANCH   1   2
ATOM      2  C   UNL     1       5.048   0.697   2.011  1.00  0.00     0.130 C 
ATOM      3  C   UNL     1       5.910  -0.549   2.127  1.00  0.00     0.087 C 
ATOM      4  O   UNL     1       3.958   0.647   2.505  1.00  0.00    -0.300 OA
ENDBRANCH   1   2
BRANCH   1   5
ATOM      5  C   UNL     1       5.658   1.750  -0.179  1.00  0.00     0.043 C 
BRANCH   5   6
ATOM      6  C   UNL     1       6.736   0.988  -0.816  1.00  0.00    -0.044 A 
ATOM      7  C   UNL     1       8.079   1.342  -0.679  1.00  0.00     0.008 A 
ATOM      8  C   UNL     1       6.441  -0.132  -1.557  1.00  0.00     0.054 A 
ATOM      9  C   UNL     1       9.037   0.568  -1.281  1.00  0.00     0.051 A 
ATOM     10  C   UNL     1       7.442  -0.907  -2.163  1.00  0.00     0.166 A 
ATOM     11  C   UNL     1       8.768  -0.558  -2.028  1.00  0.00     0.165 A 
ATOM     12  O   UNL     1       7.443  -2.055  -2.946  1.00  0.00    -0.454 OA
ATOM     13  O   UNL     1       9.552  -1.488  -2.723  1.00  0.00    -0.454 OA
ATOM     14  C   UNL     1       8.737  -2.633  -2.861  1.00  0.00     0.468 C 
ENDBRANCH   5   6
ENDBRANCH   1   5
TORSDOF 3
ENDMDL
MODEL 2
REMARK VINA RESULT:      -7.0      1.817      2.279
REMARK SMILES CC(=O)CCc1ccc2c(c1)OCO2
REMARK SMILES IDX 4 1 2 2 1 3 3 4 5 5 6 6 7 7 11 8 8 9 10 10 9 11 12 12 14 13
REMARK SMILES IDX 13 14
REMARK H PARENT
REMARK Flexibility Score: inf
ROOT
ATOM      1  C   UNL     1       5.775   1.406  -0.257  1.00  0.00     0.080 C 
ENDROOT
BRANCH   1   2
ATOM      2  C   UNL     1       5.113   1.333   1.058  1.00  0.00     0.130 C 
ATOM      3  C   UNL     1       5.514   0.151   1.924  1.00  0.00     0.087 C 
ATOM      4  O   UNL     1       4.305   2.090   1.517  1.00  0.00    -0.300 OA
ENDBRANCH   1   2
BRANCH   1   5
ATOM      5  C   UNL     1       7.204   1.028  -0.288  1.00  0.00     0.043 C 
BRANCH   5   6
ATOM      6  C   UNL     1       7.541  -0.272  -0.873  1.00  0.00    -0.044 A 
ATOM      7  C   UNL     1       7.612  -0.472  -2.253  1.00  0.00     0.008 A 
ATOM      8  C   UNL     1       7.827  -1.341  -0.056  1.00  0.00     0.054 A 
ATOM      9  C   UNL     1       7.960  -1.709  -2.730  1.00  0.00     0.051 A 
ATOM     10  C   UNL     1       8.181  -2.597  -0.572  1.00  0.00     0.166 A 
ATOM     11  C   UNL     1       8.251  -2.794  -1.934  1.00  0.00     0.165 A 
ATOM     12  O   UNL     1       8.514  -3.822  -0.006  1.00  0.00    -0.454 OA
ATOM     13  O   UNL     1       8.621  -4.122  -2.179  1.00  0.00    -0.454 OA
ATOM     14  C   UNL     1       9.227  -4.567  -0.982  1.00  0.00     0.468 C 
ENDBRANCH   5   6
ENDBRANCH   1   5
TORSDOF 3
ENDMDL
MODEL 3
REMARK VINA RESULT:      -7.0      1.123      1.208
REMARK SMILES CC(=O)CCc1ccc2c(c1)OCO2
REMARK SMILES IDX 4 1 2 2 1 3 3 4 5 5 6 6 7 7 11 8 8 9 10 10 9 11 12 12 14 13
REMARK SMILES IDX 13 14
REMARK H PARENT
REMARK Flexibility Score: inf
ROOT
ATOM      1  C   UNL     1       6.244   1.220   0.854  1.00  0.00     0.080 C 
ENDROOT
BRANCH   1   2
ATOM      2  C   UNL     1       5.568   0.443   1.908  1.00  0.00     0.130 C 
ATOM      3  C   UNL     1       6.342  -0.754   2.431  1.00  0.00     0.087 C 
ATOM      4  O   UNL     1       4.491   0.645   2.395  1.00  0.00    -0.300 OA
ENDBRANCH   1   2
BRANCH   1   5
ATOM      5  C   UNL     1       5.879   0.885  -0.538  1.00  0.00     0.043 C 
BRANCH   5   6
ATOM      6  C   UNL     1       6.845   0.104  -1.315  1.00  0.00    -0.044 A 
ATOM      7  C   UNL     1       7.744   0.702  -2.201  1.00  0.00     0.008 A 
ATOM      8  C   UNL     1       6.908  -1.262  -1.164  1.00  0.00     0.054 A 
ATOM      9  C   UNL     1       8.639  -0.087  -2.875  1.00  0.00     0.051 A 
ATOM     10  C   UNL     1       7.836  -2.045  -1.867  1.00  0.00     0.166 A 
ATOM     11  C   UNL     1       8.722  -1.456  -2.742  1.00  0.00     0.165 A 
ATOM     12  O   UNL     1       8.122  -3.404  -1.915  1.00  0.00    -0.454 OA
ATOM     13  O   UNL     1       9.529  -2.452  -3.306  1.00  0.00    -0.454 OA
ATOM     14  C   UNL     1       9.441  -3.549  -2.420  1.00  0.00     0.468 C 
ENDBRANCH   5   6
ENDBRANCH   1   5
TORSDOF 3
ENDMDL
MODEL 4
REMARK VINA RESULT:      -6.7      1.108      1.586
REMARK SMILES CC(=O)CCc1ccc2c(c1)OCO2
REMARK SMILES IDX 4 1 2 2 1 3 3 4 5 5 6 6 7 7 11 8 8 9 10 10 9 11 12 12 14 13
REMARK SMILES IDX 13 14
REMARK H PARENT
REMARK Flexibility Score: inf
ROOT
ATOM      1  C   UNL     1       5.335  -0.022   1.989  1.00  0.00     0.080 C 
ENDROOT
BRANCH   1   2
ATOM      2  C   UNL     1       4.388   1.101   1.869  1.00  0.00     0.130 C 
ATOM      3  C   UNL     1       4.733   2.132   0.807  1.00  0.00     0.087 C 
ATOM      4  O   UNL     1       3.390   1.293   2.504  1.00  0.00    -0.300 OA
ENDBRANCH   1   2
BRANCH   1   5
ATOM      5  C   UNL     1       6.760   0.300   1.762  1.00  0.00     0.043 C 
BRANCH   5   6
ATOM      6  C   UNL     1       7.312  -0.000   0.438  1.00  0.00    -0.044 A 
ATOM      7  C   UNL     1       7.870   0.987  -0.377  1.00  0.00     0.008 A 
ATOM      8  C   UNL     1       7.317  -1.294  -0.029  1.00  0.00     0.054 A 
ATOM      9  C   UNL     1       8.393   0.630  -1.592  1.00  0.00     0.051 A 
ATOM     10  C   UNL     1       7.859  -1.631  -1.278  1.00  0.00     0.166 A 
ATOM     11  C   UNL     1       8.410  -0.657  -2.082  1.00  0.00     0.165 A 
ATOM     12  O   UNL     1       7.999  -2.817  -1.989  1.00  0.00    -0.454 OA
ATOM     13  O   UNL     1       8.874  -1.256  -3.261  1.00  0.00    -0.454 OA
ATOM     14  C   UNL     1       9.028  -2.625  -2.948  1.00  0.00     0.468 C 
ENDBRANCH   5   6
ENDBRANCH   1   5
TORSDOF 3
ENDMDL
MODEL 5
REMARK VINA RESULT:      -6.7      1.996      2.533
REMARK SMILES CC(=O)CCc1ccc2c(c1)OCO2
REMARK SMILES IDX 4 1 2 2 1 3 3 4 5 5 6 6 7 7 11 8 8 9 10 10 9 11 12 12 14 13
REMARK SMILES IDX 13 14
REMARK H PARENT
REMARK Flexibility Score: inf
ROOT
ATOM      1  C   UNL     1       5.655   0.242   1.839  1.00  0.00     0.080 C 
ENDROOT
BRANCH   1   2
ATOM      2  C   UNL     1       4.761   1.344   1.439  1.00  0.00     0.130 C 
ATOM      3  C   UNL     1       5.183   2.103   0.192  1.00  0.00     0.087 C 
ATOM      4  O   UNL     1       3.753   1.705   1.976  1.00  0.00    -0.300 OA
ENDBRANCH   1   2
BRANCH   1   5
ATOM      5  C   UNL     1       7.031   0.292   1.302  1.00  0.00     0.043 C 
BRANCH   5   6
ATOM      6  C   UNL     1       7.401  -0.721   0.309  1.00  0.00    -0.044 A 
ATOM      7  C   UNL     1       7.308  -0.485  -1.064  1.00  0.00     0.008 A 
ATOM      8  C   UNL     1       7.884  -1.942   0.718  1.00  0.00     0.054 A 
ATOM      9  C   UNL     1       7.696  -1.469  -1.936  1.00  0.00     0.051 A 
ATOM     10  C   UNL     1       8.275  -2.931  -0.198  1.00  0.00     0.166 A 
ATOM     11  C   UNL     1       8.183  -2.699  -1.552  1.00  0.00     0.165 A 
ATOM     12  O   UNL     1       8.785  -4.218  -0.079  1.00  0.00    -0.454 OA
ATOM     13  O   UNL     1       8.633  -3.836  -2.235  1.00  0.00    -0.454 OA
ATOM     14  C   UNL     1       9.426  -4.541  -1.304  1.00  0.00     0.468 C 
ENDBRANCH   5   6
ENDBRANCH   1   5
TORSDOF 3
ENDMDL
