@<TRIPOS>MOLECULE
/home/cewinharhar/GITHUB/reincatalyze/data/processed/docking_pred/2023-May-31-1727_sub9_nm5_bs15_s42_ex16_mel10_mts10000_k50_ec075_g099_lra3e-4_lrc3e-3/12a677e1fc1355f2f00deb0d8e94f00822fba38d_ligand_9.pdbqt
 14 15 0 0 0
SMALL
GASTEIGER

@<TRIPOS>ATOM
      1  C          6.2440    1.2200    0.8540 C.3     1  UNL1        0.0800
      2  C          5.5680    0.4430    1.9080 C.2     1  UNL1        0.1300
      3  C          6.3420   -0.7540    2.4310 C.3     1  UNL1        0.0870
      4  O          4.4910    0.6450    2.3950 O.2     1  UNL1       -0.3000
      5  C          5.8790    0.8850   -0.5380 C.3     1  UNL1        0.0430
      6  C          6.8450    0.1040   -1.3150 C.2     1  UNL1       -0.0440
      7  C          7.7440    0.7020   -2.2010 C.2     1  UNL1        0.0080
      8  C          6.9080   -1.2620   -1.1640 C.2     1  UNL1        0.0540
      9  C          8.6390   -0.0870   -2.8750 C.2     1  UNL1        0.0510
     10  C          7.8360   -2.0450   -1.8670 C.2     1  UNL1        0.1660
     11  C          8.7220   -1.4560   -2.7420 C.2     1  UNL1        0.1650
     12  O          8.1220   -3.4040   -1.9150 O.2     1  UNL1       -0.4540
     13  O          9.5290   -2.4520   -3.3060 O.2     1  UNL1       -0.4540
     14  C          9.4410   -3.5490   -2.4200 C.3     1  UNL1        0.4680
@<TRIPOS>BOND
     1    13    11    1
     2    13    14    1
     3     9    11    2
     4     9     7    1
     5    11    10    1
     6    14    12    1
     7     7     6    2
     8    12    10    1
     9    10     8    2
    10     6     8    1
    11     6     5    1
    12     5     1    1
    13     1     2    1
    14     2     4    2
    15     2     3    1
