MODEL 1
REMARK VINA RESULT:      -8.0      0.000      0.000
REMARK SMILES CC(=O)CCc1ccc2c(c1)OCO2
REMARK SMILES IDX 4 1 2 2 1 3 3 4 5 5 6 6 7 7 11 8 8 9 10 10 9 11 12 12 14 13
REMARK SMILES IDX 13 14
REMARK H PARENT
REMARK Flexibility Score: inf
ROOT
ATOM      1  C   UNL     1       5.858   1.607   1.087  1.00  0.00     0.080 C 
ENDROOT
BRANCH   1   2
ATOM      2  C   UNL     1       5.293   0.560   1.958  1.00  0.00     0.130 C 
ATOM      3  C   UNL     1       6.200  -0.632   2.215  1.00  0.00     0.087 C 
ATOM      4  O   UNL     1       4.215   0.541   2.482  1.00  0.00    -0.300 OA
ENDBRANCH   1   2
BRANCH   1   5
ATOM      5  C   UNL     1       5.736   1.378  -0.368  1.00  0.00     0.043 C 
BRANCH   5   6
ATOM      6  C   UNL     1       6.809   0.622  -1.020  1.00  0.00    -0.044 A 
ATOM      7  C   UNL     1       8.155   0.961  -0.869  1.00  0.00     0.008 A 
ATOM      8  C   UNL     1       6.508  -0.478  -1.788  1.00  0.00     0.054 A 
ATOM      9  C   UNL     1       9.109   0.193  -1.485  1.00  0.00     0.051 A 
ATOM     10  C   UNL     1       7.505  -1.247  -2.408  1.00  0.00     0.166 A 
ATOM     11  C   UNL     1       8.833  -0.912  -2.260  1.00  0.00     0.165 A 
ATOM     12  O   UNL     1       7.498  -2.376  -3.218  1.00  0.00    -0.454 OA
ATOM     13  O   UNL     1       9.612  -1.833  -2.974  1.00  0.00    -0.454 OA
ATOM     14  C   UNL     1       8.787  -2.967  -3.142  1.00  0.00     0.468 C 
ENDBRANCH   5   6
ENDBRANCH   1   5
TORSDOF 3
ENDMDL
MODEL 2
REMARK VINA RESULT:      -7.4      1.575      5.601
REMARK SMILES CC(=O)CCc1ccc2c(c1)OCO2
REMARK SMILES IDX 4 1 2 2 1 3 3 4 5 5 6 6 7 7 11 8 8 9 10 10 9 11 12 12 14 13
REMARK SMILES IDX 13 14
REMARK H PARENT
REMARK Flexibility Score: inf
ROOT
ATOM      1  C   UNL     1       8.206  -2.483  -3.659  1.00  0.00     0.080 C 
ENDROOT
BRANCH   1   2
ATOM      2  C   UNL     1       9.280  -3.466  -3.429  1.00  0.00     0.130 C 
ATOM      3  C   UNL     1       8.820  -4.905  -3.267  1.00  0.00     0.087 C 
ATOM      4  O   UNL     1      10.459  -3.263  -3.356  1.00  0.00    -0.300 OA
ENDBRANCH   1   2
BRANCH   1   5
ATOM      5  C   UNL     1       8.411  -1.143  -3.069  1.00  0.00     0.043 C 
BRANCH   5   6
ATOM      6  C   UNL     1       7.650  -0.820  -1.859  1.00  0.00    -0.044 A 
ATOM      7  C   UNL     1       7.737  -1.589  -0.697  1.00  0.00     0.008 A 
ATOM      8  C   UNL     1       6.836   0.289  -1.833  1.00  0.00     0.054 A 
ATOM      9  C   UNL     1       7.017  -1.212   0.407  1.00  0.00     0.051 A 
ATOM     10  C   UNL     1       6.110   0.652  -0.689  1.00  0.00     0.166 A 
ATOM     11  C   UNL     1       6.196  -0.108   0.457  1.00  0.00     0.165 A 
ATOM     12  O   UNL     1       5.235   1.686  -0.380  1.00  0.00    -0.454 OA
ATOM     13  O   UNL     1       5.381   0.468   1.441  1.00  0.00    -0.454 OA
ATOM     14  C   UNL     1       5.195   1.808   1.034  1.00  0.00     0.468 C 
ENDBRANCH   5   6
ENDBRANCH   1   5
TORSDOF 3
ENDMDL
MODEL 3
REMARK VINA RESULT:      -7.4      1.203      1.646
REMARK SMILES CC(=O)CCc1ccc2c(c1)OCO2
REMARK SMILES IDX 4 1 2 2 1 3 3 4 5 5 6 6 7 7 11 8 8 9 10 10 9 11 12 12 14 13
REMARK SMILES IDX 13 14
REMARK H PARENT
REMARK Flexibility Score: inf
ROOT
ATOM      1  C   UNL     1       6.179  -0.398   1.592  1.00  0.00     0.080 C 
ENDROOT
BRANCH   1   2
ATOM      2  C   UNL     1       5.114   0.612   1.731  1.00  0.00     0.130 C 
ATOM      3  C   UNL     1       5.179   1.766   0.744  1.00  0.00     0.087 C 
ATOM      4  O   UNL     1       4.214   0.628   2.522  1.00  0.00    -0.300 OA
ENDBRANCH   1   2
BRANCH   1   5
ATOM      5  C   UNL     1       7.435   0.063   0.965  1.00  0.00     0.043 C 
BRANCH   5   6
ATOM      6  C   UNL     1       7.721  -0.412  -0.392  1.00  0.00    -0.044 A 
ATOM      7  C   UNL     1       7.924   0.464  -1.459  1.00  0.00     0.008 A 
ATOM      8  C   UNL     1       7.826  -1.761  -0.641  1.00  0.00     0.054 A 
ATOM      9  C   UNL     1       8.215  -0.050  -2.697  1.00  0.00     0.051 A 
ATOM     10  C   UNL     1       8.125  -2.259  -1.918  1.00  0.00     0.166 A 
ATOM     11  C   UNL     1       8.324  -1.395  -2.972  1.00  0.00     0.165 A 
ATOM     12  O   UNL     1       8.289  -3.532  -2.451  1.00  0.00    -0.454 OA
ATOM     13  O   UNL     1       8.605  -2.144  -4.122  1.00  0.00    -0.454 OA
ATOM     14  C   UNL     1       9.037  -3.403  -3.651  1.00  0.00     0.468 C 
ENDBRANCH   5   6
ENDBRANCH   1   5
TORSDOF 3
ENDMDL
MODEL 4
REMARK VINA RESULT:      -7.3      1.209      1.360
REMARK SMILES CC(=O)CCc1ccc2c(c1)OCO2
REMARK SMILES IDX 4 1 2 2 1 3 3 4 5 5 6 6 7 7 11 8 8 9 10 10 9 11 12 12 14 13
REMARK SMILES IDX 13 14
REMARK H PARENT
REMARK Flexibility Score: inf
ROOT
ATOM      1  C   UNL     1       5.877   0.831   0.503  1.00  0.00     0.080 C 
ENDROOT
BRANCH   1   2
ATOM      2  C   UNL     1       5.390   0.330   1.802  1.00  0.00     0.130 C 
ATOM      3  C   UNL     1       6.235  -0.763   2.434  1.00  0.00     0.087 C 
ATOM      4  O   UNL     1       4.418   0.681   2.408  1.00  0.00    -0.300 OA
ENDBRANCH   1   2
BRANCH   1   5
ATOM      5  C   UNL     1       7.317   0.641   0.230  1.00  0.00     0.043 C 
BRANCH   5   6
ATOM      6  C   UNL     1       7.677  -0.137  -0.959  1.00  0.00    -0.044 A 
ATOM      7  C   UNL     1       7.942   0.466  -2.190  1.00  0.00     0.008 A 
ATOM      8  C   UNL     1       7.790  -1.505  -0.878  1.00  0.00     0.054 A 
ATOM      9  C   UNL     1       8.300  -0.321  -3.254  1.00  0.00     0.051 A 
ATOM     10  C   UNL     1       8.159  -2.287  -1.984  1.00  0.00     0.166 A 
ATOM     11  C   UNL     1       8.420  -1.692  -3.199  1.00  0.00     0.165 A 
ATOM     12  O   UNL     1       8.348  -3.647  -2.193  1.00  0.00    -0.454 OA
ATOM     13  O   UNL     1       8.762  -2.687  -4.123  1.00  0.00    -0.454 OA
ATOM     14  C   UNL     1       9.162  -3.797  -3.346  1.00  0.00     0.468 C 
ENDBRANCH   5   6
ENDBRANCH   1   5
TORSDOF 3
ENDMDL
MODEL 5
REMARK VINA RESULT:      -7.1      1.573      5.503
REMARK SMILES CC(=O)CCc1ccc2c(c1)OCO2
REMARK SMILES IDX 4 1 2 2 1 3 3 4 5 5 6 6 7 7 11 8 8 9 10 10 9 11 12 12 14 13
REMARK SMILES IDX 13 14
REMARK H PARENT
REMARK Flexibility Score: inf
ROOT
ATOM      1  C   UNL     1       8.209  -2.343  -3.488  1.00  0.00     0.080 C 
ENDROOT
BRANCH   1   2
ATOM      2  C   UNL     1       9.259  -3.371  -3.372  1.00  0.00     0.130 C 
ATOM      3  C   UNL     1       8.760  -4.804  -3.299  1.00  0.00     0.087 C 
ATOM      4  O   UNL     1      10.446  -3.209  -3.330  1.00  0.00    -0.300 OA
ENDBRANCH   1   2
BRANCH   1   5
ATOM      5  C   UNL     1       8.548  -1.004  -2.962  1.00  0.00     0.043 C 
BRANCH   5   6
ATOM      6  C   UNL     1       7.768  -0.515  -1.821  1.00  0.00    -0.044 A 
ATOM      7  C   UNL     1       6.757   0.436  -1.964  1.00  0.00     0.008 A 
ATOM      8  C   UNL     1       8.003  -1.016  -0.562  1.00  0.00     0.054 A 
ATOM      9  C   UNL     1       6.049   0.828  -0.857  1.00  0.00     0.051 A 
ATOM     10  C   UNL     1       7.262  -0.597   0.554  1.00  0.00     0.166 A 
ATOM     11  C   UNL     1       6.265   0.342   0.413  1.00  0.00     0.165 A 
ATOM     12  O   UNL     1       7.277  -0.919   1.906  1.00  0.00    -0.454 OA
ATOM     13  O   UNL     1       5.689   0.580   1.668  1.00  0.00    -0.454 OA
ATOM     14  C   UNL     1       6.017  -0.551   2.449  1.00  0.00     0.468 C 
ENDBRANCH   5   6
ENDBRANCH   1   5
TORSDOF 3
ENDMDL
