@<TRIPOS>MOLECULE
/home/cewinharhar/GITHUB/reincatalyze/data/processed/docking_pred/2023-May-31-1727_sub9_nm5_bs15_s42_ex16_mel10_mts10000_k50_ec075_g099_lra3e-4_lrc3e-3/13e8c6f9c16a4fbf8ad14846e02839591438c51f_ligand_9.pdbqt
 14 15 0 0 0
SMALL
GASTEIGER

@<TRIPOS>ATOM
      1  C          6.7410    0.9250    1.4390 C.3     1  UNL1        0.0800
      2  C          5.2900    1.1880    1.4480 C.2     1  UNL1        0.1300
      3  C          4.7970    2.1500    0.3810 C.3     1  UNL1        0.0870
      4  O          4.4660    0.7350    2.1910 O.2     1  UNL1       -0.3000
      5  C          7.4100    1.0110    0.1240 C.3     1  UNL1        0.0430
      6  C          7.6730   -0.2490   -0.5780 C.2     1  UNL1       -0.0440
      7  C          7.6930   -0.3340   -1.9710 C.2     1  UNL1        0.0080
      8  C          7.9390   -1.3930    0.1370 C.2     1  UNL1        0.0540
      9  C          7.9720   -1.5390   -2.5610 C.2     1  UNL1        0.0510
     10  C          8.2230   -2.6140   -0.4930 C.2     1  UNL1        0.1660
     11  C          8.2410   -2.6980   -1.8680 C.2     1  UNL1        0.1650
     12  O          8.5200   -3.8940   -0.0420 O.2     1  UNL1       -0.4540
     13  O          8.5470   -4.0150   -2.2340 O.2     1  UNL1       -0.4540
     14  C          9.1700   -4.5830   -1.1010 C.3     1  UNL1        0.4680
@<TRIPOS>BOND
     1     9     7    1
     2     9    11    2
     3    13    11    1
     4    13    14    1
     5     7     6    2
     6    11    10    1
     7    14    12    1
     8     6     5    1
     9     6     8    1
    10    10    12    1
    11    10     8    2
    12     5     1    1
    13     3     2    1
    14     1     2    1
    15     2     4    2
