@<TRIPOS>MOLECULE
/home/cewinharhar/GITHUB/reincatalyze/data/processed/docking_pred/2023-May-31-1727_sub9_nm5_bs15_s42_ex16_mel10_mts10000_k50_ec075_g099_lra3e-4_lrc3e-3/141a4713aaf07cdd351da17b8461b13d6c9c65f9_ligand_9.pdbqt
 14 15 0 0 0
SMALL
GASTEIGER

@<TRIPOS>ATOM
      1  C          5.7740    0.1540    1.9670 C.3     1  UNL1        0.0800
      2  C          4.7380    1.1620    1.6760 C.2     1  UNL1        0.1300
      3  C          5.0350    2.0790    0.5010 C.3     1  UNL1        0.0870
      4  O          3.7010    1.3380    2.2500 O.2     1  UNL1       -0.3000
      5  C          7.0660    0.3280    1.2710 C.3     1  UNL1        0.0430
      6  C          7.4330   -0.6820    0.2750 C.2     1  UNL1       -0.0440
      7  C          7.3900   -0.4250   -1.0960 C.2     1  UNL1        0.0080
      8  C          7.8630   -1.9240    0.6810 C.2     1  UNL1        0.0540
      9  C          7.7720   -1.4090   -1.9710 C.2     1  UNL1        0.0510
     10  C          8.2500   -2.9130   -0.2370 C.2     1  UNL1        0.1660
     11  C          8.2060   -2.6590   -1.5900 C.2     1  UNL1        0.1650
     12  O          8.7130   -4.2180   -0.1220 O.2     1  UNL1       -0.4540
     13  O          8.6400   -3.8010   -2.2760 O.2     1  UNL1       -0.4540
     14  C          9.3810   -4.5460   -1.3320 C.3     1  UNL1        0.4680
@<TRIPOS>BOND
     1    13    11    1
     2    13    14    1
     3     9    11    2
     4     9     7    1
     5    11    10    1
     6    14    12    1
     7     7     6    2
     8    10    12    1
     9    10     8    2
    10     6     8    1
    11     6     5    1
    12     3     2    1
    13     5     1    1
    14     2     1    1
    15     2     4    2
