@<TRIPOS>MOLECULE
/home/cewinharhar/GITHUB/reincatalyze/data/processed/docking_pred/2023-May-31-1727_sub9_nm5_bs15_s42_ex16_mel10_mts10000_k50_ec075_g099_lra3e-4_lrc3e-3/141a4713aaf07cdd351da17b8461b13d6c9c65f9_ligand_9.pdbqt
 14 15 0 0 0
SMALL
GASTEIGER

@<TRIPOS>ATOM
      1  C          5.5610    1.8880    1.2210 C.3     1  UNL1        0.0800
      2  C          5.0110    0.7580    1.9920 C.2     1  UNL1        0.1300
      3  C          5.9390   -0.4350    2.1470 C.3     1  UNL1        0.0870
      4  O          3.9310    0.6730    2.5030 O.2     1  UNL1       -0.3000
      5  C          5.5470    1.7420   -0.2490 C.3     1  UNL1        0.0430
      6  C          6.6470    0.9890   -0.8580 C.2     1  UNL1       -0.0440
      7  C          7.9830    1.3580   -0.6930 C.2     1  UNL1        0.0080
      8  C          6.3810   -0.1400   -1.5990 C.2     1  UNL1        0.0540
      9  C          8.9620    0.5900   -1.2690 C.2     1  UNL1        0.0510
     10  C          7.4030   -0.9070   -2.1770 C.2     1  UNL1        0.1660
     11  C          8.7220   -0.5420   -2.0150 C.2     1  UNL1        0.1650
     12  O          7.4330   -2.0590   -2.9530 O.2     1  UNL1       -0.4540
     13  O          9.5310   -1.4680   -2.6860 O.2     1  UNL1       -0.4540
     14  C          8.7320   -2.6230   -2.8360 C.3     1  UNL1        0.4680
@<TRIPOS>BOND
     1    12    14    1
     2    12    10    1
     3    14    13    1
     4    13    11    1
     5    10    11    2
     6    10     8    1
     7    11     9    1
     8     8     6    2
     9     9     7    2
    10     6     7    1
    11     6     5    1
    12     5     1    1
    13     1     2    1
    14     2     3    1
    15     2     4    2
