@<TRIPOS>MOLECULE
/home/cewinharhar/GITHUB/reincatalyze/data/processed/docking_pred/2023-May-31-1727_sub9_nm5_bs15_s42_ex16_mel10_mts10000_k50_ec075_g099_lra3e-4_lrc3e-3/141a4713aaf07cdd351da17b8461b13d6c9c65f9_ligand_9.pdbqt
 14 15 0 0 0
SMALL
GASTEIGER

@<TRIPOS>ATOM
      1  C          5.7830    1.3810   -0.2190 C.3     1  UNL1        0.0800
      2  C          5.0820    1.3440    1.0770 C.2     1  UNL1        0.1300
      3  C          5.3820    0.1340    1.9450 C.3     1  UNL1        0.0870
      4  O          4.3140    2.1500    1.5200 O.2     1  UNL1       -0.3000
      5  C          7.2100    0.9940   -0.1990 C.3     1  UNL1        0.0430
      6  C          7.5670   -0.2840   -0.8210 C.2     1  UNL1       -0.0440
      7  C          7.6780   -0.4330   -2.2050 C.2     1  UNL1        0.0080
      8  C          7.8330   -1.3820   -0.0360 C.2     1  UNL1        0.0540
      9  C          8.0420   -1.6510   -2.7170 C.2     1  UNL1        0.0510
     10  C          8.2050   -2.6170   -0.5870 C.2     1  UNL1        0.1660
     11  C          8.3130   -2.7640   -1.9520 C.2     1  UNL1        0.1650
     12  O          8.5240   -3.8610   -0.0560 O.2     1  UNL1       -0.4540
     13  O          8.6940   -4.0820   -2.2340 O.2     1  UNL1       -0.4540
     14  C          9.2670   -4.5700   -1.0380 C.3     1  UNL1        0.4680
@<TRIPOS>BOND
     1     9     7    1
     2     9    11    2
     3    13    11    1
     4    13    14    1
     5     7     6    2
     6    11    10    1
     7    14    12    1
     8     6     5    1
     9     6     8    1
    10    10    12    1
    11    10     8    2
    12     1     5    1
    13     1     2    1
    14     2     4    2
    15     2     3    1
