@<TRIPOS>MOLECULE
/home/cewinharhar/GITHUB/reincatalyze/data/processed/docking_pred/2023-May-31-1727_sub9_nm5_bs15_s42_ex16_mel10_mts10000_k50_ec075_g099_lra3e-4_lrc3e-3/141a4713aaf07cdd351da17b8461b13d6c9c65f9_ligand_9.pdbqt
 14 15 0 0 0
SMALL
GASTEIGER

@<TRIPOS>ATOM
      1  C          5.3830   -0.0400    1.9580 C.3     1  UNL1        0.0800
      2  C          4.4290    1.0790    1.8490 C.2     1  UNL1        0.1300
      3  C          4.7600    2.1150    0.7880 C.3     1  UNL1        0.0870
      4  O          3.4350    1.2630    2.4930 O.2     1  UNL1       -0.3000
      5  C          6.8000    0.2860    1.6960 C.3     1  UNL1        0.0430
      6  C          7.3360   -0.0640    0.3780 C.2     1  UNL1       -0.0440
      7  C          7.7620    0.9050   -0.5330 C.2     1  UNL1        0.0080
      8  C          7.4600   -1.3840    0.0120 C.2     1  UNL1        0.0540
      9  C          8.2780    0.5050   -1.7380 C.2     1  UNL1        0.0510
     10  C          7.9930   -1.7650   -1.2290 C.2     1  UNL1        0.1660
     11  C          8.4120   -0.8090   -2.1270 C.2     1  UNL1        0.1650
     12  O          8.2310   -2.9840   -1.8510 O.2     1  UNL1       -0.4540
     13  O          8.8960   -1.4510   -3.2740 O.2     1  UNL1       -0.4540
     14  C          9.2020   -2.7680   -2.8640 C.3     1  UNL1        0.4680
@<TRIPOS>BOND
     1    13    14    1
     2    13    11    1
     3    14    12    1
     4    11     9    2
     5    11    10    1
     6    12    10    1
     7     9     7    1
     8    10     8    2
     9     7     6    2
    10     8     6    1
    11     6     5    1
    12     3     2    1
    13     5     1    1
    14     2     1    1
    15     2     4    2
