@<TRIPOS>MOLECULE
/home/cewinharhar/GITHUB/reincatalyze/data/processed/docking_pred/2023-May-31-1727_sub9_nm5_bs15_s42_ex16_mel10_mts10000_k50_ec075_g099_lra3e-4_lrc3e-3/141a4713aaf07cdd351da17b8461b13d6c9c65f9_ligand_9.pdbqt
 14 15 0 0 0
SMALL
GASTEIGER

@<TRIPOS>ATOM
      1  C          6.2080    1.1910    0.9100 C.3     1  UNL1        0.0800
      2  C          5.5480    0.3550    1.9290 C.2     1  UNL1        0.1300
      3  C          6.3380   -0.8610    2.3840 C.3     1  UNL1        0.0870
      4  O          4.4750    0.5230    2.4350 O.2     1  UNL1       -0.3000
      5  C          5.8740    0.8860   -0.4970 C.3     1  UNL1        0.0430
      6  C          6.8590    0.1230   -1.2700 C.2     1  UNL1       -0.0440
      7  C          7.8210    0.7440   -2.0690 C.2     1  UNL1        0.0080
      8  C          6.8730   -1.2500   -1.2010 C.2     1  UNL1        0.0540
      9  C          8.7280   -0.0310   -2.7430 C.2     1  UNL1        0.0510
     10  C          7.8150   -2.0200   -1.9020 C.2     1  UNL1        0.1660
     11  C          8.7630   -1.4070   -2.6900 C.2     1  UNL1        0.1650
     12  O          8.0630   -3.3820   -2.0190 O.2     1  UNL1       -0.4540
     13  O          9.5700   -2.3930   -3.2720 O.2     1  UNL1       -0.4540
     14  C          9.4030   -3.5380   -2.4620 C.3     1  UNL1        0.4680
@<TRIPOS>BOND
     1    13    11    1
     2    13    14    1
     3     9    11    2
     4     9     7    1
     5    11    10    1
     6    14    12    1
     7     7     6    2
     8    12    10    1
     9    10     8    2
    10     6     8    1
    11     6     5    1
    12     5     1    1
    13     1     2    1
    14     2     3    1
    15     2     4    2
