@<TRIPOS>MOLECULE
/home/cewinharhar/GITHUB/reincatalyze/data/processed/docking_pred/2023-May-31-1727_sub9_nm5_bs15_s42_ex16_mel10_mts10000_k50_ec075_g099_lra3e-4_lrc3e-3/141be626e2cd6ba8f6b8a46d6dbef4dd02701a2b_ligand_9.pdbqt
 14 15 0 0 0
SMALL
GASTEIGER

@<TRIPOS>ATOM
      1  C          5.6440    1.2570   -0.3000 C.3     1  UNL1        0.0800
      2  C          5.1000    1.3050    1.0700 C.2     1  UNL1        0.1300
      3  C          5.5480    0.1790    1.9870 C.3     1  UNL1        0.0870
      4  O          4.3550    2.1190    1.5380 O.2     1  UNL1       -0.3000
      5  C          7.0970    1.0160   -0.4150 C.3     1  UNL1        0.0430
      6  C          7.5210   -0.2740   -0.9670 C.2     1  UNL1       -0.0440
      7  C          7.7260   -0.4670   -2.3340 C.2     1  UNL1        0.0080
      8  C          7.7580   -1.3380   -0.1280 C.2     1  UNL1        0.0540
      9  C          8.1480   -1.6930   -2.7780 C.2     1  UNL1        0.0510
     10  C          8.1910   -2.5830   -0.6100 C.2     1  UNL1        0.1660
     11  C          8.3920   -2.7730   -1.9590 C.2     1  UNL1        0.1650
     12  O          8.5000   -3.8000   -0.0160 O.2     1  UNL1       -0.4540
     13  O          8.8180   -4.0910   -2.1690 O.2     1  UNL1       -0.4540
     14  C          9.3200   -4.5240   -0.9220 C.3     1  UNL1        0.4680
@<TRIPOS>BOND
     1     9     7    1
     2     9    11    2
     3     7     6    2
     4    13    11    1
     5    13    14    1
     6    11    10    1
     7     6     5    1
     8     6     8    1
     9    14    12    1
    10    10     8    2
    11    10    12    1
    12     5     1    1
    13     1     2    1
    14     2     4    2
    15     2     3    1
