@<TRIPOS>MOLECULE
/home/cewinharhar/GITHUB/reincatalyze/data/processed/docking_pred/2023-May-31-1727_sub9_nm5_bs15_s42_ex16_mel10_mts10000_k50_ec075_g099_lra3e-4_lrc3e-3/1444e75be78da7e2931ed2b5f85ad252461f0798_ligand_9.pdbqt
 14 15 0 0 0
SMALL
GASTEIGER

@<TRIPOS>ATOM
      1  C          5.5910    1.8710    1.2560 C.3     1  UNL1        0.0800
      2  C          5.0000    0.7410    1.9940 C.2     1  UNL1        0.1300
      3  C          5.9000   -0.4730    2.1560 C.3     1  UNL1        0.0870
      4  O          3.9050    0.6690    2.4760 O.2     1  UNL1       -0.3000
      5  C          5.5860    1.7610   -0.2180 C.3     1  UNL1        0.0430
      6  C          6.6710    0.9960   -0.8370 C.2     1  UNL1       -0.0440
      7  C          8.0120    1.3610   -0.6990 C.2     1  UNL1        0.0080
      8  C          6.3880   -0.1400   -1.5600 C.2     1  UNL1        0.0540
      9  C          8.9780    0.5830   -1.2830 C.2     1  UNL1        0.0510
     10  C          7.3980   -0.9180   -2.1470 C.2     1  UNL1        0.1660
     11  C          8.7200   -0.5570   -2.0120 C.2     1  UNL1        0.1650
     12  O          7.4090   -2.0790   -2.9100 O.2     1  UNL1       -0.4540
     13  O          9.5140   -1.4940   -2.6860 O.2     1  UNL1       -0.4540
     14  C          8.7070   -2.6470   -2.8090 C.3     1  UNL1        0.4680
@<TRIPOS>BOND
     1    12    14    1
     2    12    10    1
     3    14    13    1
     4    13    11    1
     5    10    11    2
     6    10     8    1
     7    11     9    1
     8     8     6    2
     9     9     7    2
    10     6     7    1
    11     6     5    1
    12     5     1    1
    13     1     2    1
    14     2     3    1
    15     2     4    2
