@<TRIPOS>MOLECULE
/home/cewinharhar/GITHUB/reincatalyze/data/processed/docking_pred/2023-May-31-1727_sub9_nm5_bs15_s42_ex16_mel10_mts10000_k50_ec075_g099_lra3e-4_lrc3e-3/16519f8051380dc2329c6f51dcb24a8f5dfeda31_ligand_9.pdbqt
 14 15 0 0 0
SMALL
GASTEIGER

@<TRIPOS>ATOM
      1  C          6.8170    1.3570    1.0110 C.3     1  UNL1        0.0800
      2  C          5.3920    1.7060    0.8650 C.2     1  UNL1        0.1300
      3  C          4.9700    2.1480   -0.5250 C.3     1  UNL1        0.0870
      4  O          4.5380    1.6800    1.7060 O.2     1  UNL1       -0.3000
      5  C          7.5970    1.2670   -0.2410 C.3     1  UNL1        0.0430
      6  C          7.7950   -0.0680   -0.8120 C.2     1  UNL1       -0.0440
      7  C          7.7960   -0.2950   -2.1900 C.2     1  UNL1        0.0080
      8  C          8.0170   -1.1450    0.0140 C.2     1  UNL1        0.0540
      9  C          8.0140   -1.5650   -2.6560 C.2     1  UNL1        0.0510
     10  C          8.2380   -2.4350   -0.4900 C.2     1  UNL1        0.1660
     11  C          8.2380   -2.6590   -1.8500 C.2     1  UNL1        0.1650
     12  O          8.4820   -3.6750    0.0870 O.2     1  UNL1       -0.4540
     13  O          8.4810   -4.0190   -2.0820 O.2     1  UNL1       -0.4540
     14  C          9.0890   -4.4970   -0.9000 C.3     1  UNL1        0.4680
@<TRIPOS>BOND
     1     9     7    1
     2     9    11    2
     3     7     6    2
     4    13    11    1
     5    13    14    1
     6    11    10    1
     7    14    12    1
     8     6     5    1
     9     6     8    1
    10     3     2    1
    11    10     8    2
    12    10    12    1
    13     5     1    1
    14     2     1    1
    15     2     4    2
