@<TRIPOS>MOLECULE
/home/cewinharhar/GITHUB/reincatalyze/data/processed/docking_pred/2023-May-31-1727_sub9_nm5_bs15_s42_ex16_mel10_mts10000_k50_ec075_g099_lra3e-4_lrc3e-3/16519f8051380dc2329c6f51dcb24a8f5dfeda31_ligand_9.pdbqt
 14 15 0 0 0
SMALL
GASTEIGER

@<TRIPOS>ATOM
      1  C          5.5560    1.9250    1.2230 C.3     1  UNL1        0.0800
      2  C          4.9890    0.7960    1.9830 C.2     1  UNL1        0.1300
      3  C          5.9040   -0.4070    2.1390 C.3     1  UNL1        0.0870
      4  O          3.9040    0.7180    2.4860 O.2     1  UNL1       -0.3000
      5  C          5.5500    1.7880   -0.2480 C.3     1  UNL1        0.0430
      6  C          6.6470    1.0280   -0.8550 C.2     1  UNL1       -0.0440
      7  C          7.9850    1.3960   -0.6930 C.2     1  UNL1        0.0080
      8  C          6.3790   -0.1030   -1.5890 C.2     1  UNL1        0.0540
      9  C          8.9620    0.6230   -1.2670 C.2     1  UNL1        0.0510
     10  C          7.3990   -0.8760   -2.1640 C.2     1  UNL1        0.1660
     11  C          8.7180   -0.5130   -2.0060 C.2     1  UNL1        0.1650
     12  O          7.4250   -2.0330   -2.9330 O.2     1  UNL1       -0.4540
     13  O          9.5240   -1.4440   -2.6730 O.2     1  UNL1       -0.4540
     14  C          8.7230   -2.5980   -2.8150 C.3     1  UNL1        0.4680
@<TRIPOS>BOND
     1    12    14    1
     2    12    10    1
     3    14    13    1
     4    13    11    1
     5    10    11    2
     6    10     8    1
     7    11     9    1
     8     8     6    2
     9     9     7    2
    10     6     7    1
    11     6     5    1
    12     5     1    1
    13     1     2    1
    14     2     3    1
    15     2     4    2
