@<TRIPOS>MOLECULE
/home/cewinharhar/GITHUB/reincatalyze/data/processed/docking_pred/2023-May-31-1727_sub9_nm5_bs15_s42_ex16_mel10_mts10000_k50_ec075_g099_lra3e-4_lrc3e-3/16519f8051380dc2329c6f51dcb24a8f5dfeda31_ligand_9.pdbqt
 14 15 0 0 0
SMALL
GASTEIGER

@<TRIPOS>ATOM
      1  C          6.2280    1.2280    0.9020 C.3     1  UNL1        0.0800
      2  C          5.5480    0.4290    1.9380 C.2     1  UNL1        0.1300
      3  C          6.3140   -0.7900    2.4240 C.3     1  UNL1        0.0870
      4  O          4.4760    0.6270    2.4340 O.2     1  UNL1       -0.3000
      5  C          5.8740    0.9160   -0.4990 C.3     1  UNL1        0.0430
      6  C          6.8430    0.1410   -1.2780 C.2     1  UNL1       -0.0440
      7  C          7.7690    0.7480   -2.1290 C.2     1  UNL1        0.0080
      8  C          6.8810   -1.2290   -1.1640 C.2     1  UNL1        0.0540
      9  C          8.6650   -0.0360   -2.8070 C.2     1  UNL1        0.0510
     10  C          7.8100   -2.0080   -1.8710 C.2     1  UNL1        0.1660
     11  C          8.7220   -1.4090   -2.7110 C.2     1  UNL1        0.1650
     12  O          8.0750   -3.3700   -1.9510 O.2     1  UNL1       -0.4540
     13  O          9.5240   -2.4030   -3.2860 O.2     1  UNL1       -0.4540
     14  C          9.4010   -3.5220   -2.4330 C.3     1  UNL1        0.4680
@<TRIPOS>BOND
     1    13    11    1
     2    13    14    1
     3     9    11    2
     4     9     7    1
     5    11    10    1
     6    14    12    1
     7     7     6    2
     8    12    10    1
     9    10     8    2
    10     6     8    1
    11     6     5    1
    12     5     1    1
    13     1     2    1
    14     2     3    1
    15     2     4    2
