MODEL 1
REMARK VINA RESULT:      -7.6      0.000      0.000
REMARK SMILES CC(=O)CCc1ccc2c(c1)OCO2
REMARK SMILES IDX 4 1 2 2 1 3 3 4 5 5 6 6 7 7 11 8 8 9 10 10 9 11 12 12 14 13
REMARK SMILES IDX 13 14
REMARK H PARENT
REMARK Flexibility Score: inf
ROOT
ATOM      1  C   UNL     1       5.556   1.925   1.223  1.00  0.00     0.080 C 
ENDROOT
BRANCH   1   2
ATOM      2  C   UNL     1       4.989   0.796   1.983  1.00  0.00     0.130 C 
ATOM      3  C   UNL     1       5.904  -0.407   2.139  1.00  0.00     0.087 C 
ATOM      4  O   UNL     1       3.904   0.718   2.486  1.00  0.00    -0.300 OA
ENDBRANCH   1   2
BRANCH   1   5
ATOM      5  C   UNL     1       5.550   1.788  -0.248  1.00  0.00     0.043 C 
BRANCH   5   6
ATOM      6  C   UNL     1       6.647   1.028  -0.855  1.00  0.00    -0.044 A 
ATOM      7  C   UNL     1       7.985   1.396  -0.693  1.00  0.00     0.008 A 
ATOM      8  C   UNL     1       6.379  -0.103  -1.589  1.00  0.00     0.054 A 
ATOM      9  C   UNL     1       8.962   0.623  -1.267  1.00  0.00     0.051 A 
ATOM     10  C   UNL     1       7.399  -0.876  -2.164  1.00  0.00     0.166 A 
ATOM     11  C   UNL     1       8.718  -0.513  -2.006  1.00  0.00     0.165 A 
ATOM     12  O   UNL     1       7.425  -2.033  -2.933  1.00  0.00    -0.454 OA
ATOM     13  O   UNL     1       9.524  -1.444  -2.673  1.00  0.00    -0.454 OA
ATOM     14  C   UNL     1       8.723  -2.598  -2.815  1.00  0.00     0.468 C 
ENDBRANCH   5   6
ENDBRANCH   1   5
TORSDOF 3
ENDMDL
MODEL 2
REMARK VINA RESULT:      -7.0      1.831      2.304
REMARK SMILES CC(=O)CCc1ccc2c(c1)OCO2
REMARK SMILES IDX 4 1 2 2 1 3 3 4 5 5 6 6 7 7 11 8 8 9 10 10 9 11 12 12 14 13
REMARK SMILES IDX 13 14
REMARK H PARENT
REMARK Flexibility Score: inf
ROOT
ATOM      1  C   UNL     1       5.736   1.306  -0.333  1.00  0.00     0.080 C 
ENDROOT
BRANCH   1   2
ATOM      2  C   UNL     1       5.104   1.329   0.999  1.00  0.00     0.130 C 
ATOM      3  C   UNL     1       5.466   0.169   1.910  1.00  0.00     0.087 C 
ATOM      4  O   UNL     1       4.347   2.146   1.440  1.00  0.00    -0.300 OA
ENDBRANCH   1   2
BRANCH   1   5
ATOM      5  C   UNL     1       7.181   0.998  -0.362  1.00  0.00     0.043 C 
BRANCH   5   6
ATOM      6  C   UNL     1       7.580  -0.293  -0.929  1.00  0.00    -0.044 A 
ATOM      7  C   UNL     1       7.765  -0.479  -2.300  1.00  0.00     0.008 A 
ATOM      8  C   UNL     1       7.813  -1.366  -0.101  1.00  0.00     0.054 A 
ATOM      9  C   UNL     1       8.166  -1.707  -2.758  1.00  0.00     0.051 A 
ATOM     10  C   UNL     1       8.222  -2.613  -0.597  1.00  0.00     0.166 A 
ATOM     11  C   UNL     1       8.404  -2.796  -1.950  1.00  0.00     0.165 A 
ATOM     12  O   UNL     1       8.523  -3.839  -0.016  1.00  0.00    -0.454 OA
ATOM     13  O   UNL     1       8.810  -4.118  -2.175  1.00  0.00    -0.454 OA
ATOM     14  C   UNL     1       9.322  -4.567  -0.937  1.00  0.00     0.468 C 
ENDBRANCH   5   6
ENDBRANCH   1   5
TORSDOF 3
ENDMDL
MODEL 3
REMARK VINA RESULT:      -6.9      1.106      1.197
REMARK SMILES CC(=O)CCc1ccc2c(c1)OCO2
REMARK SMILES IDX 4 1 2 2 1 3 3 4 5 5 6 6 7 7 11 8 8 9 10 10 9 11 12 12 14 13
REMARK SMILES IDX 13 14
REMARK H PARENT
REMARK Flexibility Score: inf
ROOT
ATOM      1  C   UNL     1       6.228   1.228   0.902  1.00  0.00     0.080 C 
ENDROOT
BRANCH   1   2
ATOM      2  C   UNL     1       5.548   0.429   1.938  1.00  0.00     0.130 C 
ATOM      3  C   UNL     1       6.314  -0.790   2.424  1.00  0.00     0.087 C 
ATOM      4  O   UNL     1       4.476   0.627   2.434  1.00  0.00    -0.300 OA
ENDBRANCH   1   2
BRANCH   1   5
ATOM      5  C   UNL     1       5.874   0.916  -0.499  1.00  0.00     0.043 C 
BRANCH   5   6
ATOM      6  C   UNL     1       6.843   0.141  -1.278  1.00  0.00    -0.044 A 
ATOM      7  C   UNL     1       7.769   0.748  -2.129  1.00  0.00     0.008 A 
ATOM      8  C   UNL     1       6.881  -1.229  -1.164  1.00  0.00     0.054 A 
ATOM      9  C   UNL     1       8.665  -0.036  -2.807  1.00  0.00     0.051 A 
ATOM     10  C   UNL     1       7.810  -2.008  -1.871  1.00  0.00     0.166 A 
ATOM     11  C   UNL     1       8.722  -1.409  -2.711  1.00  0.00     0.165 A 
ATOM     12  O   UNL     1       8.075  -3.370  -1.951  1.00  0.00    -0.454 OA
ATOM     13  O   UNL     1       9.524  -2.403  -3.286  1.00  0.00    -0.454 OA
ATOM     14  C   UNL     1       9.401  -3.522  -2.433  1.00  0.00     0.468 C 
ENDBRANCH   5   6
ENDBRANCH   1   5
TORSDOF 3
ENDMDL
MODEL 4
REMARK VINA RESULT:      -6.9      1.824      2.477
REMARK SMILES CC(=O)CCc1ccc2c(c1)OCO2
REMARK SMILES IDX 4 1 2 2 1 3 3 4 5 5 6 6 7 7 11 8 8 9 10 10 9 11 12 12 14 13
REMARK SMILES IDX 13 14
REMARK H PARENT
REMARK Flexibility Score: inf
ROOT
ATOM      1  C   UNL     1       6.817   1.357   1.011  1.00  0.00     0.080 C 
ENDROOT
BRANCH   1   2
ATOM      2  C   UNL     1       5.392   1.706   0.865  1.00  0.00     0.130 C 
ATOM      3  C   UNL     1       4.970   2.148  -0.525  1.00  0.00     0.087 C 
ATOM      4  O   UNL     1       4.538   1.680   1.706  1.00  0.00    -0.300 OA
ENDBRANCH   1   2
BRANCH   1   5
ATOM      5  C   UNL     1       7.597   1.267  -0.241  1.00  0.00     0.043 C 
BRANCH   5   6
ATOM      6  C   UNL     1       7.795  -0.068  -0.812  1.00  0.00    -0.044 A 
ATOM      7  C   UNL     1       7.796  -0.295  -2.190  1.00  0.00     0.008 A 
ATOM      8  C   UNL     1       8.017  -1.145   0.014  1.00  0.00     0.054 A 
ATOM      9  C   UNL     1       8.014  -1.565  -2.656  1.00  0.00     0.051 A 
ATOM     10  C   UNL     1       8.238  -2.435  -0.490  1.00  0.00     0.166 A 
ATOM     11  C   UNL     1       8.238  -2.659  -1.850  1.00  0.00     0.165 A 
ATOM     12  O   UNL     1       8.482  -3.675   0.087  1.00  0.00    -0.454 OA
ATOM     13  O   UNL     1       8.481  -4.019  -2.082  1.00  0.00    -0.454 OA
ATOM     14  C   UNL     1       9.089  -4.497  -0.900  1.00  0.00     0.468 C 
ENDBRANCH   5   6
ENDBRANCH   1   5
TORSDOF 3
ENDMDL
MODEL 5
REMARK VINA RESULT:      -6.7      1.831      2.421
REMARK SMILES CC(=O)CCc1ccc2c(c1)OCO2
REMARK SMILES IDX 4 1 2 2 1 3 3 4 5 5 6 6 7 7 11 8 8 9 10 10 9 11 12 12 14 13
REMARK SMILES IDX 13 14
REMARK H PARENT
REMARK Flexibility Score: inf
ROOT
ATOM      1  C   UNL     1       5.557   0.056   2.136  1.00  0.00     0.080 C 
ENDROOT
BRANCH   1   2
ATOM      2  C   UNL     1       4.555   1.105   1.872  1.00  0.00     0.130 C 
ATOM      3  C   UNL     1       4.901   2.068   0.749  1.00  0.00     0.087 C 
ATOM      4  O   UNL     1       3.512   1.284   2.434  1.00  0.00    -0.300 OA
ENDBRANCH   1   2
BRANCH   1   5
ATOM      5  C   UNL     1       6.878   0.243   1.500  1.00  0.00     0.043 C 
BRANCH   5   6
ATOM      6  C   UNL     1       7.235  -0.675   0.415  1.00  0.00    -0.044 A 
ATOM      7  C   UNL     1       7.049  -0.346  -0.929  1.00  0.00     0.008 A 
ATOM      8  C   UNL     1       7.800  -1.895   0.703  1.00  0.00     0.054 A 
ATOM      9  C   UNL     1       7.432  -1.242  -1.893  1.00  0.00     0.051 A 
ATOM     10  C   UNL     1       8.183  -2.794  -0.304  1.00  0.00     0.166 A 
ATOM     11  C   UNL     1       7.999  -2.470  -1.630  1.00  0.00     0.165 A 
ATOM     12  O   UNL     1       8.760  -4.058  -0.311  1.00  0.00    -0.454 OA
ATOM     13  O   UNL     1       8.461  -3.529  -2.421  1.00  0.00    -0.454 OA
ATOM     14  C   UNL     1       9.341  -4.258  -1.591  1.00  0.00     0.468 C 
ENDBRANCH   5   6
ENDBRANCH   1   5
TORSDOF 3
ENDMDL
