MODEL 1
REMARK VINA RESULT:      -7.7      0.000      0.000
REMARK SMILES CC(=O)CCc1ccc2c(c1)OCO2
REMARK SMILES IDX 4 1 2 2 1 3 3 4 5 5 6 6 7 7 11 8 8 9 10 10 9 11 12 12 14 13
REMARK SMILES IDX 13 14
REMARK H PARENT
REMARK Flexibility Score: inf
ROOT
ATOM      1  C   UNL     1       5.446   1.884   1.207  1.00  0.00     0.080 C 
ENDROOT
BRANCH   1   2
ATOM      2  C   UNL     1       4.904   0.751   1.980  1.00  0.00     0.130 C 
ATOM      3  C   UNL     1       5.783  -0.487   2.023  1.00  0.00     0.087 C 
ATOM      4  O   UNL     1       3.863   0.695   2.571  1.00  0.00    -0.300 OA
ENDBRANCH   1   2
BRANCH   1   5
ATOM      5  C   UNL     1       5.450   1.727  -0.262  1.00  0.00     0.043 C 
BRANCH   5   6
ATOM      6  C   UNL     1       6.575   1.000  -0.856  1.00  0.00    -0.044 A 
ATOM      7  C   UNL     1       7.901   1.386  -0.651  1.00  0.00     0.008 A 
ATOM      8  C   UNL     1       6.346  -0.120  -1.621  1.00  0.00     0.054 A 
ATOM      9  C   UNL     1       8.906   0.643  -1.215  1.00  0.00     0.051 A 
ATOM     10  C   UNL     1       7.394  -0.862  -2.186  1.00  0.00     0.166 A 
ATOM     11  C   UNL     1       8.702  -0.480  -1.985  1.00  0.00     0.165 A 
ATOM     12  O   UNL     1       7.460  -2.001  -2.979  1.00  0.00    -0.454 OA
ATOM     13  O   UNL     1       9.541  -1.383  -2.651  1.00  0.00    -0.454 OA
ATOM     14  C   UNL     1       8.764  -2.547  -2.839  1.00  0.00     0.468 C 
ENDBRANCH   5   6
ENDBRANCH   1   5
TORSDOF 3
ENDMDL
MODEL 2
REMARK VINA RESULT:      -7.0      1.860      2.377
REMARK SMILES CC(=O)CCc1ccc2c(c1)OCO2
REMARK SMILES IDX 4 1 2 2 1 3 3 4 5 5 6 6 7 7 11 8 8 9 10 10 9 11 12 12 14 13
REMARK SMILES IDX 13 14
REMARK H PARENT
REMARK Flexibility Score: inf
ROOT
ATOM      1  C   UNL     1       5.832   1.299  -0.260  1.00  0.00     0.080 C 
ENDROOT
BRANCH   1   2
ATOM      2  C   UNL     1       5.201   1.300   1.072  1.00  0.00     0.130 C 
ATOM      3  C   UNL     1       5.471   0.069   1.920  1.00  0.00     0.087 C 
ATOM      4  O   UNL     1       4.508   2.149   1.558  1.00  0.00    -0.300 OA
ENDBRANCH   1   2
BRANCH   1   5
ATOM      5  C   UNL     1       7.264   0.935  -0.301  1.00  0.00     0.043 C 
BRANCH   5   6
ATOM      6  C   UNL     1       7.609  -0.360  -0.895  1.00  0.00    -0.044 A 
ATOM      7  C   UNL     1       7.705  -0.543  -2.276  1.00  0.00     0.008 A 
ATOM      8  C   UNL     1       7.879  -1.439  -0.086  1.00  0.00     0.054 A 
ATOM      9  C   UNL     1       8.059  -1.775  -2.761  1.00  0.00     0.051 A 
ATOM     10  C   UNL     1       8.239  -2.689  -0.610  1.00  0.00     0.166 A 
ATOM     11  C   UNL     1       8.333  -2.870  -1.972  1.00  0.00     0.165 A 
ATOM     12  O   UNL     1       8.559  -3.921  -0.052  1.00  0.00    -0.454 OA
ATOM     13  O   UNL     1       8.706  -4.197  -2.226  1.00  0.00    -0.454 OA
ATOM     14  C   UNL     1       9.288  -4.657  -1.024  1.00  0.00     0.468 C 
ENDBRANCH   5   6
ENDBRANCH   1   5
TORSDOF 3
ENDMDL
MODEL 3
REMARK VINA RESULT:      -7.0      1.012      1.120
REMARK SMILES CC(=O)CCc1ccc2c(c1)OCO2
REMARK SMILES IDX 4 1 2 2 1 3 3 4 5 5 6 6 7 7 11 8 8 9 10 10 9 11 12 12 14 13
REMARK SMILES IDX 13 14
REMARK H PARENT
REMARK Flexibility Score: inf
ROOT
ATOM      1  C   UNL     1       6.177   1.307   0.833  1.00  0.00     0.080 C 
ENDROOT
BRANCH   1   2
ATOM      2  C   UNL     1       5.558   0.486   1.889  1.00  0.00     0.130 C 
ATOM      3  C   UNL     1       6.369  -0.717   2.337  1.00  0.00     0.087 C 
ATOM      4  O   UNL     1       4.502   0.657   2.429  1.00  0.00    -0.300 OA
ENDBRANCH   1   2
BRANCH   1   5
ATOM      5  C   UNL     1       5.886   0.905  -0.559  1.00  0.00     0.043 C 
BRANCH   5   6
ATOM      6  C   UNL     1       6.923   0.153  -1.271  1.00  0.00    -0.044 A 
ATOM      7  C   UNL     1       8.037   0.775  -1.837  1.00  0.00     0.008 A 
ATOM      8  C   UNL     1       6.834  -1.216  -1.374  1.00  0.00     0.054 A 
ATOM      9  C   UNL     1       8.983   0.007  -2.465  1.00  0.00     0.051 A 
ATOM     10  C   UNL     1       7.817  -1.978  -2.022  1.00  0.00     0.166 A 
ATOM     11  C   UNL     1       8.915  -1.364  -2.582  1.00  0.00     0.165 A 
ATOM     12  O   UNL     1       7.987  -3.335  -2.272  1.00  0.00    -0.454 OA
ATOM     13  O   UNL     1       9.733  -2.343  -3.160  1.00  0.00    -0.454 OA
ATOM     14  C   UNL     1       9.365  -3.555  -2.533  1.00  0.00     0.468 C 
ENDBRANCH   5   6
ENDBRANCH   1   5
TORSDOF 3
ENDMDL
MODEL 4
REMARK VINA RESULT:      -7.0      1.850      2.541
REMARK SMILES CC(=O)CCc1ccc2c(c1)OCO2
REMARK SMILES IDX 4 1 2 2 1 3 3 4 5 5 6 6 7 7 11 8 8 9 10 10 9 11 12 12 14 13
REMARK SMILES IDX 13 14
REMARK H PARENT
REMARK Flexibility Score: inf
ROOT
ATOM      1  C   UNL     1       6.750   1.237   0.929  1.00  0.00     0.080 C 
ENDROOT
BRANCH   1   2
ATOM      2  C   UNL     1       5.369   1.719   0.748  1.00  0.00     0.130 C 
ATOM      3  C   UNL     1       5.010   2.150  -0.664  1.00  0.00     0.087 C 
ATOM      4  O   UNL     1       4.507   1.808   1.576  1.00  0.00    -0.300 OA
ENDBRANCH   1   2
BRANCH   1   5
ATOM      5  C   UNL     1       7.582   1.172  -0.291  1.00  0.00     0.043 C 
BRANCH   5   6
ATOM      6  C   UNL     1       7.813  -0.153  -0.875  1.00  0.00    -0.044 A 
ATOM      7  C   UNL     1       7.907  -0.353  -2.253  1.00  0.00     0.008 A 
ATOM      8  C   UNL     1       7.973  -1.247  -0.057  1.00  0.00     0.054 A 
ATOM      9  C   UNL     1       8.151  -1.615  -2.728  1.00  0.00     0.051 A 
ATOM     10  C   UNL     1       8.223  -2.529  -0.571  1.00  0.00     0.166 A 
ATOM     11  C   UNL     1       8.315  -2.726  -1.931  1.00  0.00     0.165 A 
ATOM     12  O   UNL     1       8.421  -3.781  -0.003  1.00  0.00    -0.454 OA
ATOM     13  O   UNL     1       8.566  -4.083  -2.173  1.00  0.00    -0.454 OA
ATOM     14  C   UNL     1       9.091  -4.587  -0.962  1.00  0.00     0.468 C 
ENDBRANCH   5   6
ENDBRANCH   1   5
TORSDOF 3
ENDMDL
MODEL 5
REMARK VINA RESULT:      -6.8      1.989      2.543
REMARK SMILES CC(=O)CCc1ccc2c(c1)OCO2
REMARK SMILES IDX 4 1 2 2 1 3 3 4 5 5 6 6 7 7 11 8 8 9 10 10 9 11 12 12 14 13
REMARK SMILES IDX 13 14
REMARK H PARENT
REMARK Flexibility Score: inf
ROOT
ATOM      1  C   UNL     1       5.723   0.064   1.983  1.00  0.00     0.080 C 
ENDROOT
BRANCH   1   2
ATOM      2  C   UNL     1       4.724   1.115   1.715  1.00  0.00     0.130 C 
ATOM      3  C   UNL     1       5.057   2.052   0.567  1.00  0.00     0.087 C 
ATOM      4  O   UNL     1       3.692   1.312   2.291  1.00  0.00    -0.300 OA
ENDBRANCH   1   2
BRANCH   1   5
ATOM      5  C   UNL     1       7.035   0.230   1.322  1.00  0.00     0.043 C 
BRANCH   5   6
ATOM      6  C   UNL     1       7.405  -0.762   0.309  1.00  0.00    -0.044 A 
ATOM      7  C   UNL     1       7.320  -0.496  -1.059  1.00  0.00     0.008 A 
ATOM      8  C   UNL     1       7.881  -1.994   0.693  1.00  0.00     0.054 A 
ATOM      9  C   UNL     1       7.709  -1.462  -1.951  1.00  0.00     0.051 A 
ATOM     10  C   UNL     1       8.272  -2.964  -0.242  1.00  0.00     0.166 A 
ATOM     11  C   UNL     1       8.188  -2.702  -1.592  1.00  0.00     0.165 A 
ATOM     12  O   UNL     1       8.775  -4.256  -0.149  1.00  0.00    -0.454 OA
ATOM     13  O   UNL     1       8.636  -3.826  -2.298  1.00  0.00    -0.454 OA
ATOM     14  C   UNL     1       9.421  -4.556  -1.378  1.00  0.00     0.468 C 
ENDBRANCH   5   6
ENDBRANCH   1   5
TORSDOF 3
ENDMDL
