@<TRIPOS>MOLECULE
/home/cewinharhar/GITHUB/reincatalyze/data/processed/docking_pred/2023-May-31-1727_sub9_nm5_bs15_s42_ex16_mel10_mts10000_k50_ec075_g099_lra3e-4_lrc3e-3/1a0a4210c7fbec369f44508687af2363e72d8760_ligand_9.pdbqt
 14 15 0 0 0
SMALL
GASTEIGER

@<TRIPOS>ATOM
      1  C          5.4460    1.8840    1.2070 C.3     1  UNL1        0.0800
      2  C          4.9040    0.7510    1.9800 C.2     1  UNL1        0.1300
      3  C          5.7830   -0.4870    2.0230 C.3     1  UNL1        0.0870
      4  O          3.8630    0.6950    2.5710 O.2     1  UNL1       -0.3000
      5  C          5.4500    1.7270   -0.2620 C.3     1  UNL1        0.0430
      6  C          6.5750    1.0000   -0.8560 C.2     1  UNL1       -0.0440
      7  C          7.9010    1.3860   -0.6510 C.2     1  UNL1        0.0080
      8  C          6.3460   -0.1200   -1.6210 C.2     1  UNL1        0.0540
      9  C          8.9060    0.6430   -1.2150 C.2     1  UNL1        0.0510
     10  C          7.3940   -0.8620   -2.1860 C.2     1  UNL1        0.1660
     11  C          8.7020   -0.4800   -1.9850 C.2     1  UNL1        0.1650
     12  O          7.4600   -2.0010   -2.9790 O.2     1  UNL1       -0.4540
     13  O          9.5410   -1.3830   -2.6510 O.2     1  UNL1       -0.4540
     14  C          8.7640   -2.5470   -2.8390 C.3     1  UNL1        0.4680
@<TRIPOS>BOND
     1    12    14    1
     2    12    10    1
     3    14    13    1
     4    13    11    1
     5    10    11    2
     6    10     8    1
     7    11     9    1
     8     8     6    2
     9     9     7    2
    10     6     7    1
    11     6     5    1
    12     5     1    1
    13     1     2    1
    14     2     3    1
    15     2     4    2
