@<TRIPOS>MOLECULE
/home/cewinharhar/GITHUB/reincatalyze/data/processed/docking_pred/2023-May-31-1727_sub9_nm5_bs15_s42_ex16_mel10_mts10000_k50_ec075_g099_lra3e-4_lrc3e-3/1a0a4210c7fbec369f44508687af2363e72d8760_ligand_9.pdbqt
 14 15 0 0 0
SMALL
GASTEIGER

@<TRIPOS>ATOM
      1  C          5.7230    0.0640    1.9830 C.3     1  UNL1        0.0800
      2  C          4.7240    1.1150    1.7150 C.2     1  UNL1        0.1300
      3  C          5.0570    2.0520    0.5670 C.3     1  UNL1        0.0870
      4  O          3.6920    1.3120    2.2910 O.2     1  UNL1       -0.3000
      5  C          7.0350    0.2300    1.3220 C.3     1  UNL1        0.0430
      6  C          7.4050   -0.7620    0.3090 C.2     1  UNL1       -0.0440
      7  C          7.3200   -0.4960   -1.0590 C.2     1  UNL1        0.0080
      8  C          7.8810   -1.9940    0.6930 C.2     1  UNL1        0.0540
      9  C          7.7090   -1.4620   -1.9510 C.2     1  UNL1        0.0510
     10  C          8.2720   -2.9640   -0.2420 C.2     1  UNL1        0.1660
     11  C          8.1880   -2.7020   -1.5920 C.2     1  UNL1        0.1650
     12  O          8.7750   -4.2560   -0.1490 O.2     1  UNL1       -0.4540
     13  O          8.6360   -3.8260   -2.2980 O.2     1  UNL1       -0.4540
     14  C          9.4210   -4.5560   -1.3780 C.3     1  UNL1        0.4680
@<TRIPOS>BOND
     1    13    11    1
     2    13    14    1
     3     9    11    2
     4     9     7    1
     5    11    10    1
     6    14    12    1
     7     7     6    2
     8    10    12    1
     9    10     8    2
    10     6     8    1
    11     6     5    1
    12     3     2    1
    13     5     1    1
    14     2     1    1
    15     2     4    2
