@<TRIPOS>MOLECULE
/home/cewinharhar/GITHUB/reincatalyze/data/processed/docking_pred/2023-May-31-1727_sub9_nm5_bs15_s42_ex16_mel10_mts10000_k50_ec075_g099_lra3e-4_lrc3e-3/1a0a4210c7fbec369f44508687af2363e72d8760_ligand_9.pdbqt
 14 15 0 0 0
SMALL
GASTEIGER

@<TRIPOS>ATOM
      1  C          5.8320    1.2990   -0.2600 C.3     1  UNL1        0.0800
      2  C          5.2010    1.3000    1.0720 C.2     1  UNL1        0.1300
      3  C          5.4710    0.0690    1.9200 C.3     1  UNL1        0.0870
      4  O          4.5080    2.1490    1.5580 O.2     1  UNL1       -0.3000
      5  C          7.2640    0.9350   -0.3010 C.3     1  UNL1        0.0430
      6  C          7.6090   -0.3600   -0.8950 C.2     1  UNL1       -0.0440
      7  C          7.7050   -0.5430   -2.2760 C.2     1  UNL1        0.0080
      8  C          7.8790   -1.4390   -0.0860 C.2     1  UNL1        0.0540
      9  C          8.0590   -1.7750   -2.7610 C.2     1  UNL1        0.0510
     10  C          8.2390   -2.6890   -0.6100 C.2     1  UNL1        0.1660
     11  C          8.3330   -2.8700   -1.9720 C.2     1  UNL1        0.1650
     12  O          8.5590   -3.9210   -0.0520 O.2     1  UNL1       -0.4540
     13  O          8.7060   -4.1970   -2.2260 O.2     1  UNL1       -0.4540
     14  C          9.2880   -4.6570   -1.0240 C.3     1  UNL1        0.4680
@<TRIPOS>BOND
     1     9     7    1
     2     9    11    2
     3     7     6    2
     4    13    11    1
     5    13    14    1
     6    11    10    1
     7    14    12    1
     8     6     5    1
     9     6     8    1
    10    10     8    2
    11    10    12    1
    12     5     1    1
    13     1     2    1
    14     2     4    2
    15     2     3    1
