@<TRIPOS>MOLECULE
/home/cewinharhar/GITHUB/reincatalyze/data/processed/docking_pred/2023-May-31-1727_sub9_nm5_bs15_s42_ex16_mel10_mts10000_k50_ec075_g099_lra3e-4_lrc3e-3/1c86ade130d2cc9f902dffb19ba95248752a952e_ligand_9.pdbqt
 14 15 0 0 0
SMALL
GASTEIGER

@<TRIPOS>ATOM
      1  C          5.5110    1.9010    1.2120 C.3     1  UNL1        0.0800
      2  C          4.9870    0.7670    1.9940 C.2     1  UNL1        0.1300
      3  C          5.9290   -0.4170    2.1350 C.3     1  UNL1        0.0870
      4  O          3.9170    0.6720    2.5260 O.2     1  UNL1       -0.3000
      5  C          5.4990    1.7390   -0.2570 C.3     1  UNL1        0.0430
      6  C          6.6120    0.9990   -0.8590 C.2     1  UNL1       -0.0440
      7  C          7.9430    1.3830   -0.6830 C.2     1  UNL1        0.0080
      8  C          6.3650   -0.1300   -1.6040 C.2     1  UNL1        0.0540
      9  C          8.9350    0.6280   -1.2520 C.2     1  UNL1        0.0510
     10  C          7.4010   -0.8850   -2.1760 C.2     1  UNL1        0.1660
     11  C          8.7140   -0.5060   -2.0030 C.2     1  UNL1        0.1650
     12  O          7.4500   -2.0350   -2.9540 O.2     1  UNL1       -0.4540
     13  O          9.5380   -1.4210   -2.6690 O.2     1  UNL1       -0.4540
     14  C          8.7530   -2.5840   -2.8280 C.3     1  UNL1        0.4680
@<TRIPOS>BOND
     1    12    14    1
     2    12    10    1
     3    14    13    1
     4    13    11    1
     5    10    11    2
     6    10     8    1
     7    11     9    1
     8     8     6    2
     9     9     7    2
    10     6     7    1
    11     6     5    1
    12     5     1    1
    13     1     2    1
    14     2     3    1
    15     2     4    2
