@<TRIPOS>MOLECULE
/home/cewinharhar/GITHUB/reincatalyze/data/processed/docking_pred/2023-May-31-1727_sub9_nm5_bs15_s42_ex16_mel10_mts10000_k50_ec075_g099_lra3e-4_lrc3e-3/1c86ade130d2cc9f902dffb19ba95248752a952e_ligand_9.pdbqt
 14 15 0 0 0
SMALL
GASTEIGER

@<TRIPOS>ATOM
      1  C          5.7600    1.6330   -0.1420 C.3     1  UNL1        0.0800
      2  C          5.0330    1.3840    1.1160 C.2     1  UNL1        0.1300
      3  C          5.5660    0.2380    1.9580 C.3     1  UNL1        0.0870
      4  O          4.0830    1.9740    1.5460 O.2     1  UNL1       -0.3000
      5  C          7.1770    1.2140   -0.1700 C.3     1  UNL1        0.0430
      6  C          7.4840   -0.0670   -0.8130 C.2     1  UNL1       -0.0440
      7  C          7.4790   -0.2230   -2.2000 C.2     1  UNL1        0.0080
      8  C          7.8200   -1.1590   -0.0470 C.2     1  UNL1        0.0540
      9  C          7.8030   -1.4430   -2.7350 C.2     1  UNL1        0.0510
     10  C          8.1480   -2.3970   -0.6210 C.2     1  UNL1        0.1660
     11  C          8.1420   -2.5510   -1.9900 C.2     1  UNL1        0.1650
     12  O          8.5160   -3.6360   -0.1130 O.2     1  UNL1       -0.4540
     13  O          8.5020   -3.8690   -2.2960 O.2     1  UNL1       -0.4540
     14  C          9.1750   -4.3480   -1.1500 C.3     1  UNL1        0.4680
@<TRIPOS>BOND
     1     9     7    1
     2     9    11    2
     3    13    11    1
     4    13    14    1
     5     7     6    2
     6    11    10    1
     7    14    12    1
     8     6     5    1
     9     6     8    1
    10    10    12    1
    11    10     8    2
    12     5     1    1
    13     1     2    1
    14     2     4    2
    15     2     3    1
