@<TRIPOS>MOLECULE
/home/cewinharhar/GITHUB/reincatalyze/data/processed/docking_pred/2023-May-31-1727_sub9_nm5_bs15_s42_ex16_mel10_mts10000_k50_ec075_g099_lra3e-4_lrc3e-3/1caf15995fa8372ea76f1cb48e36fe3c815c3a18_ligand_9.pdbqt
 14 15 0 0 0
SMALL
GASTEIGER

@<TRIPOS>ATOM
      1  C          5.7960    1.4760   -0.2630 C.3     1  UNL1        0.0800
      2  C          5.0780    1.3810    1.0210 C.2     1  UNL1        0.1300
      3  C          5.4860    0.2180    1.9100 C.3     1  UNL1        0.0870
      4  O          4.2210    2.1070    1.4400 O.2     1  UNL1       -0.3000
      5  C          7.2140    1.0600   -0.2480 C.3     1  UNL1        0.0430
      6  C          7.5390   -0.2370   -0.8490 C.2     1  UNL1       -0.0440
      7  C          7.5800   -0.4260   -2.2320 C.2     1  UNL1        0.0080
      8  C          7.8430   -1.3110   -0.0470 C.2     1  UNL1        0.0540
      9  C          7.9180   -1.6590   -2.7260 C.2     1  UNL1        0.0510
     10  C          8.1860   -2.5630   -0.5790 C.2     1  UNL1        0.1660
     11  C          8.2260   -2.7500   -1.9430 C.2     1  UNL1        0.1650
     12  O          8.5310   -3.7920   -0.0290 O.2     1  UNL1       -0.4540
     13  O          8.5920   -4.0770   -2.2050 O.2     1  UNL1       -0.4540
     14  C          9.2230   -4.5300   -1.0260 C.3     1  UNL1        0.4680
@<TRIPOS>BOND
     1     9     7    1
     2     9    11    2
     3     7     6    2
     4    13    11    1
     5    13    14    1
     6    11    10    1
     7    14    12    1
     8     6     5    1
     9     6     8    1
    10    10     8    2
    11    10    12    1
    12     1     5    1
    13     1     2    1
    14     2     4    2
    15     2     3    1
