@<TRIPOS>MOLECULE
/home/cewinharhar/GITHUB/reincatalyze/data/processed/docking_pred/2023-May-31-1727_sub9_nm5_bs15_s42_ex16_mel10_mts10000_k50_ec075_g099_lra3e-4_lrc3e-3/1e16add1d5649bf0b13dd0d86c7d3fc630d89625_ligand_9.pdbqt
 14 15 0 0 0
SMALL
GASTEIGER

@<TRIPOS>ATOM
      1  C          5.8770    0.8310    0.5030 C.3     1  UNL1        0.0800
      2  C          5.3900    0.3300    1.8020 C.2     1  UNL1        0.1300
      3  C          6.2350   -0.7630    2.4340 C.3     1  UNL1        0.0870
      4  O          4.4180    0.6810    2.4080 O.2     1  UNL1       -0.3000
      5  C          7.3170    0.6410    0.2300 C.3     1  UNL1        0.0430
      6  C          7.6770   -0.1370   -0.9590 C.2     1  UNL1       -0.0440
      7  C          7.9420    0.4660   -2.1900 C.2     1  UNL1        0.0080
      8  C          7.7900   -1.5050   -0.8780 C.2     1  UNL1        0.0540
      9  C          8.3000   -0.3210   -3.2540 C.2     1  UNL1        0.0510
     10  C          8.1590   -2.2870   -1.9840 C.2     1  UNL1        0.1660
     11  C          8.4200   -1.6920   -3.1990 C.2     1  UNL1        0.1650
     12  O          8.3480   -3.6470   -2.1930 O.2     1  UNL1       -0.4540
     13  O          8.7620   -2.6870   -4.1230 O.2     1  UNL1       -0.4540
     14  C          9.1620   -3.7970   -3.3460 C.3     1  UNL1        0.4680
@<TRIPOS>BOND
     1    13    14    1
     2    13    11    1
     3    14    12    1
     4     9    11    2
     5     9     7    1
     6    11    10    1
     7    12    10    1
     8     7     6    2
     9    10     8    2
    10     6     8    1
    11     6     5    1
    12     5     1    1
    13     1     2    1
    14     2     4    2
    15     2     3    1
