@<TRIPOS>MOLECULE
/home/cewinharhar/GITHUB/reincatalyze/data/processed/docking_pred/2023-May-31-1727_sub9_nm5_bs15_s42_ex16_mel10_mts10000_k50_ec075_g099_lra3e-4_lrc3e-3/1e16add1d5649bf0b13dd0d86c7d3fc630d89625_ligand_9.pdbqt
 14 15 0 0 0
SMALL
GASTEIGER

@<TRIPOS>ATOM
      1  C          5.8580    1.6070    1.0870 C.3     1  UNL1        0.0800
      2  C          5.2930    0.5600    1.9580 C.2     1  UNL1        0.1300
      3  C          6.2000   -0.6320    2.2150 C.3     1  UNL1        0.0870
      4  O          4.2150    0.5410    2.4820 O.2     1  UNL1       -0.3000
      5  C          5.7360    1.3780   -0.3680 C.3     1  UNL1        0.0430
      6  C          6.8090    0.6220   -1.0200 C.2     1  UNL1       -0.0440
      7  C          8.1550    0.9610   -0.8690 C.2     1  UNL1        0.0080
      8  C          6.5080   -0.4780   -1.7880 C.2     1  UNL1        0.0540
      9  C          9.1090    0.1930   -1.4850 C.2     1  UNL1        0.0510
     10  C          7.5050   -1.2470   -2.4080 C.2     1  UNL1        0.1660
     11  C          8.8330   -0.9120   -2.2600 C.2     1  UNL1        0.1650
     12  O          7.4980   -2.3760   -3.2180 O.2     1  UNL1       -0.4540
     13  O          9.6120   -1.8330   -2.9740 O.2     1  UNL1       -0.4540
     14  C          8.7870   -2.9670   -3.1420 C.3     1  UNL1        0.4680
@<TRIPOS>BOND
     1    12    14    1
     2    12    10    1
     3    14    13    1
     4    13    11    1
     5    10    11    2
     6    10     8    1
     7    11     9    1
     8     8     6    2
     9     9     7    2
    10     6     7    1
    11     6     5    1
    12     5     1    1
    13     1     2    1
    14     2     3    1
    15     2     4    2
