@<TRIPOS>MOLECULE
/home/cewinharhar/GITHUB/reincatalyze/data/processed/docking_pred/2023-May-31-1727_sub9_nm5_bs15_s42_ex16_mel10_mts10000_k50_ec075_g099_lra3e-4_lrc3e-3/1e8ffecbec14ce573bf52adb8829230239be76a8_ligand_9.pdbqt
 14 15 0 0 0
SMALL
GASTEIGER

@<TRIPOS>ATOM
      1  C          5.3560   -0.0430    1.9850 C.3     1  UNL1        0.0800
      2  C          4.4110    1.0840    1.8780 C.2     1  UNL1        0.1300
      3  C          4.7470    2.1150    0.8150 C.3     1  UNL1        0.0870
      4  O          3.4200    1.2770    2.5250 O.2     1  UNL1       -0.3000
      5  C          6.7810    0.2800    1.7680 C.3     1  UNL1        0.0430
      6  C          7.3390   -0.0080    0.4430 C.2     1  UNL1       -0.0440
      7  C          7.9250    0.9810   -0.3480 C.2     1  UNL1        0.0080
      8  C          7.3210   -1.2930   -0.0470 C.2     1  UNL1        0.0540
      9  C          8.4520    0.6350   -1.5660 C.2     1  UNL1        0.0510
     10  C          7.8680   -1.6190   -1.2970 C.2     1  UNL1        0.1660
     11  C          8.4460   -0.6430   -2.0780 C.2     1  UNL1        0.1650
     12  O          7.9900   -2.7950   -2.0280 O.2     1  UNL1       -0.4540
     13  O          8.9090   -1.2300   -3.2630 O.2     1  UNL1       -0.4540
     14  C          9.0310   -2.6070   -2.9750 C.3     1  UNL1        0.4680
@<TRIPOS>BOND
     1    13    14    1
     2    13    11    1
     3    14    12    1
     4    11     9    2
     5    11    10    1
     6    12    10    1
     7     9     7    1
     8    10     8    2
     9     7     6    2
    10     8     6    1
    11     6     5    1
    12     3     2    1
    13     5     1    1
    14     2     1    1
    15     2     4    2
