@<TRIPOS>MOLECULE
/home/cewinharhar/GITHUB/reincatalyze/data/processed/docking_pred/2023-May-31-1727_sub9_nm5_bs15_s42_ex16_mel10_mts10000_k50_ec075_g099_lra3e-4_lrc3e-3/1e8ffecbec14ce573bf52adb8829230239be76a8_ligand_9.pdbqt
 14 15 0 0 0
SMALL
GASTEIGER

@<TRIPOS>ATOM
      1  C          5.6870    0.2110    1.8470 C.3     1  UNL1        0.0800
      2  C          4.8300    1.3350    1.4280 C.2     1  UNL1        0.1300
      3  C          5.2970    2.0830    0.1910 C.3     1  UNL1        0.0870
      4  O          3.8200    1.7210    1.9440 O.2     1  UNL1       -0.3000
      5  C          7.0780    0.2310    1.3470 C.3     1  UNL1        0.0430
      6  C          7.4400   -0.7620    0.3330 C.2     1  UNL1       -0.0440
      7  C          7.3680   -0.4900   -1.0350 C.2     1  UNL1        0.0080
      8  C          7.8960   -2.0020    0.7150 C.2     1  UNL1        0.0540
      9  C          7.7480   -1.4580   -1.9280 C.2     1  UNL1        0.0510
     10  C          8.2800   -2.9740   -0.2210 C.2     1  UNL1        0.1660
     11  C          8.2080   -2.7060   -1.5700 C.2     1  UNL1        0.1650
     12  O          8.7650   -4.2740   -0.1300 O.2     1  UNL1       -0.4540
     13  O          8.6450   -3.8330   -2.2780 O.2     1  UNL1       -0.4540
     14  C          9.4140   -4.5770   -1.3560 C.3     1  UNL1        0.4680
@<TRIPOS>BOND
     1    13    11    1
     2    13    14    1
     3     9    11    2
     4     9     7    1
     5    11    10    1
     6    14    12    1
     7     7     6    2
     8    10    12    1
     9    10     8    2
    10     3     2    1
    11     6     8    1
    12     6     5    1
    13     5     1    1
    14     2     1    1
    15     2     4    2
