MODEL 1
REMARK VINA RESULT:      -7.6      0.000      0.000
REMARK SMILES CC(=O)CCc1ccc2c(c1)OCO2
REMARK SMILES IDX 4 1 2 2 1 3 3 4 5 5 6 6 7 7 11 8 8 9 10 10 9 11 12 12 14 13
REMARK SMILES IDX 13 14
REMARK H PARENT
REMARK Flexibility Score: inf
ROOT
ATOM      1  C   UNL     1       5.724   1.670   1.140  1.00  0.00     0.080 C 
ENDROOT
BRANCH   1   2
ATOM      2  C   UNL     1       5.178   0.594   1.987  1.00  0.00     0.130 C 
ATOM      3  C   UNL     1       6.106  -0.586   2.219  1.00  0.00     0.087 C 
ATOM      4  O   UNL     1       4.099   0.543   2.507  1.00  0.00    -0.300 OA
ENDBRANCH   1   2
BRANCH   1   5
ATOM      5  C   UNL     1       5.633   1.459  -0.320  1.00  0.00     0.043 C 
BRANCH   5   6
ATOM      6  C   UNL     1       6.729   0.728  -0.962  1.00  0.00    -0.044 A 
ATOM      7  C   UNL     1       8.047   1.185  -0.929  1.00  0.00     0.008 A 
ATOM      8  C   UNL     1       6.481  -0.465  -1.600  1.00  0.00     0.054 A 
ATOM      9  C   UNL     1       9.027   0.436  -1.527  1.00  0.00     0.051 A 
ATOM     10  C   UNL     1       7.504  -1.212  -2.204  1.00  0.00     0.166 A 
ATOM     11  C   UNL     1       8.805  -0.760  -2.172  1.00  0.00     0.165 A 
ATOM     12  O   UNL     1       7.548  -2.414  -2.899  1.00  0.00    -0.454 OA
ATOM     13  O   UNL     1       9.618  -1.684  -2.841  1.00  0.00    -0.454 OA
ATOM     14  C   UNL     1       8.885  -2.891  -2.847  1.00  0.00     0.468 C 
ENDBRANCH   5   6
ENDBRANCH   1   5
TORSDOF 3
ENDMDL
MODEL 2
REMARK VINA RESULT:      -7.0      1.729      2.146
REMARK SMILES CC(=O)CCc1ccc2c(c1)OCO2
REMARK SMILES IDX 4 1 2 2 1 3 3 4 5 5 6 6 7 7 11 8 8 9 10 10 9 11 12 12 14 13
REMARK SMILES IDX 13 14
REMARK H PARENT
REMARK Flexibility Score: inf
ROOT
ATOM      1  C   UNL     1       5.958   1.535  -0.272  1.00  0.00     0.080 C 
ENDROOT
BRANCH   1   2
ATOM      2  C   UNL     1       5.218   1.445   0.999  1.00  0.00     0.130 C 
ATOM      3  C   UNL     1       5.646   0.318   1.923  1.00  0.00     0.087 C 
ATOM      4  O   UNL     1       4.328   2.150   1.384  1.00  0.00    -0.300 OA
ENDBRANCH   1   2
BRANCH   1   5
ATOM      5  C   UNL     1       7.361   1.071  -0.243  1.00  0.00     0.043 C 
BRANCH   5   6
ATOM      6  C   UNL     1       7.649  -0.234  -0.844  1.00  0.00    -0.044 A 
ATOM      7  C   UNL     1       7.695  -0.423  -2.226  1.00  0.00     0.008 A 
ATOM      8  C   UNL     1       7.912  -1.319  -0.040  1.00  0.00     0.054 A 
ATOM      9  C   UNL     1       7.996  -1.666  -2.719  1.00  0.00     0.051 A 
ATOM     10  C   UNL     1       8.219  -2.581  -0.572  1.00  0.00     0.166 A 
ATOM     11  C   UNL     1       8.263  -2.767  -1.936  1.00  0.00     0.165 A 
ATOM     12  O   UNL     1       8.520  -3.821  -0.022  1.00  0.00    -0.454 OA
ATOM     13  O   UNL     1       8.588  -4.105  -2.198  1.00  0.00    -0.454 OA
ATOM     14  C   UNL     1       9.195  -4.580  -1.014  1.00  0.00     0.468 C 
ENDBRANCH   5   6
ENDBRANCH   1   5
TORSDOF 3
ENDMDL
MODEL 3
REMARK VINA RESULT:      -6.7      1.062      1.573
REMARK SMILES CC(=O)CCc1ccc2c(c1)OCO2
REMARK SMILES IDX 4 1 2 2 1 3 3 4 5 5 6 6 7 7 11 8 8 9 10 10 9 11 12 12 14 13
REMARK SMILES IDX 13 14
REMARK H PARENT
REMARK Flexibility Score: inf
ROOT
ATOM      1  C   UNL     1       5.356  -0.043   1.985  1.00  0.00     0.080 C 
ENDROOT
BRANCH   1   2
ATOM      2  C   UNL     1       4.411   1.084   1.878  1.00  0.00     0.130 C 
ATOM      3  C   UNL     1       4.747   2.115   0.815  1.00  0.00     0.087 C 
ATOM      4  O   UNL     1       3.420   1.277   2.525  1.00  0.00    -0.300 OA
ENDBRANCH   1   2
BRANCH   1   5
ATOM      5  C   UNL     1       6.781   0.280   1.768  1.00  0.00     0.043 C 
BRANCH   5   6
ATOM      6  C   UNL     1       7.339  -0.008   0.443  1.00  0.00    -0.044 A 
ATOM      7  C   UNL     1       7.925   0.981  -0.348  1.00  0.00     0.008 A 
ATOM      8  C   UNL     1       7.321  -1.293  -0.047  1.00  0.00     0.054 A 
ATOM      9  C   UNL     1       8.452   0.635  -1.566  1.00  0.00     0.051 A 
ATOM     10  C   UNL     1       7.868  -1.619  -1.297  1.00  0.00     0.166 A 
ATOM     11  C   UNL     1       8.446  -0.643  -2.078  1.00  0.00     0.165 A 
ATOM     12  O   UNL     1       7.990  -2.795  -2.028  1.00  0.00    -0.454 OA
ATOM     13  O   UNL     1       8.909  -1.230  -3.263  1.00  0.00    -0.454 OA
ATOM     14  C   UNL     1       9.031  -2.607  -2.975  1.00  0.00     0.468 C 
ENDBRANCH   5   6
ENDBRANCH   1   5
TORSDOF 3
ENDMDL
MODEL 4
REMARK VINA RESULT:      -6.6      1.898      2.427
REMARK SMILES CC(=O)CCc1ccc2c(c1)OCO2
REMARK SMILES IDX 4 1 2 2 1 3 3 4 5 5 6 6 7 7 11 8 8 9 10 10 9 11 12 12 14 13
REMARK SMILES IDX 13 14
REMARK H PARENT
REMARK Flexibility Score: inf
ROOT
ATOM      1  C   UNL     1       5.687   0.211   1.847  1.00  0.00     0.080 C 
ENDROOT
BRANCH   1   2
ATOM      2  C   UNL     1       4.830   1.335   1.428  1.00  0.00     0.130 C 
ATOM      3  C   UNL     1       5.297   2.083   0.191  1.00  0.00     0.087 C 
ATOM      4  O   UNL     1       3.820   1.721   1.944  1.00  0.00    -0.300 OA
ENDBRANCH   1   2
BRANCH   1   5
ATOM      5  C   UNL     1       7.078   0.231   1.347  1.00  0.00     0.043 C 
BRANCH   5   6
ATOM      6  C   UNL     1       7.440  -0.762   0.333  1.00  0.00    -0.044 A 
ATOM      7  C   UNL     1       7.368  -0.490  -1.035  1.00  0.00     0.008 A 
ATOM      8  C   UNL     1       7.896  -2.002   0.715  1.00  0.00     0.054 A 
ATOM      9  C   UNL     1       7.748  -1.458  -1.928  1.00  0.00     0.051 A 
ATOM     10  C   UNL     1       8.280  -2.974  -0.221  1.00  0.00     0.166 A 
ATOM     11  C   UNL     1       8.208  -2.706  -1.570  1.00  0.00     0.165 A 
ATOM     12  O   UNL     1       8.765  -4.274  -0.130  1.00  0.00    -0.454 OA
ATOM     13  O   UNL     1       8.645  -3.833  -2.278  1.00  0.00    -0.454 OA
ATOM     14  C   UNL     1       9.414  -4.577  -1.356  1.00  0.00     0.468 C 
ENDBRANCH   5   6
ENDBRANCH   1   5
TORSDOF 3
ENDMDL
MODEL 5
REMARK VINA RESULT:      -6.5      1.519      2.254
REMARK SMILES CC(=O)CCc1ccc2c(c1)OCO2
REMARK SMILES IDX 4 1 2 2 1 3 3 4 5 5 6 6 7 7 11 8 8 9 10 10 9 11 12 12 14 13
REMARK SMILES IDX 13 14
REMARK H PARENT
REMARK Flexibility Score: inf
ROOT
ATOM      1  C   UNL     1       5.341  -0.067   2.224  1.00  0.00     0.080 C 
ENDROOT
BRANCH   1   2
ATOM      2  C   UNL     1       4.448   1.065   1.915  1.00  0.00     0.130 C 
ATOM      3  C   UNL     1       4.921   1.981   0.799  1.00  0.00     0.087 C 
ATOM      4  O   UNL     1       3.405   1.342   2.436  1.00  0.00    -0.300 OA
ENDBRANCH   1   2
BRANCH   1   5
ATOM      5  C   UNL     1       6.772   0.129   1.911  1.00  0.00     0.043 C 
BRANCH   5   6
ATOM      6  C   UNL     1       7.335  -0.668   0.817  1.00  0.00    -0.044 A 
ATOM      7  C   UNL     1       7.625  -2.026   0.959  1.00  0.00     0.008 A 
ATOM      8  C   UNL     1       7.567  -0.088  -0.408  1.00  0.00     0.054 A 
ATOM      9  C   UNL     1       8.124  -2.716  -0.115  1.00  0.00     0.051 A 
ATOM     10  C   UNL     1       8.079  -0.819  -1.492  1.00  0.00     0.166 A 
ATOM     11  C   UNL     1       8.366  -2.159  -1.351  1.00  0.00     0.165 A 
ATOM     12  O   UNL     1       8.405  -0.508  -2.806  1.00  0.00    -0.454 OA
ATOM     13  O   UNL     1       8.858  -2.643  -2.570  1.00  0.00    -0.454 OA
ATOM     14  C   UNL     1       8.416  -1.721  -3.544  1.00  0.00     0.468 C 
ENDBRANCH   5   6
ENDBRANCH   1   5
TORSDOF 3
ENDMDL
