@<TRIPOS>MOLECULE
/home/cewinharhar/GITHUB/reincatalyze/data/processed/docking_pred/2023-May-31-1727_sub9_nm5_bs15_s42_ex16_mel10_mts10000_k50_ec075_g099_lra3e-4_lrc3e-3/1e8ffecbec14ce573bf52adb8829230239be76a8_ligand_9.pdbqt
 14 15 0 0 0
SMALL
GASTEIGER

@<TRIPOS>ATOM
      1  C          5.7240    1.6700    1.1400 C.3     1  UNL1        0.0800
      2  C          5.1780    0.5940    1.9870 C.2     1  UNL1        0.1300
      3  C          6.1060   -0.5860    2.2190 C.3     1  UNL1        0.0870
      4  O          4.0990    0.5430    2.5070 O.2     1  UNL1       -0.3000
      5  C          5.6330    1.4590   -0.3200 C.3     1  UNL1        0.0430
      6  C          6.7290    0.7280   -0.9620 C.2     1  UNL1       -0.0440
      7  C          8.0470    1.1850   -0.9290 C.2     1  UNL1        0.0080
      8  C          6.4810   -0.4650   -1.6000 C.2     1  UNL1        0.0540
      9  C          9.0270    0.4360   -1.5270 C.2     1  UNL1        0.0510
     10  C          7.5040   -1.2120   -2.2040 C.2     1  UNL1        0.1660
     11  C          8.8050   -0.7600   -2.1720 C.2     1  UNL1        0.1650
     12  O          7.5480   -2.4140   -2.8990 O.2     1  UNL1       -0.4540
     13  O          9.6180   -1.6840   -2.8410 O.2     1  UNL1       -0.4540
     14  C          8.8850   -2.8910   -2.8470 C.3     1  UNL1        0.4680
@<TRIPOS>BOND
     1    12    14    1
     2    12    10    1
     3    14    13    1
     4    13    11    1
     5    10    11    2
     6    10     8    1
     7    11     9    1
     8     8     6    2
     9     9     7    2
    10     6     7    1
    11     6     5    1
    12     5     1    1
    13     1     2    1
    14     2     3    1
    15     2     4    2
