MODEL 1
REMARK VINA RESULT:      -8.3      0.000      0.000
REMARK SMILES CC(=O)CCc1ccc2c(c1)OCO2
REMARK SMILES IDX 4 1 2 2 1 3 3 4 5 5 6 6 7 7 11 8 8 9 10 10 9 11 12 12 14 13
REMARK SMILES IDX 13 14
REMARK H PARENT
REMARK Flexibility Score: inf
ROOT
ATOM      1  C   UNL     1       5.790   1.550   0.841  1.00  0.00     0.080 C 
ENDROOT
BRANCH   1   2
ATOM      2  C   UNL     1       5.280   0.629   1.873  1.00  0.00     0.130 C 
ATOM      3  C   UNL     1       6.212  -0.512   2.243  1.00  0.00     0.087 C 
ATOM      4  O   UNL     1       4.229   0.676   2.447  1.00  0.00    -0.300 OA
ENDBRANCH   1   2
BRANCH   1   5
ATOM      5  C   UNL     1       5.803   1.034  -0.544  1.00  0.00     0.043 C 
BRANCH   5   6
ATOM      6  C   UNL     1       7.021   0.354  -0.994  1.00  0.00    -0.044 A 
ATOM      7  C   UNL     1       8.283   0.940  -0.886  1.00  0.00     0.008 A 
ATOM      8  C   UNL     1       6.947  -0.915  -1.518  1.00  0.00     0.054 A 
ATOM      9  C   UNL     1       9.383   0.235  -1.302  1.00  0.00     0.051 A 
ATOM     10  C   UNL     1       8.089  -1.615  -1.937  1.00  0.00     0.166 A 
ATOM     11  C   UNL     1       9.335  -1.036  -1.830  1.00  0.00     0.165 A 
ATOM     12  O   UNL     1       8.312  -2.870  -2.488  1.00  0.00    -0.454 OA
ATOM     13  O   UNL     1      10.292  -1.938  -2.313  1.00  0.00    -0.454 OA
ATOM     14  C   UNL     1       9.673  -3.206  -2.257  1.00  0.00     0.468 C 
ENDBRANCH   5   6
ENDBRANCH   1   5
TORSDOF 3
ENDMDL
MODEL 2
REMARK VINA RESULT:      -7.7      0.945      1.021
REMARK SMILES CC(=O)CCc1ccc2c(c1)OCO2
REMARK SMILES IDX 4 1 2 2 1 3 3 4 5 5 6 6 7 7 11 8 8 9 10 10 9 11 12 12 14 13
REMARK SMILES IDX 13 14
REMARK H PARENT
REMARK Flexibility Score: inf
ROOT
ATOM      1  C   UNL     1       6.067   1.707  -0.126  1.00  0.00     0.080 C 
ENDROOT
BRANCH   1   2
ATOM      2  C   UNL     1       5.213   1.453   1.048  1.00  0.00     0.130 C 
ATOM      3  C   UNL     1       5.541   0.192   1.830  1.00  0.00     0.087 C 
ATOM      4  O   UNL     1       4.302   2.118   1.453  1.00  0.00    -0.300 OA
ENDBRANCH   1   2
BRANCH   1   5
ATOM      5  C   UNL     1       6.187   0.598  -1.096  1.00  0.00     0.043 C 
BRANCH   5   6
ATOM      6  C   UNL     1       7.507  -0.019  -1.248  1.00  0.00    -0.044 A 
ATOM      7  C   UNL     1       8.613   0.396  -0.504  1.00  0.00     0.008 A 
ATOM      8  C   UNL     1       7.682  -1.063  -2.127  1.00  0.00     0.054 A 
ATOM      9  C   UNL     1       9.812  -0.245  -0.678  1.00  0.00     0.051 A 
ATOM     10  C   UNL     1       8.921  -1.702  -2.285  1.00  0.00     0.166 A 
ATOM     11  C   UNL     1      10.012  -1.292  -1.551  1.00  0.00     0.165 A 
ATOM     12  O   UNL     1       9.380  -2.750  -3.073  1.00  0.00    -0.454 OA
ATOM     13  O   UNL     1      11.112  -2.087  -1.897  1.00  0.00    -0.454 OA
ATOM     14  C   UNL     1      10.562  -3.256  -2.469  1.00  0.00     0.468 C 
ENDBRANCH   5   6
ENDBRANCH   1   5
TORSDOF 3
ENDMDL
MODEL 3
REMARK VINA RESULT:      -7.6      1.221      1.653
REMARK SMILES CC(=O)CCc1ccc2c(c1)OCO2
REMARK SMILES IDX 4 1 2 2 1 3 3 4 5 5 6 6 7 7 11 8 8 9 10 10 9 11 12 12 14 13
REMARK SMILES IDX 13 14
REMARK H PARENT
REMARK Flexibility Score: inf
ROOT
ATOM      1  C   UNL     1       5.915   1.250  -0.269  1.00  0.00     0.080 C 
ENDROOT
BRANCH   1   2
ATOM      2  C   UNL     1       5.248   1.188   1.045  1.00  0.00     0.130 C 
ATOM      3  C   UNL     1       5.613  -0.011   1.903  1.00  0.00     0.087 C 
ATOM      4  O   UNL     1       4.463   1.965   1.508  1.00  0.00    -0.300 OA
ENDBRANCH   1   2
BRANCH   1   5
ATOM      5  C   UNL     1       7.389   1.147  -0.256  1.00  0.00     0.043 C 
BRANCH   5   6
ATOM      6  C   UNL     1       7.993   0.076  -1.053  1.00  0.00    -0.044 A 
ATOM      7  C   UNL     1       7.743  -0.067  -2.419  1.00  0.00     0.008 A 
ATOM      8  C   UNL     1       8.861  -0.814  -0.465  1.00  0.00     0.054 A 
ATOM      9  C   UNL     1       8.364  -1.076  -3.109  1.00  0.00     0.051 A 
ATOM     10  C   UNL     1       9.484  -1.838  -1.195  1.00  0.00     0.166 A 
ATOM     11  C   UNL     1       9.236  -1.979  -2.543  1.00  0.00     0.165 A 
ATOM     12  O   UNL     1      10.378  -2.852  -0.877  1.00  0.00    -0.454 OA
ATOM     13  O   UNL     1       9.975  -3.067  -3.025  1.00  0.00    -0.454 OA
ATOM     14  C   UNL     1      11.009  -3.263  -2.082  1.00  0.00     0.468 C 
ENDBRANCH   5   6
ENDBRANCH   1   5
TORSDOF 3
ENDMDL
MODEL 4
REMARK VINA RESULT:      -7.5      1.043      1.051
REMARK SMILES CC(=O)CCc1ccc2c(c1)OCO2
REMARK SMILES IDX 4 1 2 2 1 3 3 4 5 5 6 6 7 7 11 8 8 9 10 10 9 11 12 12 14 13
REMARK SMILES IDX 13 14
REMARK H PARENT
REMARK Flexibility Score: inf
ROOT
ATOM      1  C   UNL     1       6.362   1.086   0.774  1.00  0.00     0.080 C 
ENDROOT
BRANCH   1   2
ATOM      2  C   UNL     1       5.614   0.440   1.867  1.00  0.00     0.130 C 
ATOM      3  C   UNL     1       6.297  -0.760   2.501  1.00  0.00     0.087 C 
ATOM      4  O   UNL     1       4.543   0.748   2.308  1.00  0.00    -0.300 OA
ENDBRANCH   1   2
BRANCH   1   5
ATOM      5  C   UNL     1       6.006   0.665  -0.597  1.00  0.00     0.043 C 
BRANCH   5   6
ATOM      6  C   UNL     1       6.981  -0.156  -1.320  1.00  0.00    -0.044 A 
ATOM      7  C   UNL     1       7.669   0.318  -2.439  1.00  0.00     0.008 A 
ATOM      8  C   UNL     1       7.266  -1.430  -0.886  1.00  0.00     0.054 A 
ATOM      9  C   UNL     1       8.587  -0.495  -3.050  1.00  0.00     0.051 A 
ATOM     10  C   UNL     1       8.211  -2.241  -1.531  1.00  0.00     0.166 A 
ATOM     11  C   UNL     1       8.890  -1.773  -2.635  1.00  0.00     0.165 A 
ATOM     12  O   UNL     1       8.690  -3.529  -1.323  1.00  0.00    -0.454 OA
ATOM     13  O   UNL     1       9.765  -2.772  -3.082  1.00  0.00    -0.454 OA
ATOM     14  C   UNL     1       9.948  -3.630  -1.975  1.00  0.00     0.468 C 
ENDBRANCH   5   6
ENDBRANCH   1   5
TORSDOF 3
ENDMDL
MODEL 5
REMARK VINA RESULT:      -7.4      1.349      2.143
REMARK SMILES CC(=O)CCc1ccc2c(c1)OCO2
REMARK SMILES IDX 4 1 2 2 1 3 3 4 5 5 6 6 7 7 11 8 8 9 10 10 9 11 12 12 14 13
REMARK SMILES IDX 13 14
REMARK H PARENT
REMARK Flexibility Score: inf
ROOT
ATOM      1  C   UNL     1       6.589   0.062   1.899  1.00  0.00     0.080 C 
ENDROOT
BRANCH   1   2
ATOM      2  C   UNL     1       5.295   0.755   1.768  1.00  0.00     0.130 C 
ATOM      3  C   UNL     1       5.194   1.733   0.610  1.00  0.00     0.087 C 
ATOM      4  O   UNL     1       4.324   0.637   2.461  1.00  0.00    -0.300 OA
ENDBRANCH   1   2
BRANCH   1   5
ATOM      5  C   UNL     1       6.611  -1.359   1.495  1.00  0.00     0.043 C 
BRANCH   5   6
ATOM      6  C   UNL     1       7.316  -1.692   0.253  1.00  0.00    -0.044 A 
ATOM      7  C   UNL     1       6.972  -1.121  -0.973  1.00  0.00     0.008 A 
ATOM      8  C   UNL     1       8.372  -2.573   0.276  1.00  0.00     0.054 A 
ATOM      9  C   UNL     1       7.692  -1.458  -2.090  1.00  0.00     0.051 A 
ATOM     10  C   UNL     1       9.092  -2.900  -0.883  1.00  0.00     0.166 A 
ATOM     11  C   UNL     1       8.753  -2.337  -2.093  1.00  0.00     0.165 A 
ATOM     12  O   UNL     1      10.171  -3.732  -1.154  1.00  0.00    -0.454 OA
ATOM     13  O   UNL     1       9.621  -2.827  -3.077  1.00  0.00    -0.454 OA
ATOM     14  C   UNL     1      10.752  -3.299  -2.375  1.00  0.00     0.468 C 
ENDBRANCH   5   6
ENDBRANCH   1   5
TORSDOF 3
ENDMDL
