@<TRIPOS>MOLECULE
/home/cewinharhar/GITHUB/reincatalyze/data/processed/docking_pred/2023-May-31-1727_sub9_nm5_bs15_s42_ex16_mel10_mts10000_k50_ec075_g099_lra3e-4_lrc3e-3/1ec3d4ded79b7f38a98788c4b0a5da992fc20b58_ligand_9.pdbqt
 14 15 0 0 0
SMALL
GASTEIGER

@<TRIPOS>ATOM
      1  C          6.0670    1.7070   -0.1260 C.3     1  UNL1        0.0800
      2  C          5.2130    1.4530    1.0480 C.2     1  UNL1        0.1300
      3  C          5.5410    0.1920    1.8300 C.3     1  UNL1        0.0870
      4  O          4.3020    2.1180    1.4530 O.2     1  UNL1       -0.3000
      5  C          6.1870    0.5980   -1.0960 C.3     1  UNL1        0.0430
      6  C          7.5070   -0.0190   -1.2480 C.2     1  UNL1       -0.0440
      7  C          8.6130    0.3960   -0.5040 C.2     1  UNL1        0.0080
      8  C          7.6820   -1.0630   -2.1270 C.2     1  UNL1        0.0540
      9  C          9.8120   -0.2450   -0.6780 C.2     1  UNL1        0.0510
     10  C          8.9210   -1.7020   -2.2850 C.2     1  UNL1        0.1660
     11  C         10.0120   -1.2920   -1.5510 C.2     1  UNL1        0.1650
     12  O          9.3800   -2.7500   -3.0730 O.2     1  UNL1       -0.4540
     13  O         11.1120   -2.0870   -1.8970 O.2     1  UNL1       -0.4540
     14  C         10.5620   -3.2560   -2.4690 C.3     1  UNL1        0.4680
@<TRIPOS>BOND
     1    12    14    1
     2    12    10    1
     3    14    13    1
     4    10     8    1
     5    10    11    2
     6     8     6    2
     7    13    11    1
     8    11     9    1
     9     6     5    1
    10     6     7    1
    11     5     1    1
    12     9     7    2
    13     1     2    1
    14     2     4    2
    15     2     3    1
