@<TRIPOS>MOLECULE
/home/cewinharhar/GITHUB/reincatalyze/data/processed/docking_pred/2023-May-31-1727_sub9_nm5_bs15_s42_ex16_mel10_mts10000_k50_ec075_g099_lra3e-4_lrc3e-3/1ec3d4ded79b7f38a98788c4b0a5da992fc20b58_ligand_9.pdbqt
 14 15 0 0 0
SMALL
GASTEIGER

@<TRIPOS>ATOM
      1  C          6.3620    1.0860    0.7740 C.3     1  UNL1        0.0800
      2  C          5.6140    0.4400    1.8670 C.2     1  UNL1        0.1300
      3  C          6.2970   -0.7600    2.5010 C.3     1  UNL1        0.0870
      4  O          4.5430    0.7480    2.3080 O.2     1  UNL1       -0.3000
      5  C          6.0060    0.6650   -0.5970 C.3     1  UNL1        0.0430
      6  C          6.9810   -0.1560   -1.3200 C.2     1  UNL1       -0.0440
      7  C          7.6690    0.3180   -2.4390 C.2     1  UNL1        0.0080
      8  C          7.2660   -1.4300   -0.8860 C.2     1  UNL1        0.0540
      9  C          8.5870   -0.4950   -3.0500 C.2     1  UNL1        0.0510
     10  C          8.2110   -2.2410   -1.5310 C.2     1  UNL1        0.1660
     11  C          8.8900   -1.7730   -2.6350 C.2     1  UNL1        0.1650
     12  O          8.6900   -3.5290   -1.3230 O.2     1  UNL1       -0.4540
     13  O          9.7650   -2.7720   -3.0820 O.2     1  UNL1       -0.4540
     14  C          9.9480   -3.6300   -1.9750 C.3     1  UNL1        0.4680
@<TRIPOS>BOND
     1    13    11    1
     2    13    14    1
     3     9    11    2
     4     9     7    1
     5    11    10    1
     6     7     6    2
     7    14    12    1
     8    10    12    1
     9    10     8    2
    10     6     8    1
    11     6     5    1
    12     5     1    1
    13     1     2    1
    14     2     4    2
    15     2     3    1
