@<TRIPOS>MOLECULE
/home/cewinharhar/GITHUB/reincatalyze/data/processed/docking_pred/2023-May-31-1727_sub9_nm5_bs15_s42_ex16_mel10_mts10000_k50_ec075_g099_lra3e-4_lrc3e-3/1f53ccdef65850680f3a99c865464637782ca6a5_ligand_9.pdbqt
 14 15 0 0 0
SMALL
GASTEIGER

@<TRIPOS>ATOM
      1  C          5.7380    1.6200    1.0870 C.3     1  UNL1        0.0800
      2  C          5.1940    0.5780    1.9770 C.2     1  UNL1        0.1300
      3  C          6.1220   -0.5940    2.2470 C.3     1  UNL1        0.0870
      4  O          4.1200    0.5500    2.5060 O.2     1  UNL1       -0.3000
      5  C          5.6270    1.3590   -0.3640 C.3     1  UNL1        0.0430
      6  C          6.7440    0.6610   -1.0060 C.2     1  UNL1       -0.0440
      7  C          8.0470    1.1610   -0.9820 C.2     1  UNL1        0.0080
      8  C          6.5330   -0.5430   -1.6360 C.2     1  UNL1        0.0540
      9  C          9.0490    0.4420   -1.5800 C.2     1  UNL1        0.0510
     10  C          7.5770   -1.2590   -2.2410 C.2     1  UNL1        0.1660
     11  C          8.8630   -0.7650   -2.2170 C.2     1  UNL1        0.1650
     12  O          7.6590   -2.4640   -2.9290 O.2     1  UNL1       -0.4540
     13  O          9.7030   -1.6660   -2.8840 O.2     1  UNL1       -0.4540
     14  C          9.0100   -2.8960   -2.8800 C.3     1  UNL1        0.4680
@<TRIPOS>BOND
     1    12    14    1
     2    12    10    1
     3    13    14    1
     4    13    11    1
     5    10    11    2
     6    10     8    1
     7    11     9    1
     8     8     6    2
     9     9     7    2
    10     6     7    1
    11     6     5    1
    12     5     1    1
    13     1     2    1
    14     2     3    1
    15     2     4    2
