@<TRIPOS>MOLECULE
/home/cewinharhar/GITHUB/reincatalyze/data/processed/docking_pred/2023-May-31-1727_sub9_nm5_bs15_s42_ex16_mel10_mts10000_k50_ec075_g099_lra3e-4_lrc3e-3/1f53ccdef65850680f3a99c865464637782ca6a5_ligand_9.pdbqt
 14 15 0 0 0
SMALL
GASTEIGER

@<TRIPOS>ATOM
      1  C          5.3080   -0.0780    2.1980 C.3     1  UNL1        0.0800
      2  C          4.4300    1.0710    1.9130 C.2     1  UNL1        0.1300
      3  C          4.9040    1.9900    0.8000 C.3     1  UNL1        0.0870
      4  O          3.3990    1.3600    2.4500 O.2     1  UNL1       -0.3000
      5  C          6.7450    0.1130    1.9090 C.3     1  UNL1        0.0430
      6  C          7.3170   -0.6710    0.8100 C.2     1  UNL1       -0.0440
      7  C          7.6320   -2.0240    0.9470 C.2     1  UNL1        0.0080
      8  C          7.5340   -0.0840   -0.4150 C.2     1  UNL1        0.0540
      9  C          8.1390   -2.7030   -0.1310 C.2     1  UNL1        0.0510
     10  C          8.0530   -0.8030   -1.5020 C.2     1  UNL1        0.1660
     11  C          8.3650   -2.1380   -1.3660 C.2     1  UNL1        0.1650
     12  O          8.3680   -0.4830   -2.8170 O.2     1  UNL1       -0.4540
     13  O          8.8610   -2.6110   -2.5880 O.2     1  UNL1       -0.4540
     14  C          8.3990   -1.6940   -3.5580 C.3     1  UNL1        0.4680
@<TRIPOS>BOND
     1    14    12    1
     2    14    13    1
     3    12    10    1
     4    13    11    1
     5    10    11    2
     6    10     8    1
     7    11     9    1
     8     8     6    2
     9     9     7    2
    10     3     2    1
    11     6     7    1
    12     6     5    1
    13     5     1    1
    14     2     1    1
    15     2     4    2
