@<TRIPOS>MOLECULE
/home/cewinharhar/GITHUB/reincatalyze/data/processed/docking_pred/2023-May-31-1727_sub9_nm5_bs15_s42_ex16_mel10_mts10000_k50_ec075_g099_lra3e-4_lrc3e-3/1f774135605f6656ff2aa9e322f53f2a679c664c_ligand_9.pdbqt
 14 15 0 0 0
SMALL
GASTEIGER

@<TRIPOS>ATOM
      1  C          5.7690    1.5440    0.8710 C.3     1  UNL1        0.0800
      2  C          5.2420    0.6120    1.8840 C.2     1  UNL1        0.1300
      3  C          6.1640   -0.5390    2.2500 C.3     1  UNL1        0.0870
      4  O          4.1840    0.6560    2.4450 O.2     1  UNL1       -0.3000
      5  C          5.7860    1.0510   -0.5220 C.3     1  UNL1        0.0430
      6  C          7.0020    0.3730   -0.9780 C.2     1  UNL1       -0.0440
      7  C          8.2670    0.9510   -0.8560 C.2     1  UNL1        0.0080
      8  C          6.9250   -0.8880   -1.5220 C.2     1  UNL1        0.0540
      9  C          9.3650    0.2480   -1.2800 C.2     1  UNL1        0.0510
     10  C          8.0660   -1.5860   -1.9470 C.2     1  UNL1        0.1660
     11  C          9.3140   -1.0140   -1.8280 C.2     1  UNL1        0.1650
     12  O          8.2860   -2.8340   -2.5170 O.2     1  UNL1       -0.4540
     13  O         10.2690   -1.9120   -2.3210 O.2     1  UNL1       -0.4540
     14  C          9.6440   -3.1790   -2.2860 C.3     1  UNL1        0.4680
@<TRIPOS>BOND
     1    12    14    1
     2    12    10    1
     3    13    14    1
     4    13    11    1
     5    10    11    2
     6    10     8    1
     7    11     9    1
     8     8     6    2
     9     9     7    2
    10     6     7    1
    11     6     5    1
    12     5     1    1
    13     1     2    1
    14     2     3    1
    15     2     4    2
