MODEL 1
REMARK VINA RESULT:      -7.6      0.000      0.000
REMARK SMILES CC(=O)CCc1ccc2c(c1)OCO2
REMARK SMILES IDX 4 1 2 2 1 3 3 4 5 5 6 6 7 7 11 8 8 9 10 10 9 11 12 12 14 13
REMARK SMILES IDX 13 14
REMARK H PARENT
REMARK Flexibility Score: inf
ROOT
ATOM      1  C   UNL     1       5.543   1.888   1.221  1.00  0.00     0.080 C 
ENDROOT
BRANCH   1   2
ATOM      2  C   UNL     1       5.007   0.751   1.991  1.00  0.00     0.130 C 
ATOM      3  C   UNL     1       5.944  -0.436   2.133  1.00  0.00     0.087 C 
ATOM      4  O   UNL     1       3.932   0.656   2.512  1.00  0.00    -0.300 OA
ENDBRANCH   1   2
BRANCH   1   5
ATOM      5  C   UNL     1       5.532   1.742  -0.249  1.00  0.00     0.043 C 
BRANCH   5   6
ATOM      6  C   UNL     1       6.640   0.998  -0.857  1.00  0.00    -0.044 A 
ATOM      7  C   UNL     1       7.973   1.373  -0.680  1.00  0.00     0.008 A 
ATOM      8  C   UNL     1       6.384  -0.126  -1.607  1.00  0.00     0.054 A 
ATOM      9  C   UNL     1       8.960   0.615  -1.255  1.00  0.00     0.051 A 
ATOM     10  C   UNL     1       7.414  -0.883  -2.185  1.00  0.00     0.166 A 
ATOM     11  C   UNL     1       8.730  -0.513  -2.011  1.00  0.00     0.165 A 
ATOM     12  O   UNL     1       7.455  -2.030  -2.969  1.00  0.00    -0.454 OA
ATOM     13  O   UNL     1       9.548  -1.430  -2.684  1.00  0.00    -0.454 OA
ATOM     14  C   UNL     1       8.756  -2.588  -2.848  1.00  0.00     0.468 C 
ENDBRANCH   5   6
ENDBRANCH   1   5
TORSDOF 3
ENDMDL
MODEL 2
REMARK VINA RESULT:      -7.0      1.121      1.238
REMARK SMILES CC(=O)CCc1ccc2c(c1)OCO2
REMARK SMILES IDX 4 1 2 2 1 3 3 4 5 5 6 6 7 7 11 8 8 9 10 10 9 11 12 12 14 13
REMARK SMILES IDX 13 14
REMARK H PARENT
REMARK Flexibility Score: inf
ROOT
ATOM      1  C   UNL     1       6.254   1.214   0.840  1.00  0.00     0.080 C 
ENDROOT
BRANCH   1   2
ATOM      2  C   UNL     1       5.540   0.443   1.874  1.00  0.00     0.130 C 
ATOM      3  C   UNL     1       6.278  -0.774   2.404  1.00  0.00     0.087 C 
ATOM      4  O   UNL     1       4.457   0.664   2.339  1.00  0.00    -0.300 OA
ENDBRANCH   1   2
BRANCH   1   5
ATOM      5  C   UNL     1       5.907   0.899  -0.562  1.00  0.00     0.043 C 
BRANCH   5   6
ATOM      6  C   UNL     1       6.873   0.108  -1.330  1.00  0.00    -0.044 A 
ATOM      7  C   UNL     1       7.791   0.697  -2.202  1.00  0.00     0.008 A 
ATOM      8  C   UNL     1       6.914  -1.259  -1.184  1.00  0.00     0.054 A 
ATOM      9  C   UNL     1       8.684  -0.102  -2.868  1.00  0.00     0.051 A 
ATOM     10  C   UNL     1       7.840  -2.052  -1.879  1.00  0.00     0.166 A 
ATOM     11  C   UNL     1       8.745  -1.472  -2.739  1.00  0.00     0.165 A 
ATOM     12  O   UNL     1       8.107  -3.415  -1.929  1.00  0.00    -0.454 OA
ATOM     13  O   UNL     1       9.545  -2.477  -3.297  1.00  0.00    -0.454 OA
ATOM     14  C   UNL     1       9.430  -3.577  -2.417  1.00  0.00     0.468 C 
ENDBRANCH   5   6
ENDBRANCH   1   5
TORSDOF 3
ENDMDL
MODEL 3
REMARK VINA RESULT:      -6.9      1.850      2.358
REMARK SMILES CC(=O)CCc1ccc2c(c1)OCO2
REMARK SMILES IDX 4 1 2 2 1 3 3 4 5 5 6 6 7 7 11 8 8 9 10 10 9 11 12 12 14 13
REMARK SMILES IDX 13 14
REMARK H PARENT
REMARK Flexibility Score: inf
ROOT
ATOM      1  C   UNL     1       6.017   1.468  -0.286  1.00  0.00     0.080 C 
ENDROOT
BRANCH   1   2
ATOM      2  C   UNL     1       5.293   1.349   0.992  1.00  0.00     0.130 C 
ATOM      3  C   UNL     1       5.516   0.049   1.746  1.00  0.00     0.087 C 
ATOM      4  O   UNL     1       4.558   2.149   1.499  1.00  0.00    -0.300 OA
ENDBRANCH   1   2
BRANCH   1   5
ATOM      5  C   UNL     1       7.422   1.009  -0.285  1.00  0.00     0.043 C 
BRANCH   5   6
ATOM      6  C   UNL     1       7.700  -0.300  -0.882  1.00  0.00    -0.044 A 
ATOM      7  C   UNL     1       7.740  -0.494  -2.264  1.00  0.00     0.008 A 
ATOM      8  C   UNL     1       7.960  -1.383  -0.076  1.00  0.00     0.054 A 
ATOM      9  C   UNL     1       8.033  -1.740  -2.753  1.00  0.00     0.051 A 
ATOM     10  C   UNL     1       8.258  -2.648  -0.604  1.00  0.00     0.166 A 
ATOM     11  C   UNL     1       8.297  -2.840  -1.968  1.00  0.00     0.165 A 
ATOM     12  O   UNL     1       8.554  -3.888  -0.050  1.00  0.00    -0.454 OA
ATOM     13  O   UNL     1       8.614  -4.180  -2.225  1.00  0.00    -0.454 OA
ATOM     14  C   UNL     1       9.222  -4.654  -1.042  1.00  0.00     0.468 C 
ENDBRANCH   5   6
ENDBRANCH   1   5
TORSDOF 3
ENDMDL
MODEL 4
REMARK VINA RESULT:      -6.7      1.147      1.639
REMARK SMILES CC(=O)CCc1ccc2c(c1)OCO2
REMARK SMILES IDX 4 1 2 2 1 3 3 4 5 5 6 6 7 7 11 8 8 9 10 10 9 11 12 12 14 13
REMARK SMILES IDX 13 14
REMARK H PARENT
REMARK Flexibility Score: inf
ROOT
ATOM      1  C   UNL     1       5.393  -0.065   1.923  1.00  0.00     0.080 C 
ENDROOT
BRANCH   1   2
ATOM      2  C   UNL     1       4.449   1.064   1.844  1.00  0.00     0.130 C 
ATOM      3  C   UNL     1       4.780   2.117   0.800  1.00  0.00     0.087 C 
ATOM      4  O   UNL     1       3.463   1.246   2.500  1.00  0.00    -0.300 OA
ENDBRANCH   1   2
BRANCH   1   5
ATOM      5  C   UNL     1       6.816   0.258   1.688  1.00  0.00     0.043 C 
BRANCH   5   6
ATOM      6  C   UNL     1       7.371  -0.076   0.373  1.00  0.00    -0.044 A 
ATOM      7  C   UNL     1       7.844   0.900  -0.505  1.00  0.00     0.008 A 
ATOM      8  C   UNL     1       7.465  -1.391  -0.020  1.00  0.00     0.054 A 
ATOM      9  C   UNL     1       8.375   0.513  -1.708  1.00  0.00     0.051 A 
ATOM     10  C   UNL     1       8.014  -1.759  -1.258  1.00  0.00     0.166 A 
ATOM     11  C   UNL     1       8.480  -0.795  -2.125  1.00  0.00     0.165 A 
ATOM     12  O   UNL     1       8.232  -2.970  -1.903  1.00  0.00    -0.454 OA
ATOM     13  O   UNL     1       8.971  -1.425  -3.276  1.00  0.00    -0.454 OA
ATOM     14  C   UNL     1       9.230  -2.759  -2.890  1.00  0.00     0.468 C 
ENDBRANCH   5   6
ENDBRANCH   1   5
TORSDOF 3
ENDMDL
MODEL 5
REMARK VINA RESULT:      -6.6      2.018      2.588
REMARK SMILES CC(=O)CCc1ccc2c(c1)OCO2
REMARK SMILES IDX 4 1 2 2 1 3 3 4 5 5 6 6 7 7 11 8 8 9 10 10 9 11 12 12 14 13
REMARK SMILES IDX 13 14
REMARK H PARENT
REMARK Flexibility Score: inf
ROOT
ATOM      1  C   UNL     1       5.596   0.157   1.843  1.00  0.00     0.080 C 
ENDROOT
BRANCH   1   2
ATOM      2  C   UNL     1       4.789   1.324   1.443  1.00  0.00     0.130 C 
ATOM      3  C   UNL     1       5.306   2.090   0.237  1.00  0.00     0.087 C 
ATOM      4  O   UNL     1       3.784   1.733   1.952  1.00  0.00    -0.300 OA
ENDBRANCH   1   2
BRANCH   1   5
ATOM      5  C   UNL     1       7.006   0.159   1.402  1.00  0.00     0.043 C 
BRANCH   5   6
ATOM      6  C   UNL     1       7.389  -0.817   0.378  1.00  0.00    -0.044 A 
ATOM      7  C   UNL     1       7.310  -0.534  -0.987  1.00  0.00     0.008 A 
ATOM      8  C   UNL     1       7.873  -2.050   0.748  1.00  0.00     0.054 A 
ATOM      9  C   UNL     1       7.711  -1.485  -1.889  1.00  0.00     0.051 A 
ATOM     10  C   UNL     1       8.277  -3.005  -0.197  1.00  0.00     0.166 A 
ATOM     11  C   UNL     1       8.197  -2.726  -1.544  1.00  0.00     0.165 A 
ATOM     12  O   UNL     1       8.789  -4.294  -0.118  1.00  0.00    -0.454 OA
ATOM     13  O   UNL     1       8.658  -3.837  -2.262  1.00  0.00    -0.454 OA
ATOM     14  C   UNL     1       9.444  -4.573  -1.347  1.00  0.00     0.468 C 
ENDBRANCH   5   6
ENDBRANCH   1   5
TORSDOF 3
ENDMDL
