@<TRIPOS>MOLECULE
/home/cewinharhar/GITHUB/reincatalyze/data/processed/docking_pred/2023-May-31-1727_sub9_nm5_bs15_s42_ex16_mel10_mts10000_k50_ec075_g099_lra3e-4_lrc3e-3/2037f81c995398ea407fbfc0a5ecaefc5001139a_ligand_9.pdbqt
 14 15 0 0 0
SMALL
GASTEIGER

@<TRIPOS>ATOM
      1  C          6.0170    1.4680   -0.2860 C.3     1  UNL1        0.0800
      2  C          5.2930    1.3490    0.9920 C.2     1  UNL1        0.1300
      3  C          5.5160    0.0490    1.7460 C.3     1  UNL1        0.0870
      4  O          4.5580    2.1490    1.4990 O.2     1  UNL1       -0.3000
      5  C          7.4220    1.0090   -0.2850 C.3     1  UNL1        0.0430
      6  C          7.7000   -0.3000   -0.8820 C.2     1  UNL1       -0.0440
      7  C          7.7400   -0.4940   -2.2640 C.2     1  UNL1        0.0080
      8  C          7.9600   -1.3830   -0.0760 C.2     1  UNL1        0.0540
      9  C          8.0330   -1.7400   -2.7530 C.2     1  UNL1        0.0510
     10  C          8.2580   -2.6480   -0.6040 C.2     1  UNL1        0.1660
     11  C          8.2970   -2.8400   -1.9680 C.2     1  UNL1        0.1650
     12  O          8.5540   -3.8880   -0.0500 O.2     1  UNL1       -0.4540
     13  O          8.6140   -4.1800   -2.2250 O.2     1  UNL1       -0.4540
     14  C          9.2220   -4.6540   -1.0420 C.3     1  UNL1        0.4680
@<TRIPOS>BOND
     1     9     7    1
     2     9    11    2
     3     7     6    2
     4    13    11    1
     5    13    14    1
     6    11    10    1
     7    14    12    1
     8     6     5    1
     9     6     8    1
    10    10     8    2
    11    10    12    1
    12     1     5    1
    13     1     2    1
    14     2     4    2
    15     2     3    1
