@<TRIPOS>MOLECULE
/home/cewinharhar/GITHUB/reincatalyze/data/processed/docking_pred/2023-May-31-1727_sub9_nm5_bs15_s42_ex16_mel10_mts10000_k50_ec075_g099_lra3e-4_lrc3e-3/225d7738cc918e3754e3779366d54ccb252183f1_ligand_9.pdbqt
 14 15 0 0 0
SMALL
GASTEIGER

@<TRIPOS>ATOM
      1  C          6.5410    0.6530    1.6810 C.3     1  UNL1        0.0800
      2  C          5.1910    1.2300    1.5510 C.2     1  UNL1        0.1300
      3  C          4.9890    2.1500    0.3600 C.3     1  UNL1        0.0870
      4  O          4.2460    1.0580    2.2680 O.2     1  UNL1       -0.3000
      5  C          7.4260    0.7960    0.5060 C.3     1  UNL1        0.0430
      6  C          7.6830   -0.4080   -0.2900 C.2     1  UNL1       -0.0440
      7  C          7.6390   -0.4010   -1.6850 C.2     1  UNL1        0.0080
      8  C          8.0060   -1.5900    0.3340 C.2     1  UNL1        0.0540
      9  C          7.9170   -1.5580   -2.3670 C.2     1  UNL1        0.0510
     10  C          8.2860   -2.7600   -0.3880 C.2     1  UNL1        0.1660
     11  C          8.2430   -2.7530   -1.7650 C.2     1  UNL1        0.1650
     12  O          8.6320   -4.0600   -0.0380 O.2     1  UNL1       -0.4540
     13  O          8.5590   -4.0350   -2.2320 O.2     1  UNL1       -0.4540
     14  C          9.2460   -4.6610   -1.1680 C.3     1  UNL1        0.4680
@<TRIPOS>BOND
     1     9    11    2
     2     9     7    1
     3    13    11    1
     4    13    14    1
     5    11    10    1
     6     7     6    2
     7    14    12    1
     8    10    12    1
     9    10     8    2
    10     6     8    1
    11     6     5    1
    12     3     2    1
    13     5     1    1
    14     2     1    1
    15     2     4    2
