@<TRIPOS>MOLECULE
/home/cewinharhar/GITHUB/reincatalyze/data/processed/docking_pred/2023-May-31-1727_sub9_nm5_bs15_s42_ex16_mel10_mts10000_k50_ec075_g099_lra3e-4_lrc3e-3/2368d29bb7bbfa5e31d33bb3936e2ea89938fe66_ligand_9.pdbqt
 14 15 0 0 0
SMALL
GASTEIGER

@<TRIPOS>ATOM
      1  C          6.5840    1.1520    1.2810 C.3     1  UNL1        0.0800
      2  C          5.2200    1.6510    1.0280 C.2     1  UNL1        0.1300
      3  C          4.9610    2.1500   -0.3830 C.3     1  UNL1        0.0870
      4  O          4.3030    1.7070    1.7980 O.2     1  UNL1       -0.3000
      5  C          7.5020    1.1520    0.1220 C.3     1  UNL1        0.0430
      6  C          7.7160   -0.1260   -0.5620 C.2     1  UNL1       -0.0440
      7  C          7.6870   -0.2390   -1.9540 C.2     1  UNL1        0.0080
      8  C          7.9840   -1.2620    0.1660 C.2     1  UNL1        0.0540
      9  C          7.9230   -1.4610   -2.5280 C.2     1  UNL1        0.0510
     10  C          8.2220   -2.5000   -0.4480 C.2     1  UNL1        0.1660
     11  C          8.1920   -2.6120   -1.8210 C.2     1  UNL1        0.1650
     12  O          8.5100   -3.7770    0.0180 O.2     1  UNL1       -0.4540
     13  O          8.4600   -3.9410   -2.1710 O.2     1  UNL1       -0.4540
     14  C          9.1100   -4.4990   -1.0470 C.3     1  UNL1        0.4680
@<TRIPOS>BOND
     1     9     7    1
     2     9    11    2
     3    13    11    1
     4    13    14    1
     5     7     6    2
     6    11    10    1
     7    14    12    1
     8     6     5    1
     9     6     8    1
    10    10    12    1
    11    10     8    2
    12     3     2    1
    13     5     1    1
    14     2     1    1
    15     2     4    2
