@<TRIPOS>MOLECULE
/home/cewinharhar/GITHUB/reincatalyze/data/processed/docking_pred/2023-May-31-1727_sub9_nm5_bs15_s42_ex16_mel10_mts10000_k50_ec075_g099_lra3e-4_lrc3e-3/2368d29bb7bbfa5e31d33bb3936e2ea89938fe66_ligand_9.pdbqt
 14 15 0 0 0
SMALL
GASTEIGER

@<TRIPOS>ATOM
      1  C          5.7090    1.2700   -0.3060 C.3     1  UNL1        0.0800
      2  C          5.0980    1.3090    1.0350 C.2     1  UNL1        0.1300
      3  C          5.4410    0.1380    1.9400 C.3     1  UNL1        0.0870
      4  O          4.3720    2.1470    1.4880 O.2     1  UNL1       -0.3000
      5  C          7.1580    0.9830   -0.3530 C.3     1  UNL1        0.0430
      6  C          7.5700   -0.2980   -0.9330 C.2     1  UNL1       -0.0440
      7  C          7.7720   -0.4650   -2.3040 C.2     1  UNL1        0.0080
      8  C          7.7980   -1.3820   -0.1160 C.2     1  UNL1        0.0540
      9  C          8.1830   -1.6850   -2.7740 C.2     1  UNL1        0.0510
     10  C          8.2190   -2.6200   -0.6240 C.2     1  UNL1        0.1660
     11  C          8.4180   -2.7840   -1.9770 C.2     1  UNL1        0.1650
     12  O          8.5190   -3.8520   -0.0560 O.2     1  UNL1       -0.4540
     13  O          8.8320   -4.1010   -2.2150 O.2     1  UNL1       -0.4540
     14  C          9.3310   -4.5640   -0.9780 C.3     1  UNL1        0.4680
@<TRIPOS>BOND
     1     9     7    1
     2     9    11    2
     3     7     6    2
     4    13    11    1
     5    13    14    1
     6    11    10    1
     7    14    12    1
     8     6     5    1
     9     6     8    1
    10    10     8    2
    11    10    12    1
    12     5     1    1
    13     1     2    1
    14     2     4    2
    15     2     3    1
