MODEL 1
REMARK VINA RESULT:      -7.6      0.000      0.000
REMARK SMILES CC(=O)CCc1ccc2c(c1)OCO2
REMARK SMILES IDX 4 1 2 2 1 3 3 4 5 5 6 6 7 7 11 8 8 9 10 10 9 11 12 12 14 13
REMARK SMILES IDX 13 14
REMARK H PARENT
REMARK Flexibility Score: inf
ROOT
ATOM      1  C   UNL     1       5.558   1.907   1.210  1.00  0.00     0.080 C 
ENDROOT
BRANCH   1   2
ATOM      2  C   UNL     1       5.060   0.773   2.010  1.00  0.00     0.130 C 
ATOM      3  C   UNL     1       6.046  -0.365   2.210  1.00  0.00     0.087 C 
ATOM      4  O   UNL     1       3.981   0.648   2.516  1.00  0.00    -0.300 OA
ENDBRANCH   1   2
BRANCH   1   5
ATOM      5  C   UNL     1       5.529   1.730  -0.257  1.00  0.00     0.043 C 
BRANCH   5   6
ATOM      6  C   UNL     1       6.639   0.990  -0.865  1.00  0.00    -0.044 A 
ATOM      7  C   UNL     1       7.970   1.376  -0.698  1.00  0.00     0.008 A 
ATOM      8  C   UNL     1       6.388  -0.141  -1.606  1.00  0.00     0.054 A 
ATOM      9  C   UNL     1       8.959   0.620  -1.273  1.00  0.00     0.051 A 
ATOM     10  C   UNL     1       7.420  -0.896  -2.183  1.00  0.00     0.166 A 
ATOM     11  C   UNL     1       8.734  -0.515  -2.019  1.00  0.00     0.165 A 
ATOM     12  O   UNL     1       7.465  -2.048  -2.958  1.00  0.00    -0.454 OA
ATOM     13  O   UNL     1       9.555  -1.431  -2.689  1.00  0.00    -0.454 OA
ATOM     14  C   UNL     1       8.770  -2.596  -2.840  1.00  0.00     0.468 C 
ENDBRANCH   5   6
ENDBRANCH   1   5
TORSDOF 3
ENDMDL
MODEL 2
REMARK VINA RESULT:      -7.0      1.825      2.290
REMARK SMILES CC(=O)CCc1ccc2c(c1)OCO2
REMARK SMILES IDX 4 1 2 2 1 3 3 4 5 5 6 6 7 7 11 8 8 9 10 10 9 11 12 12 14 13
REMARK SMILES IDX 13 14
REMARK H PARENT
REMARK Flexibility Score: inf
ROOT
ATOM      1  C   UNL     1       5.709   1.270  -0.306  1.00  0.00     0.080 C 
ENDROOT
BRANCH   1   2
ATOM      2  C   UNL     1       5.098   1.309   1.035  1.00  0.00     0.130 C 
ATOM      3  C   UNL     1       5.441   0.138   1.940  1.00  0.00     0.087 C 
ATOM      4  O   UNL     1       4.372   2.147   1.488  1.00  0.00    -0.300 OA
ENDBRANCH   1   2
BRANCH   1   5
ATOM      5  C   UNL     1       7.158   0.983  -0.353  1.00  0.00     0.043 C 
BRANCH   5   6
ATOM      6  C   UNL     1       7.570  -0.298  -0.933  1.00  0.00    -0.044 A 
ATOM      7  C   UNL     1       7.772  -0.465  -2.304  1.00  0.00     0.008 A 
ATOM      8  C   UNL     1       7.798  -1.382  -0.116  1.00  0.00     0.054 A 
ATOM      9  C   UNL     1       8.183  -1.685  -2.774  1.00  0.00     0.051 A 
ATOM     10  C   UNL     1       8.219  -2.620  -0.624  1.00  0.00     0.166 A 
ATOM     11  C   UNL     1       8.418  -2.784  -1.977  1.00  0.00     0.165 A 
ATOM     12  O   UNL     1       8.519  -3.852  -0.056  1.00  0.00    -0.454 OA
ATOM     13  O   UNL     1       8.832  -4.101  -2.215  1.00  0.00    -0.454 OA
ATOM     14  C   UNL     1       9.331  -4.564  -0.978  1.00  0.00     0.468 C 
ENDBRANCH   5   6
ENDBRANCH   1   5
TORSDOF 3
ENDMDL
MODEL 3
REMARK VINA RESULT:      -6.9      1.087      1.171
REMARK SMILES CC(=O)CCc1ccc2c(c1)OCO2
REMARK SMILES IDX 4 1 2 2 1 3 3 4 5 5 6 6 7 7 11 8 8 9 10 10 9 11 12 12 14 13
REMARK SMILES IDX 13 14
REMARK H PARENT
REMARK Flexibility Score: inf
ROOT
ATOM      1  C   UNL     1       6.190   1.243   0.856  1.00  0.00     0.080 C 
ENDROOT
BRANCH   1   2
ATOM      2  C   UNL     1       5.551   0.434   1.910  1.00  0.00     0.130 C 
ATOM      3  C   UNL     1       6.356  -0.763   2.388  1.00  0.00     0.087 C 
ATOM      4  O   UNL     1       4.484   0.608   2.426  1.00  0.00    -0.300 OA
ENDBRANCH   1   2
BRANCH   1   5
ATOM      5  C   UNL     1       5.840   0.893  -0.536  1.00  0.00     0.043 C 
BRANCH   5   6
ATOM      6  C   UNL     1       6.826   0.126  -1.303  1.00  0.00    -0.044 A 
ATOM      7  C   UNL     1       7.770   0.741  -2.126  1.00  0.00     0.008 A 
ATOM      8  C   UNL     1       6.861  -1.246  -1.202  1.00  0.00     0.054 A 
ATOM      9  C   UNL     1       8.681  -0.037  -2.793  1.00  0.00     0.051 A 
ATOM     10  C   UNL     1       7.805  -2.018  -1.896  1.00  0.00     0.166 A 
ATOM     11  C   UNL     1       8.736  -1.411  -2.709  1.00  0.00     0.165 A 
ATOM     12  O   UNL     1       8.071  -3.379  -1.984  1.00  0.00    -0.454 OA
ATOM     13  O   UNL     1       9.551  -2.399  -3.277  1.00  0.00    -0.454 OA
ATOM     14  C   UNL     1       9.408  -3.527  -2.439  1.00  0.00     0.468 C 
ENDBRANCH   5   6
ENDBRANCH   1   5
TORSDOF 3
ENDMDL
MODEL 4
REMARK VINA RESULT:      -6.9      1.832      2.435
REMARK SMILES CC(=O)CCc1ccc2c(c1)OCO2
REMARK SMILES IDX 4 1 2 2 1 3 3 4 5 5 6 6 7 7 11 8 8 9 10 10 9 11 12 12 14 13
REMARK SMILES IDX 13 14
REMARK H PARENT
REMARK Flexibility Score: inf
ROOT
ATOM      1  C   UNL     1       6.584   1.152   1.281  1.00  0.00     0.080 C 
ENDROOT
BRANCH   1   2
ATOM      2  C   UNL     1       5.220   1.651   1.028  1.00  0.00     0.130 C 
ATOM      3  C   UNL     1       4.961   2.150  -0.383  1.00  0.00     0.087 C 
ATOM      4  O   UNL     1       4.303   1.707   1.798  1.00  0.00    -0.300 OA
ENDBRANCH   1   2
BRANCH   1   5
ATOM      5  C   UNL     1       7.502   1.152   0.122  1.00  0.00     0.043 C 
BRANCH   5   6
ATOM      6  C   UNL     1       7.716  -0.126  -0.562  1.00  0.00    -0.044 A 
ATOM      7  C   UNL     1       7.687  -0.239  -1.954  1.00  0.00     0.008 A 
ATOM      8  C   UNL     1       7.984  -1.262   0.166  1.00  0.00     0.054 A 
ATOM      9  C   UNL     1       7.923  -1.461  -2.528  1.00  0.00     0.051 A 
ATOM     10  C   UNL     1       8.222  -2.500  -0.448  1.00  0.00     0.166 A 
ATOM     11  C   UNL     1       8.192  -2.612  -1.821  1.00  0.00     0.165 A 
ATOM     12  O   UNL     1       8.510  -3.777   0.018  1.00  0.00    -0.454 OA
ATOM     13  O   UNL     1       8.460  -3.941  -2.171  1.00  0.00    -0.454 OA
ATOM     14  C   UNL     1       9.110  -4.499  -1.047  1.00  0.00     0.468 C 
ENDBRANCH   5   6
ENDBRANCH   1   5
TORSDOF 3
ENDMDL
MODEL 5
REMARK VINA RESULT:      -6.7      1.087      1.601
REMARK SMILES CC(=O)CCc1ccc2c(c1)OCO2
REMARK SMILES IDX 4 1 2 2 1 3 3 4 5 5 6 6 7 7 11 8 8 9 10 10 9 11 12 12 14 13
REMARK SMILES IDX 13 14
REMARK H PARENT
REMARK Flexibility Score: inf
ROOT
ATOM      1  C   UNL     1       5.349  -0.039   1.985  1.00  0.00     0.080 C 
ENDROOT
BRANCH   1   2
ATOM      2  C   UNL     1       4.406   1.089   1.875  1.00  0.00     0.130 C 
ATOM      3  C   UNL     1       4.750   2.122   0.816  1.00  0.00     0.087 C 
ATOM      4  O   UNL     1       3.412   1.283   2.516  1.00  0.00    -0.300 OA
ENDBRANCH   1   2
BRANCH   1   5
ATOM      5  C   UNL     1       6.775   0.280   1.767  1.00  0.00     0.043 C 
BRANCH   5   6
ATOM      6  C   UNL     1       7.332  -0.007   0.442  1.00  0.00    -0.044 A 
ATOM      7  C   UNL     1       7.914   0.984  -0.350  1.00  0.00     0.008 A 
ATOM      8  C   UNL     1       7.316  -1.292  -0.047  1.00  0.00     0.054 A 
ATOM      9  C   UNL     1       8.440   0.639  -1.569  1.00  0.00     0.051 A 
ATOM     10  C   UNL     1       7.862  -1.617  -1.298  1.00  0.00     0.166 A 
ATOM     11  C   UNL     1       8.436  -0.640  -2.081  1.00  0.00     0.165 A 
ATOM     12  O   UNL     1       7.986  -2.793  -2.029  1.00  0.00    -0.454 OA
ATOM     13  O   UNL     1       8.898  -1.226  -3.266  1.00  0.00    -0.454 OA
ATOM     14  C   UNL     1       9.025  -2.602  -2.977  1.00  0.00     0.468 C 
ENDBRANCH   5   6
ENDBRANCH   1   5
TORSDOF 3
ENDMDL
