@<TRIPOS>MOLECULE
/home/cewinharhar/GITHUB/reincatalyze/data/processed/docking_pred/2023-May-31-1727_sub9_nm5_bs15_s42_ex16_mel10_mts10000_k50_ec075_g099_lra3e-4_lrc3e-3/2368d29bb7bbfa5e31d33bb3936e2ea89938fe66_ligand_9.pdbqt
 14 15 0 0 0
SMALL
GASTEIGER

@<TRIPOS>ATOM
      1  C          6.1900    1.2430    0.8560 C.3     1  UNL1        0.0800
      2  C          5.5510    0.4340    1.9100 C.2     1  UNL1        0.1300
      3  C          6.3560   -0.7630    2.3880 C.3     1  UNL1        0.0870
      4  O          4.4840    0.6080    2.4260 O.2     1  UNL1       -0.3000
      5  C          5.8400    0.8930   -0.5360 C.3     1  UNL1        0.0430
      6  C          6.8260    0.1260   -1.3030 C.2     1  UNL1       -0.0440
      7  C          7.7700    0.7410   -2.1260 C.2     1  UNL1        0.0080
      8  C          6.8610   -1.2460   -1.2020 C.2     1  UNL1        0.0540
      9  C          8.6810   -0.0370   -2.7930 C.2     1  UNL1        0.0510
     10  C          7.8050   -2.0180   -1.8960 C.2     1  UNL1        0.1660
     11  C          8.7360   -1.4110   -2.7090 C.2     1  UNL1        0.1650
     12  O          8.0710   -3.3790   -1.9840 O.2     1  UNL1       -0.4540
     13  O          9.5510   -2.3990   -3.2770 O.2     1  UNL1       -0.4540
     14  C          9.4080   -3.5270   -2.4390 C.3     1  UNL1        0.4680
@<TRIPOS>BOND
     1    13    11    1
     2    13    14    1
     3     9    11    2
     4     9     7    1
     5    11    10    1
     6    14    12    1
     7     7     6    2
     8    12    10    1
     9    10     8    2
    10     6     8    1
    11     6     5    1
    12     5     1    1
    13     1     2    1
    14     2     3    1
    15     2     4    2
