@<TRIPOS>MOLECULE
/home/cewinharhar/GITHUB/reincatalyze/data/processed/docking_pred/2023-May-31-1727_sub9_nm5_bs15_s42_ex16_mel10_mts10000_k50_ec075_g099_lra3e-4_lrc3e-3/24731d809f1a519c36ca3c9a2574e1987901b3bd_ligand_9.pdbqt
 14 15 0 0 0
SMALL
GASTEIGER

@<TRIPOS>ATOM
      1  C          5.5640    1.8930    1.2400 C.3     1  UNL1        0.0800
      2  C          5.0130    0.7540    1.9960 C.2     1  UNL1        0.1300
      3  C          5.9360   -0.4460    2.1290 C.3     1  UNL1        0.0870
      4  O          3.9350    0.6660    2.5110 O.2     1  UNL1       -0.3000
      5  C          5.5560    1.7630   -0.2320 C.3     1  UNL1        0.0430
      6  C          6.6520    1.0070   -0.8450 C.2     1  UNL1       -0.0440
      7  C          7.9890    1.3790   -0.6920 C.2     1  UNL1        0.0080
      8  C          6.3820   -0.1260   -1.5760 C.2     1  UNL1        0.0540
      9  C          8.9650    0.6100   -1.2700 C.2     1  UNL1        0.0510
     10  C          7.4010   -0.8960   -2.1570 C.2     1  UNL1        0.1660
     11  C          8.7200   -0.5280   -2.0070 C.2     1  UNL1        0.1650
     12  O          7.4270   -2.0530   -2.9250 O.2     1  UNL1       -0.4540
     13  O          9.5260   -1.4570   -2.6790 O.2     1  UNL1       -0.4540
     14  C          8.7270   -2.6140   -2.8150 C.3     1  UNL1        0.4680
@<TRIPOS>BOND
     1    12    14    1
     2    12    10    1
     3    14    13    1
     4    13    11    1
     5    10    11    2
     6    10     8    1
     7    11     9    1
     8     8     6    2
     9     9     7    2
    10     6     7    1
    11     6     5    1
    12     5     1    1
    13     1     2    1
    14     2     3    1
    15     2     4    2
