@<TRIPOS>MOLECULE
/home/cewinharhar/GITHUB/reincatalyze/data/processed/docking_pred/2023-May-31-1727_sub9_nm5_bs15_s42_ex16_mel10_mts10000_k50_ec075_g099_lra3e-4_lrc3e-3/25fd2f55844bdf9fb92a90adf0bdb598f7a2ad59_ligand_9.pdbqt
 14 15 0 0 0
SMALL
GASTEIGER

@<TRIPOS>ATOM
      1  C          5.6780    1.8350    1.2960 C.3     1  UNL1        0.0800
      2  C          5.0820    0.6970    2.0190 C.2     1  UNL1        0.1300
      3  C          5.9740   -0.5250    2.1580 C.3     1  UNL1        0.0870
      4  O          3.9880    0.6260    2.5040 O.2     1  UNL1       -0.3000
      5  C          5.6640    1.7490   -0.1790 C.3     1  UNL1        0.0430
      6  C          6.7400    0.9840   -0.8170 C.2     1  UNL1       -0.0440
      7  C          8.0840    1.3320   -0.6770 C.2     1  UNL1        0.0080
      8  C          6.4420   -0.1350   -1.5590 C.2     1  UNL1        0.0540
      9  C          9.0400    0.5550   -1.2780 C.2     1  UNL1        0.0510
     10  C          7.4410   -0.9130   -2.1640 C.2     1  UNL1        0.1660
     11  C          8.7670   -0.5690   -2.0270 C.2     1  UNL1        0.1650
     12  O          7.4370   -2.0600   -2.9490 O.2     1  UNL1       -0.4540
     13  O          9.5490   -1.5010   -2.7220 O.2     1  UNL1       -0.4540
     14  C          8.7290   -2.6430   -2.8630 C.3     1  UNL1        0.4680
@<TRIPOS>BOND
     1    12    14    1
     2    12    10    1
     3    14    13    1
     4    13    11    1
     5    10    11    2
     6    10     8    1
     7    11     9    1
     8     8     6    2
     9     9     7    2
    10     6     7    1
    11     6     5    1
    12     5     1    1
    13     1     2    1
    14     2     3    1
    15     2     4    2
