@<TRIPOS>MOLECULE
/home/cewinharhar/GITHUB/reincatalyze/data/processed/docking_pred/2023-May-31-1727_sub9_nm5_bs15_s42_ex16_mel10_mts10000_k50_ec075_g099_lra3e-4_lrc3e-3/2734134eb9e7fe1a9a1e6734a306fe03ba38cdbb_ligand_9.pdbqt
 14 15 0 0 0
SMALL
GASTEIGER

@<TRIPOS>ATOM
      1  C          5.3930   -0.0650    1.9230 C.3     1  UNL1        0.0800
      2  C          4.4490    1.0640    1.8440 C.2     1  UNL1        0.1300
      3  C          4.7800    2.1170    0.8000 C.3     1  UNL1        0.0870
      4  O          3.4630    1.2460    2.5000 O.2     1  UNL1       -0.3000
      5  C          6.8160    0.2580    1.6880 C.3     1  UNL1        0.0430
      6  C          7.3710   -0.0760    0.3730 C.2     1  UNL1       -0.0440
      7  C          7.8440    0.9000   -0.5050 C.2     1  UNL1        0.0080
      8  C          7.4650   -1.3910   -0.0200 C.2     1  UNL1        0.0540
      9  C          8.3750    0.5130   -1.7080 C.2     1  UNL1        0.0510
     10  C          8.0140   -1.7590   -1.2580 C.2     1  UNL1        0.1660
     11  C          8.4800   -0.7950   -2.1250 C.2     1  UNL1        0.1650
     12  O          8.2320   -2.9700   -1.9030 O.2     1  UNL1       -0.4540
     13  O          8.9710   -1.4250   -3.2760 O.2     1  UNL1       -0.4540
     14  C          9.2300   -2.7590   -2.8900 C.3     1  UNL1        0.4680
@<TRIPOS>BOND
     1    13    14    1
     2    13    11    1
     3    14    12    1
     4    11     9    2
     5    11    10    1
     6    12    10    1
     7     9     7    1
     8    10     8    2
     9     7     6    2
    10     8     6    1
    11     6     5    1
    12     3     2    1
    13     5     1    1
    14     2     1    1
    15     2     4    2
