MODEL 1
REMARK VINA RESULT:      -7.6      0.000      0.000
REMARK SMILES CC(=O)CCc1ccc2c(c1)OCO2
REMARK SMILES IDX 4 1 2 2 1 3 3 4 5 5 6 6 7 7 11 8 8 9 10 10 9 11 12 12 14 13
REMARK SMILES IDX 13 14
REMARK H PARENT
REMARK Flexibility Score: inf
ROOT
ATOM      1  C   UNL     1       5.569   1.893   1.241  1.00  0.00     0.080 C 
ENDROOT
BRANCH   1   2
ATOM      2  C   UNL     1       5.013   0.758   1.999  1.00  0.00     0.130 C 
ATOM      3  C   UNL     1       5.939  -0.437   2.153  1.00  0.00     0.087 C 
ATOM      4  O   UNL     1       3.929   0.669   2.502  1.00  0.00    -0.300 OA
ENDBRANCH   1   2
BRANCH   1   5
ATOM      5  C   UNL     1       5.558   1.761  -0.231  1.00  0.00     0.043 C 
BRANCH   5   6
ATOM      6  C   UNL     1       6.651   1.003  -0.844  1.00  0.00    -0.044 A 
ATOM      7  C   UNL     1       7.989   1.376  -0.698  1.00  0.00     0.008 A 
ATOM      8  C   UNL     1       6.380  -0.134  -1.569  1.00  0.00     0.054 A 
ATOM      9  C   UNL     1       8.963   0.605  -1.277  1.00  0.00     0.051 A 
ATOM     10  C   UNL     1       7.397  -0.905  -2.151  1.00  0.00     0.166 A 
ATOM     11  C   UNL     1       8.716  -0.537  -2.007  1.00  0.00     0.165 A 
ATOM     12  O   UNL     1       7.420  -2.066  -2.914  1.00  0.00    -0.454 OA
ATOM     13  O   UNL     1       9.520  -1.468  -2.678  1.00  0.00    -0.454 OA
ATOM     14  C   UNL     1       8.721  -2.626  -2.806  1.00  0.00     0.468 C 
ENDBRANCH   5   6
ENDBRANCH   1   5
TORSDOF 3
ENDMDL
MODEL 2
REMARK VINA RESULT:      -7.0      1.783      2.240
REMARK SMILES CC(=O)CCc1ccc2c(c1)OCO2
REMARK SMILES IDX 4 1 2 2 1 3 3 4 5 5 6 6 7 7 11 8 8 9 10 10 9 11 12 12 14 13
REMARK SMILES IDX 13 14
REMARK H PARENT
REMARK Flexibility Score: inf
ROOT
ATOM      1  C   UNL     1       5.794   1.520  -0.196  1.00  0.00     0.080 C 
ENDROOT
BRANCH   1   2
ATOM      2  C   UNL     1       5.015   1.379   1.047  1.00  0.00     0.130 C 
ATOM      3  C   UNL     1       5.388   0.190   1.917  1.00  0.00     0.087 C 
ATOM      4  O   UNL     1       4.132   2.084   1.447  1.00  0.00    -0.300 OA
ENDBRANCH   1   2
BRANCH   1   5
ATOM      5  C   UNL     1       7.199   1.064  -0.139  1.00  0.00     0.043 C 
BRANCH   5   6
ATOM      6  C   UNL     1       7.513  -0.220  -0.773  1.00  0.00    -0.044 A 
ATOM      7  C   UNL     1       7.511  -0.386  -2.159  1.00  0.00     0.008 A 
ATOM      8  C   UNL     1       7.850  -1.305   0.002  1.00  0.00     0.054 A 
ATOM      9  C   UNL     1       7.841  -1.608  -2.684  1.00  0.00     0.051 A 
ATOM     10  C   UNL     1       8.185  -2.545  -0.563  1.00  0.00     0.166 A 
ATOM     11  C   UNL     1       8.182  -2.709  -1.930  1.00  0.00     0.165 A 
ATOM     12  O   UNL     1       8.556  -3.780  -0.045  1.00  0.00    -0.454 OA
ATOM     13  O   UNL     1       8.549  -4.029  -2.226  1.00  0.00    -0.454 OA
ATOM     14  C   UNL     1       9.220  -4.497  -1.075  1.00  0.00     0.468 C 
ENDBRANCH   5   6
ENDBRANCH   1   5
TORSDOF 3
ENDMDL
MODEL 3
REMARK VINA RESULT:      -7.0      1.100      1.197
REMARK SMILES CC(=O)CCc1ccc2c(c1)OCO2
REMARK SMILES IDX 4 1 2 2 1 3 3 4 5 5 6 6 7 7 11 8 8 9 10 10 9 11 12 12 14 13
REMARK SMILES IDX 13 14
REMARK H PARENT
REMARK Flexibility Score: inf
ROOT
ATOM      1  C   UNL     1       6.237   1.185   0.900  1.00  0.00     0.080 C 
ENDROOT
BRANCH   1   2
ATOM      2  C   UNL     1       5.559   0.369   1.924  1.00  0.00     0.130 C 
ATOM      3  C   UNL     1       6.333  -0.849   2.401  1.00  0.00     0.087 C 
ATOM      4  O   UNL     1       4.483   0.552   2.417  1.00  0.00    -0.300 OA
ENDBRANCH   1   2
BRANCH   1   5
ATOM      5  C   UNL     1       5.892   0.884  -0.505  1.00  0.00     0.043 C 
BRANCH   5   6
ATOM      6  C   UNL     1       6.865   0.111  -1.283  1.00  0.00    -0.044 A 
ATOM      7  C   UNL     1       7.794   0.720  -2.128  1.00  0.00     0.008 A 
ATOM      8  C   UNL     1       6.901  -1.260  -1.173  1.00  0.00     0.054 A 
ATOM      9  C   UNL     1       8.693  -0.064  -2.805  1.00  0.00     0.051 A 
ATOM     10  C   UNL     1       7.833  -2.037  -1.877  1.00  0.00     0.166 A 
ATOM     11  C   UNL     1       8.749  -1.437  -2.712  1.00  0.00     0.165 A 
ATOM     12  O   UNL     1       8.097  -3.399  -1.960  1.00  0.00    -0.454 OA
ATOM     13  O   UNL     1       9.553  -2.429  -3.287  1.00  0.00    -0.454 OA
ATOM     14  C   UNL     1       9.426  -3.551  -2.438  1.00  0.00     0.468 C 
ENDBRANCH   5   6
ENDBRANCH   1   5
TORSDOF 3
ENDMDL
MODEL 4
REMARK VINA RESULT:      -6.7      1.108      1.601
REMARK SMILES CC(=O)CCc1ccc2c(c1)OCO2
REMARK SMILES IDX 4 1 2 2 1 3 3 4 5 5 6 6 7 7 11 8 8 9 10 10 9 11 12 12 14 13
REMARK SMILES IDX 13 14
REMARK H PARENT
REMARK Flexibility Score: inf
ROOT
ATOM      1  C   UNL     1       5.332  -0.011   1.995  1.00  0.00     0.080 C 
ENDROOT
BRANCH   1   2
ATOM      2  C   UNL     1       4.375   1.103   1.869  1.00  0.00     0.130 C 
ATOM      3  C   UNL     1       4.703   2.124   0.794  1.00  0.00     0.087 C 
ATOM      4  O   UNL     1       3.380   1.294   2.510  1.00  0.00    -0.300 OA
ENDBRANCH   1   2
BRANCH   1   5
ATOM      5  C   UNL     1       6.753   0.322   1.762  1.00  0.00     0.043 C 
BRANCH   5   6
ATOM      6  C   UNL     1       7.309   0.006   0.443  1.00  0.00    -0.044 A 
ATOM      7  C   UNL     1       7.856   0.986  -0.387  1.00  0.00     0.008 A 
ATOM      8  C   UNL     1       7.328  -1.295  -0.003  1.00  0.00     0.054 A 
ATOM      9  C   UNL     1       8.383   0.615  -1.597  1.00  0.00     0.051 A 
ATOM     10  C   UNL     1       7.874  -1.646  -1.246  1.00  0.00     0.166 A 
ATOM     11  C   UNL     1       8.413  -0.680  -2.066  1.00  0.00     0.165 A 
ATOM     12  O   UNL     1       8.027  -2.842  -1.938  1.00  0.00    -0.454 OA
ATOM     13  O   UNL     1       8.884  -1.292  -3.235  1.00  0.00    -0.454 OA
ATOM     14  C   UNL     1       9.054  -2.654  -2.901  1.00  0.00     0.468 C 
ENDBRANCH   5   6
ENDBRANCH   1   5
TORSDOF 3
ENDMDL
MODEL 5
REMARK VINA RESULT:      -6.7      1.951      2.521
REMARK SMILES CC(=O)CCc1ccc2c(c1)OCO2
REMARK SMILES IDX 4 1 2 2 1 3 3 4 5 5 6 6 7 7 11 8 8 9 10 10 9 11 12 12 14 13
REMARK SMILES IDX 13 14
REMARK H PARENT
REMARK Flexibility Score: inf
ROOT
ATOM      1  C   UNL     1       5.608   0.013   2.036  1.00  0.00     0.080 C 
ENDROOT
BRANCH   1   2
ATOM      2  C   UNL     1       4.641   1.102   1.810  1.00  0.00     0.130 C 
ATOM      3  C   UNL     1       4.986   2.053   0.676  1.00  0.00     0.087 C 
ATOM      4  O   UNL     1       3.626   1.322   2.409  1.00  0.00    -0.300 OA
ENDBRANCH   1   2
BRANCH   1   5
ATOM      5  C   UNL     1       6.940   0.186   1.420  1.00  0.00     0.043 C 
BRANCH   5   6
ATOM      6  C   UNL     1       7.336  -0.783   0.395  1.00  0.00    -0.044 A 
ATOM      7  C   UNL     1       7.246  -0.501  -0.970  1.00  0.00     0.008 A 
ATOM      8  C   UNL     1       7.840  -2.008   0.763  1.00  0.00     0.054 A 
ATOM      9  C   UNL     1       7.660  -1.445  -1.874  1.00  0.00     0.051 A 
ATOM     10  C   UNL     1       8.257  -2.956  -0.184  1.00  0.00     0.166 A 
ATOM     11  C   UNL     1       8.168  -2.678  -1.530  1.00  0.00     0.165 A 
ATOM     12  O   UNL     1       8.791  -4.236  -0.107  1.00  0.00    -0.454 OA
ATOM     13  O   UNL     1       8.645  -3.781  -2.250  1.00  0.00    -0.454 OA
ATOM     14  C   UNL     1       9.446  -4.504  -1.339  1.00  0.00     0.468 C 
ENDBRANCH   5   6
ENDBRANCH   1   5
TORSDOF 3
ENDMDL
