@<TRIPOS>MOLECULE
/home/cewinharhar/GITHUB/reincatalyze/data/processed/docking_pred/2023-May-31-1727_sub9_nm5_bs15_s42_ex16_mel10_mts10000_k50_ec075_g099_lra3e-4_lrc3e-3/28bcf310594aad61263dbac699db9f8519977f09_ligand_9.pdbqt
 14 15 0 0 0
SMALL
GASTEIGER

@<TRIPOS>ATOM
      1  C          5.3320   -0.0110    1.9950 C.3     1  UNL1        0.0800
      2  C          4.3750    1.1030    1.8690 C.2     1  UNL1        0.1300
      3  C          4.7030    2.1240    0.7940 C.3     1  UNL1        0.0870
      4  O          3.3800    1.2940    2.5100 O.2     1  UNL1       -0.3000
      5  C          6.7530    0.3220    1.7620 C.3     1  UNL1        0.0430
      6  C          7.3090    0.0060    0.4430 C.2     1  UNL1       -0.0440
      7  C          7.8560    0.9860   -0.3870 C.2     1  UNL1        0.0080
      8  C          7.3280   -1.2950   -0.0030 C.2     1  UNL1        0.0540
      9  C          8.3830    0.6150   -1.5970 C.2     1  UNL1        0.0510
     10  C          7.8740   -1.6460   -1.2460 C.2     1  UNL1        0.1660
     11  C          8.4130   -0.6800   -2.0660 C.2     1  UNL1        0.1650
     12  O          8.0270   -2.8420   -1.9380 O.2     1  UNL1       -0.4540
     13  O          8.8840   -1.2920   -3.2350 O.2     1  UNL1       -0.4540
     14  C          9.0540   -2.6540   -2.9010 C.3     1  UNL1        0.4680
@<TRIPOS>BOND
     1    13    14    1
     2    13    11    1
     3    14    12    1
     4    11     9    2
     5    11    10    1
     6    12    10    1
     7     9     7    1
     8    10     8    2
     9     7     6    2
    10     8     6    1
    11     6     5    1
    12     3     2    1
    13     5     1    1
    14     2     1    1
    15     2     4    2
