@<TRIPOS>MOLECULE
/home/cewinharhar/GITHUB/reincatalyze/data/processed/docking_pred/2023-May-31-1727_sub9_nm5_bs15_s42_ex16_mel10_mts10000_k50_ec075_g099_lra3e-4_lrc3e-3/28bcf310594aad61263dbac699db9f8519977f09_ligand_9.pdbqt
 14 15 0 0 0
SMALL
GASTEIGER

@<TRIPOS>ATOM
      1  C          5.7940    1.5200   -0.1960 C.3     1  UNL1        0.0800
      2  C          5.0150    1.3790    1.0470 C.2     1  UNL1        0.1300
      3  C          5.3880    0.1900    1.9170 C.3     1  UNL1        0.0870
      4  O          4.1320    2.0840    1.4470 O.2     1  UNL1       -0.3000
      5  C          7.1990    1.0640   -0.1390 C.3     1  UNL1        0.0430
      6  C          7.5130   -0.2200   -0.7730 C.2     1  UNL1       -0.0440
      7  C          7.5110   -0.3860   -2.1590 C.2     1  UNL1        0.0080
      8  C          7.8500   -1.3050    0.0020 C.2     1  UNL1        0.0540
      9  C          7.8410   -1.6080   -2.6840 C.2     1  UNL1        0.0510
     10  C          8.1850   -2.5450   -0.5630 C.2     1  UNL1        0.1660
     11  C          8.1820   -2.7090   -1.9300 C.2     1  UNL1        0.1650
     12  O          8.5560   -3.7800   -0.0450 O.2     1  UNL1       -0.4540
     13  O          8.5490   -4.0290   -2.2260 O.2     1  UNL1       -0.4540
     14  C          9.2200   -4.4970   -1.0750 C.3     1  UNL1        0.4680
@<TRIPOS>BOND
     1     9     7    1
     2     9    11    2
     3    13    11    1
     4    13    14    1
     5     7     6    2
     6    11    10    1
     7    14    12    1
     8     6     5    1
     9     6     8    1
    10    10    12    1
    11    10     8    2
    12     1     5    1
    13     1     2    1
    14     2     4    2
    15     2     3    1
