@<TRIPOS>MOLECULE
/home/cewinharhar/GITHUB/reincatalyze/data/processed/docking_pred/2023-May-31-1727_sub9_nm5_bs15_s42_ex16_mel10_mts10000_k50_ec075_g099_lra3e-4_lrc3e-3/28bcf310594aad61263dbac699db9f8519977f09_ligand_9.pdbqt
 14 15 0 0 0
SMALL
GASTEIGER

@<TRIPOS>ATOM
      1  C          5.5690    1.8930    1.2410 C.3     1  UNL1        0.0800
      2  C          5.0130    0.7580    1.9990 C.2     1  UNL1        0.1300
      3  C          5.9390   -0.4370    2.1530 C.3     1  UNL1        0.0870
      4  O          3.9290    0.6690    2.5020 O.2     1  UNL1       -0.3000
      5  C          5.5580    1.7610   -0.2310 C.3     1  UNL1        0.0430
      6  C          6.6510    1.0030   -0.8440 C.2     1  UNL1       -0.0440
      7  C          7.9890    1.3760   -0.6980 C.2     1  UNL1        0.0080
      8  C          6.3800   -0.1340   -1.5690 C.2     1  UNL1        0.0540
      9  C          8.9630    0.6050   -1.2770 C.2     1  UNL1        0.0510
     10  C          7.3970   -0.9050   -2.1510 C.2     1  UNL1        0.1660
     11  C          8.7160   -0.5370   -2.0070 C.2     1  UNL1        0.1650
     12  O          7.4200   -2.0660   -2.9140 O.2     1  UNL1       -0.4540
     13  O          9.5200   -1.4680   -2.6780 O.2     1  UNL1       -0.4540
     14  C          8.7210   -2.6260   -2.8060 C.3     1  UNL1        0.4680
@<TRIPOS>BOND
     1    12    14    1
     2    12    10    1
     3    14    13    1
     4    13    11    1
     5    10    11    2
     6    10     8    1
     7    11     9    1
     8     8     6    2
     9     9     7    2
    10     6     7    1
    11     6     5    1
    12     5     1    1
    13     1     2    1
    14     2     3    1
    15     2     4    2
