MODEL 1
REMARK VINA RESULT:      -7.7      0.000      0.000
REMARK SMILES CC(=O)CCc1ccc2c(c1)OCO2
REMARK SMILES IDX 4 1 2 2 1 3 3 4 5 5 6 6 7 7 11 8 8 9 10 10 9 11 12 12 14 13
REMARK SMILES IDX 13 14
REMARK H PARENT
REMARK Flexibility Score: inf
ROOT
ATOM      1  C   UNL     1       5.529   1.886   1.229  1.00  0.00     0.080 C 
ENDROOT
BRANCH   1   2
ATOM      2  C   UNL     1       4.993   0.749   2.000  1.00  0.00     0.130 C 
ATOM      3  C   UNL     1       5.911  -0.458   2.101  1.00  0.00     0.087 C 
ATOM      4  O   UNL     1       3.932   0.667   2.549  1.00  0.00    -0.300 OA
ENDBRANCH   1   2
BRANCH   1   5
ATOM      5  C   UNL     1       5.518   1.738  -0.242  1.00  0.00     0.043 C 
BRANCH   5   6
ATOM      6  C   UNL     1       6.628   0.999  -0.849  1.00  0.00    -0.044 A 
ATOM      7  C   UNL     1       7.959   1.380  -0.676  1.00  0.00     0.008 A 
ATOM      8  C   UNL     1       6.377  -0.127  -1.598  1.00  0.00     0.054 A 
ATOM      9  C   UNL     1       8.949   0.626  -1.251  1.00  0.00     0.051 A 
ATOM     10  C   UNL     1       7.409  -0.881  -2.176  1.00  0.00     0.166 A 
ATOM     11  C   UNL     1       8.723  -0.505  -2.005  1.00  0.00     0.165 A 
ATOM     12  O   UNL     1       7.454  -2.029  -2.957  1.00  0.00    -0.454 OA
ATOM     13  O   UNL     1       9.545  -1.419  -2.677  1.00  0.00    -0.454 OA
ATOM     14  C   UNL     1       8.757  -2.580  -2.837  1.00  0.00     0.468 C 
ENDBRANCH   5   6
ENDBRANCH   1   5
TORSDOF 3
ENDMDL
MODEL 2
REMARK VINA RESULT:      -7.0      1.857      2.348
REMARK SMILES CC(=O)CCc1ccc2c(c1)OCO2
REMARK SMILES IDX 4 1 2 2 1 3 3 4 5 5 6 6 7 7 11 8 8 9 10 10 9 11 12 12 14 13
REMARK SMILES IDX 13 14
REMARK H PARENT
REMARK Flexibility Score: inf
ROOT
ATOM      1  C   UNL     1       5.884   1.376  -0.264  1.00  0.00     0.080 C 
ENDROOT
BRANCH   1   2
ATOM      2  C   UNL     1       5.209   1.324   1.045  1.00  0.00     0.130 C 
ATOM      3  C   UNL     1       5.459   0.063   1.855  1.00  0.00     0.087 C 
ATOM      4  O   UNL     1       4.494   2.150   1.538  1.00  0.00    -0.300 OA
ENDBRANCH   1   2
BRANCH   1   5
ATOM      5  C   UNL     1       7.309   0.984  -0.279  1.00  0.00     0.043 C 
BRANCH   5   6
ATOM      6  C   UNL     1       7.641  -0.315  -0.870  1.00  0.00    -0.044 A 
ATOM      7  C   UNL     1       7.710  -0.508  -2.250  1.00  0.00     0.008 A 
ATOM      8  C   UNL     1       7.925  -1.388  -0.058  1.00  0.00     0.054 A 
ATOM      9  C   UNL     1       8.053  -1.744  -2.734  1.00  0.00     0.051 A 
ATOM     10  C   UNL     1       8.274  -2.643  -0.580  1.00  0.00     0.166 A 
ATOM     11  C   UNL     1       8.341  -2.834  -1.943  1.00  0.00     0.165 A 
ATOM     12  O   UNL     1       8.603  -3.871  -0.020  1.00  0.00    -0.454 OA
ATOM     13  O   UNL     1       8.707  -4.163  -2.193  1.00  0.00    -0.454 OA
ATOM     14  C   UNL     1       9.312  -4.615  -1.000  1.00  0.00     0.468 C 
ENDBRANCH   5   6
ENDBRANCH   1   5
TORSDOF 3
ENDMDL
MODEL 3
REMARK VINA RESULT:      -7.0      1.000      1.075
REMARK SMILES CC(=O)CCc1ccc2c(c1)OCO2
REMARK SMILES IDX 4 1 2 2 1 3 3 4 5 5 6 6 7 7 11 8 8 9 10 10 9 11 12 12 14 13
REMARK SMILES IDX 13 14
REMARK H PARENT
REMARK Flexibility Score: inf
ROOT
ATOM      1  C   UNL     1       6.187   1.288   0.926  1.00  0.00     0.080 C 
ENDROOT
BRANCH   1   2
ATOM      2  C   UNL     1       5.521   0.434   1.925  1.00  0.00     0.130 C 
ATOM      3  C   UNL     1       6.304  -0.795   2.356  1.00  0.00     0.087 C 
ATOM      4  O   UNL     1       4.446   0.595   2.431  1.00  0.00    -0.300 OA
ENDBRANCH   1   2
BRANCH   1   5
ATOM      5  C   UNL     1       5.894   0.984  -0.491  1.00  0.00     0.043 C 
BRANCH   5   6
ATOM      6  C   UNL     1       6.894   0.210  -1.231  1.00  0.00    -0.044 A 
ATOM      7  C   UNL     1       7.957   0.816  -1.902  1.00  0.00     0.008 A 
ATOM      8  C   UNL     1       6.821  -1.164  -1.257  1.00  0.00     0.054 A 
ATOM      9  C   UNL     1       8.872   0.028  -2.551  1.00  0.00     0.051 A 
ATOM     10  C   UNL     1       7.771  -1.946  -1.930  1.00  0.00     0.166 A 
ATOM     11  C   UNL     1       8.820  -1.347  -2.593  1.00  0.00     0.165 A 
ATOM     12  O   UNL     1       7.947  -3.311  -2.121  1.00  0.00    -0.454 OA
ATOM     13  O   UNL     1       9.614  -2.345  -3.174  1.00  0.00    -0.454 OA
ATOM     14  C   UNL     1       9.309  -3.526  -2.462  1.00  0.00     0.468 C 
ENDBRANCH   5   6
ENDBRANCH   1   5
TORSDOF 3
ENDMDL
MODEL 4
REMARK VINA RESULT:      -6.8      1.970      2.526
REMARK SMILES CC(=O)CCc1ccc2c(c1)OCO2
REMARK SMILES IDX 4 1 2 2 1 3 3 4 5 5 6 6 7 7 11 8 8 9 10 10 9 11 12 12 14 13
REMARK SMILES IDX 13 14
REMARK H PARENT
REMARK Flexibility Score: inf
ROOT
ATOM      1  C   UNL     1       5.658   0.031   2.002  1.00  0.00     0.080 C 
ENDROOT
BRANCH   1   2
ATOM      2  C   UNL     1       4.701   1.116   1.721  1.00  0.00     0.130 C 
ATOM      3  C   UNL     1       5.084   2.041   0.578  1.00  0.00     0.087 C 
ATOM      4  O   UNL     1       3.668   1.349   2.282  1.00  0.00    -0.300 OA
ENDBRANCH   1   2
BRANCH   1   5
ATOM      5  C   UNL     1       7.005   0.181   1.412  1.00  0.00     0.043 C 
BRANCH   5   6
ATOM      6  C   UNL     1       7.395  -0.781   0.378  1.00  0.00    -0.044 A 
ATOM      7  C   UNL     1       7.358  -0.468  -0.982  1.00  0.00     0.008 A 
ATOM      8  C   UNL     1       7.842  -2.032   0.735  1.00  0.00     0.054 A 
ATOM      9  C   UNL     1       7.763  -1.408  -1.894  1.00  0.00     0.051 A 
ATOM     10  C   UNL     1       8.251  -2.975  -0.220  1.00  0.00     0.166 A 
ATOM     11  C   UNL     1       8.214  -2.666  -1.562  1.00  0.00     0.165 A 
ATOM     12  O   UNL     1       8.734  -4.277  -0.155  1.00  0.00    -0.454 OA
ATOM     13  O   UNL     1       8.670  -3.772  -2.291  1.00  0.00    -0.454 OA
ATOM     14  C   UNL     1       9.416  -4.543  -1.372  1.00  0.00     0.468 C 
ENDBRANCH   5   6
ENDBRANCH   1   5
TORSDOF 3
ENDMDL
MODEL 5
REMARK VINA RESULT:      -6.8      1.101      1.599
REMARK SMILES CC(=O)CCc1ccc2c(c1)OCO2
REMARK SMILES IDX 4 1 2 2 1 3 3 4 5 5 6 6 7 7 11 8 8 9 10 10 9 11 12 12 14 13
REMARK SMILES IDX 13 14
REMARK H PARENT
REMARK Flexibility Score: inf
ROOT
ATOM      1  C   UNL     1       5.335  -0.022   1.989  1.00  0.00     0.080 C 
ENDROOT
BRANCH   1   2
ATOM      2  C   UNL     1       4.388   1.101   1.869  1.00  0.00     0.130 C 
ATOM      3  C   UNL     1       4.733   2.132   0.807  1.00  0.00     0.087 C 
ATOM      4  O   UNL     1       3.390   1.293   2.504  1.00  0.00    -0.300 OA
ENDBRANCH   1   2
BRANCH   1   5
ATOM      5  C   UNL     1       6.760   0.300   1.762  1.00  0.00     0.043 C 
BRANCH   5   6
ATOM      6  C   UNL     1       7.312  -0.000   0.438  1.00  0.00    -0.044 A 
ATOM      7  C   UNL     1       7.870   0.987  -0.377  1.00  0.00     0.008 A 
ATOM      8  C   UNL     1       7.317  -1.294  -0.029  1.00  0.00     0.054 A 
ATOM      9  C   UNL     1       8.393   0.630  -1.592  1.00  0.00     0.051 A 
ATOM     10  C   UNL     1       7.859  -1.631  -1.278  1.00  0.00     0.166 A 
ATOM     11  C   UNL     1       8.410  -0.657  -2.082  1.00  0.00     0.165 A 
ATOM     12  O   UNL     1       7.999  -2.817  -1.989  1.00  0.00    -0.454 OA
ATOM     13  O   UNL     1       8.874  -1.256  -3.261  1.00  0.00    -0.454 OA
ATOM     14  C   UNL     1       9.028  -2.625  -2.948  1.00  0.00     0.468 C 
ENDBRANCH   5   6
ENDBRANCH   1   5
TORSDOF 3
ENDMDL
