@<TRIPOS>MOLECULE
/home/cewinharhar/GITHUB/reincatalyze/data/processed/docking_pred/2023-May-31-1727_sub9_nm5_bs15_s42_ex16_mel10_mts10000_k50_ec075_g099_lra3e-4_lrc3e-3/2b606219d5526e18d91eeb9dfd7a568ae4147191_ligand_9.pdbqt
 14 15 0 0 0
SMALL
GASTEIGER

@<TRIPOS>ATOM
      1  C          6.1870    1.2880    0.9260 C.3     1  UNL1        0.0800
      2  C          5.5210    0.4340    1.9250 C.2     1  UNL1        0.1300
      3  C          6.3040   -0.7950    2.3560 C.3     1  UNL1        0.0870
      4  O          4.4460    0.5950    2.4310 O.2     1  UNL1       -0.3000
      5  C          5.8940    0.9840   -0.4910 C.3     1  UNL1        0.0430
      6  C          6.8940    0.2100   -1.2310 C.2     1  UNL1       -0.0440
      7  C          7.9570    0.8160   -1.9020 C.2     1  UNL1        0.0080
      8  C          6.8210   -1.1640   -1.2570 C.2     1  UNL1        0.0540
      9  C          8.8720    0.0280   -2.5510 C.2     1  UNL1        0.0510
     10  C          7.7710   -1.9460   -1.9300 C.2     1  UNL1        0.1660
     11  C          8.8200   -1.3470   -2.5930 C.2     1  UNL1        0.1650
     12  O          7.9470   -3.3110   -2.1210 O.2     1  UNL1       -0.4540
     13  O          9.6140   -2.3450   -3.1740 O.2     1  UNL1       -0.4540
     14  C          9.3090   -3.5260   -2.4620 C.3     1  UNL1        0.4680
@<TRIPOS>BOND
     1    13    11    1
     2    13    14    1
     3    11     9    2
     4    11    10    1
     5     9     7    1
     6    14    12    1
     7    12    10    1
     8    10     8    2
     9     7     6    2
    10     8     6    1
    11     6     5    1
    12     5     1    1
    13     1     2    1
    14     2     3    1
    15     2     4    2
