MODEL 1
REMARK VINA RESULT:      -7.6      0.000      0.000
REMARK SMILES CC(=O)CCc1ccc2c(c1)OCO2
REMARK SMILES IDX 4 1 2 2 1 3 3 4 5 5 6 6 7 7 11 8 8 9 10 10 9 11 12 12 14 13
REMARK SMILES IDX 13 14
REMARK H PARENT
REMARK Flexibility Score: inf
ROOT
ATOM      1  C   UNL     1       5.662   1.862   1.279  1.00  0.00     0.080 C 
ENDROOT
BRANCH   1   2
ATOM      2  C   UNL     1       5.082   0.721   2.011  1.00  0.00     0.130 C 
ATOM      3  C   UNL     1       6.004  -0.472   2.191  1.00  0.00     0.087 C 
ATOM      4  O   UNL     1       3.981   0.628   2.474  1.00  0.00    -0.300 OA
ENDBRANCH   1   2
BRANCH   1   5
ATOM      5  C   UNL     1       5.651   1.764  -0.195  1.00  0.00     0.043 C 
BRANCH   5   6
ATOM      6  C   UNL     1       6.725   0.991  -0.824  1.00  0.00    -0.044 A 
ATOM      7  C   UNL     1       8.070   1.334  -0.682  1.00  0.00     0.008 A 
ATOM      8  C   UNL     1       6.425  -0.131  -1.562  1.00  0.00     0.054 A 
ATOM      9  C   UNL     1       9.025   0.550  -1.276  1.00  0.00     0.051 A 
ATOM     10  C   UNL     1       7.422  -0.916  -2.159  1.00  0.00     0.166 A 
ATOM     11  C   UNL     1       8.750  -0.577  -2.019  1.00  0.00     0.165 A 
ATOM     12  O   UNL     1       7.417  -2.068  -2.936  1.00  0.00    -0.454 OA
ATOM     13  O   UNL     1       9.530  -1.517  -2.705  1.00  0.00    -0.454 OA
ATOM     14  C   UNL     1       8.706  -2.656  -2.843  1.00  0.00     0.468 C 
ENDBRANCH   5   6
ENDBRANCH   1   5
TORSDOF 3
ENDMDL
MODEL 2
REMARK VINA RESULT:      -6.9      1.846      2.322
REMARK SMILES CC(=O)CCc1ccc2c(c1)OCO2
REMARK SMILES IDX 4 1 2 2 1 3 3 4 5 5 6 6 7 7 11 8 8 9 10 10 9 11 12 12 14 13
REMARK SMILES IDX 13 14
REMARK H PARENT
REMARK Flexibility Score: inf
ROOT
ATOM      1  C   UNL     1       5.894   1.363  -0.272  1.00  0.00     0.080 C 
ENDROOT
BRANCH   1   2
ATOM      2  C   UNL     1       5.254   1.317   1.055  1.00  0.00     0.130 C 
ATOM      3  C   UNL     1       5.517   0.056   1.861  1.00  0.00     0.087 C 
ATOM      4  O   UNL     1       4.560   2.150   1.566  1.00  0.00    -0.300 OA
ENDBRANCH   1   2
BRANCH   1   5
ATOM      5  C   UNL     1       7.321   0.984  -0.321  1.00  0.00     0.043 C 
BRANCH   5   6
ATOM      6  C   UNL     1       7.649  -0.323  -0.897  1.00  0.00    -0.044 A 
ATOM      7  C   UNL     1       7.719  -0.532  -2.275  1.00  0.00     0.008 A 
ATOM      8  C   UNL     1       7.928  -1.388  -0.073  1.00  0.00     0.054 A 
ATOM      9  C   UNL     1       8.058  -1.775  -2.745  1.00  0.00     0.051 A 
ATOM     10  C   UNL     1       8.273  -2.650  -0.581  1.00  0.00     0.166 A 
ATOM     11  C   UNL     1       8.341  -2.857  -1.941  1.00  0.00     0.165 A 
ATOM     12  O   UNL     1       8.597  -3.873  -0.006  1.00  0.00    -0.454 OA
ATOM     13  O   UNL     1       8.702  -4.189  -2.176  1.00  0.00    -0.454 OA
ATOM     14  C   UNL     1       9.305  -4.630  -0.977  1.00  0.00     0.468 C 
ENDBRANCH   5   6
ENDBRANCH   1   5
TORSDOF 3
ENDMDL
MODEL 3
REMARK VINA RESULT:      -6.9      1.034      1.110
REMARK SMILES CC(=O)CCc1ccc2c(c1)OCO2
REMARK SMILES IDX 4 1 2 2 1 3 3 4 5 5 6 6 7 7 11 8 8 9 10 10 9 11 12 12 14 13
REMARK SMILES IDX 13 14
REMARK H PARENT
REMARK Flexibility Score: inf
ROOT
ATOM      1  C   UNL     1       6.208   1.219   0.866  1.00  0.00     0.080 C 
ENDROOT
BRANCH   1   2
ATOM      2  C   UNL     1       5.544   0.396   1.893  1.00  0.00     0.130 C 
ATOM      3  C   UNL     1       6.322  -0.827   2.349  1.00  0.00     0.087 C 
ATOM      4  O   UNL     1       4.475   0.577   2.403  1.00  0.00    -0.300 OA
ENDBRANCH   1   2
BRANCH   1   5
ATOM      5  C   UNL     1       5.889   0.890  -0.539  1.00  0.00     0.043 C 
BRANCH   5   6
ATOM      6  C   UNL     1       6.894   0.140  -1.297  1.00  0.00    -0.044 A 
ATOM      7  C   UNL     1       7.899   0.774  -2.030  1.00  0.00     0.008 A 
ATOM      8  C   UNL     1       6.885  -1.235  -1.280  1.00  0.00     0.054 A 
ATOM      9  C   UNL     1       8.823   0.009  -2.694  1.00  0.00     0.051 A 
ATOM     10  C   UNL     1       7.844  -1.994  -1.968  1.00  0.00     0.166 A 
ATOM     11  C   UNL     1       8.835  -1.368  -2.692  1.00  0.00     0.165 A 
ATOM     12  O   UNL     1       8.077  -3.354  -2.126  1.00  0.00    -0.454 OA
ATOM     13  O   UNL     1       9.652  -2.345  -3.276  1.00  0.00    -0.454 OA
ATOM     14  C   UNL     1       9.433  -3.516  -2.517  1.00  0.00     0.468 C 
ENDBRANCH   5   6
ENDBRANCH   1   5
TORSDOF 3
ENDMDL
MODEL 4
REMARK VINA RESULT:      -6.7      1.177      1.644
REMARK SMILES CC(=O)CCc1ccc2c(c1)OCO2
REMARK SMILES IDX 4 1 2 2 1 3 3 4 5 5 6 6 7 7 11 8 8 9 10 10 9 11 12 12 14 13
REMARK SMILES IDX 13 14
REMARK H PARENT
REMARK Flexibility Score: inf
ROOT
ATOM      1  C   UNL     1       5.360  -0.034   1.972  1.00  0.00     0.080 C 
ENDROOT
BRANCH   1   2
ATOM      2  C   UNL     1       4.408   1.086   1.864  1.00  0.00     0.130 C 
ATOM      3  C   UNL     1       4.745   2.126   0.809  1.00  0.00     0.087 C 
ATOM      4  O   UNL     1       3.411   1.268   2.504  1.00  0.00    -0.300 OA
ENDBRANCH   1   2
BRANCH   1   5
ATOM      5  C   UNL     1       6.778   0.289   1.710  1.00  0.00     0.043 C 
BRANCH   5   6
ATOM      6  C   UNL     1       7.313  -0.059   0.391  1.00  0.00    -0.044 A 
ATOM      7  C   UNL     1       7.728   0.912  -0.523  1.00  0.00     0.008 A 
ATOM      8  C   UNL     1       7.447  -1.379   0.028  1.00  0.00     0.054 A 
ATOM      9  C   UNL     1       8.244   0.514  -1.729  1.00  0.00     0.051 A 
ATOM     10  C   UNL     1       7.979  -1.758  -1.214  1.00  0.00     0.166 A 
ATOM     11  C   UNL     1       8.387  -0.800  -2.116  1.00  0.00     0.165 A 
ATOM     12  O   UNL     1       8.226  -2.976  -1.834  1.00  0.00    -0.454 OA
ATOM     13  O   UNL     1       8.874  -1.440  -3.263  1.00  0.00    -0.454 OA
ATOM     14  C   UNL     1       9.192  -2.754  -2.851  1.00  0.00     0.468 C 
ENDBRANCH   5   6
ENDBRANCH   1   5
TORSDOF 3
ENDMDL
MODEL 5
REMARK VINA RESULT:      -6.7      1.979      2.559
REMARK SMILES CC(=O)CCc1ccc2c(c1)OCO2
REMARK SMILES IDX 4 1 2 2 1 3 3 4 5 5 6 6 7 7 11 8 8 9 10 10 9 11 12 12 14 13
REMARK SMILES IDX 13 14
REMARK H PARENT
REMARK Flexibility Score: inf
ROOT
ATOM      1  C   UNL     1       5.702  -0.129   2.092  1.00  0.00     0.080 C 
ENDROOT
BRANCH   1   2
ATOM      2  C   UNL     1       4.730   0.944   1.816  1.00  0.00     0.130 C 
ATOM      3  C   UNL     1       5.079   1.854   0.650  1.00  0.00     0.087 C 
ATOM      4  O   UNL     1       3.708   1.178   2.397  1.00  0.00    -0.300 OA
ENDBRANCH   1   2
BRANCH   1   5
ATOM      5  C   UNL     1       7.042   0.036   1.489  1.00  0.00     0.043 C 
BRANCH   5   6
ATOM      6  C   UNL     1       7.423  -0.907   0.435  1.00  0.00    -0.044 A 
ATOM      7  C   UNL     1       7.332  -0.585  -0.920  1.00  0.00     0.008 A 
ATOM      8  C   UNL     1       7.916  -2.148   0.766  1.00  0.00     0.054 A 
ATOM      9  C   UNL     1       7.732  -1.507  -1.853  1.00  0.00     0.051 A 
ATOM     10  C   UNL     1       8.318  -3.073  -0.210  1.00  0.00     0.166 A 
ATOM     11  C   UNL     1       8.228  -2.755  -1.547  1.00  0.00     0.165 A 
ATOM     12  O   UNL     1       8.838  -4.361  -0.172  1.00  0.00    -0.454 OA
ATOM     13  O   UNL     1       8.690  -3.842  -2.300  1.00  0.00    -0.454 OA
ATOM     14  C   UNL     1       9.486  -4.599  -1.413  1.00  0.00     0.468 C 
ENDBRANCH   5   6
ENDBRANCH   1   5
TORSDOF 3
ENDMDL
