@<TRIPOS>MOLECULE
/home/cewinharhar/GITHUB/reincatalyze/data/processed/docking_pred/2023-May-31-1727_sub9_nm5_bs15_s42_ex16_mel10_mts10000_k50_ec075_g099_lra3e-4_lrc3e-3/2bd7ebd6000506c3611824cd415c5dddcf27ad2f_ligand_9.pdbqt
 14 15 0 0 0
SMALL
GASTEIGER

@<TRIPOS>ATOM
      1  C          6.2080    1.2190    0.8660 C.3     1  UNL1        0.0800
      2  C          5.5440    0.3960    1.8930 C.2     1  UNL1        0.1300
      3  C          6.3220   -0.8270    2.3490 C.3     1  UNL1        0.0870
      4  O          4.4750    0.5770    2.4030 O.2     1  UNL1       -0.3000
      5  C          5.8890    0.8900   -0.5390 C.3     1  UNL1        0.0430
      6  C          6.8940    0.1400   -1.2970 C.2     1  UNL1       -0.0440
      7  C          7.8990    0.7740   -2.0300 C.2     1  UNL1        0.0080
      8  C          6.8850   -1.2350   -1.2800 C.2     1  UNL1        0.0540
      9  C          8.8230    0.0090   -2.6940 C.2     1  UNL1        0.0510
     10  C          7.8440   -1.9940   -1.9680 C.2     1  UNL1        0.1660
     11  C          8.8350   -1.3680   -2.6920 C.2     1  UNL1        0.1650
     12  O          8.0770   -3.3540   -2.1260 O.2     1  UNL1       -0.4540
     13  O          9.6520   -2.3450   -3.2760 O.2     1  UNL1       -0.4540
     14  C          9.4330   -3.5160   -2.5170 C.3     1  UNL1        0.4680
@<TRIPOS>BOND
     1    13    11    1
     2    13    14    1
     3     9    11    2
     4     9     7    1
     5    11    10    1
     6    14    12    1
     7    12    10    1
     8     7     6    2
     9    10     8    2
    10     6     8    1
    11     6     5    1
    12     5     1    1
    13     1     2    1
    14     2     3    1
    15     2     4    2
