@<TRIPOS>MOLECULE
/home/cewinharhar/GITHUB/reincatalyze/data/processed/docking_pred/2023-May-31-1727_sub9_nm5_bs15_s42_ex16_mel10_mts10000_k50_ec075_g099_lra3e-4_lrc3e-3/2bd7ebd6000506c3611824cd415c5dddcf27ad2f_ligand_9.pdbqt
 14 15 0 0 0
SMALL
GASTEIGER

@<TRIPOS>ATOM
      1  C          5.7020   -0.1290    2.0920 C.3     1  UNL1        0.0800
      2  C          4.7300    0.9440    1.8160 C.2     1  UNL1        0.1300
      3  C          5.0790    1.8540    0.6500 C.3     1  UNL1        0.0870
      4  O          3.7080    1.1780    2.3970 O.2     1  UNL1       -0.3000
      5  C          7.0420    0.0360    1.4890 C.3     1  UNL1        0.0430
      6  C          7.4230   -0.9070    0.4350 C.2     1  UNL1       -0.0440
      7  C          7.3320   -0.5850   -0.9200 C.2     1  UNL1        0.0080
      8  C          7.9160   -2.1480    0.7660 C.2     1  UNL1        0.0540
      9  C          7.7320   -1.5070   -1.8530 C.2     1  UNL1        0.0510
     10  C          8.3180   -3.0730   -0.2100 C.2     1  UNL1        0.1660
     11  C          8.2280   -2.7550   -1.5470 C.2     1  UNL1        0.1650
     12  O          8.8380   -4.3610   -0.1720 O.2     1  UNL1       -0.4540
     13  O          8.6900   -3.8420   -2.3000 O.2     1  UNL1       -0.4540
     14  C          9.4860   -4.5990   -1.4130 C.3     1  UNL1        0.4680
@<TRIPOS>BOND
     1    13    11    1
     2    13    14    1
     3     9    11    2
     4     9     7    1
     5    11    10    1
     6    14    12    1
     7     7     6    2
     8    10    12    1
     9    10     8    2
    10     6     8    1
    11     6     5    1
    12     3     2    1
    13     5     1    1
    14     2     1    1
    15     2     4    2
