@<TRIPOS>MOLECULE
/home/cewinharhar/GITHUB/reincatalyze/data/processed/docking_pred/2023-May-31-1727_sub9_nm5_bs15_s42_ex16_mel10_mts10000_k50_ec075_g099_lra3e-4_lrc3e-3/2bd7ebd6000506c3611824cd415c5dddcf27ad2f_ligand_9.pdbqt
 14 15 0 0 0
SMALL
GASTEIGER

@<TRIPOS>ATOM
      1  C          5.3600   -0.0340    1.9720 C.3     1  UNL1        0.0800
      2  C          4.4080    1.0860    1.8640 C.2     1  UNL1        0.1300
      3  C          4.7450    2.1260    0.8090 C.3     1  UNL1        0.0870
      4  O          3.4110    1.2680    2.5040 O.2     1  UNL1       -0.3000
      5  C          6.7780    0.2890    1.7100 C.3     1  UNL1        0.0430
      6  C          7.3130   -0.0590    0.3910 C.2     1  UNL1       -0.0440
      7  C          7.7280    0.9120   -0.5230 C.2     1  UNL1        0.0080
      8  C          7.4470   -1.3790    0.0280 C.2     1  UNL1        0.0540
      9  C          8.2440    0.5140   -1.7290 C.2     1  UNL1        0.0510
     10  C          7.9790   -1.7580   -1.2140 C.2     1  UNL1        0.1660
     11  C          8.3870   -0.8000   -2.1160 C.2     1  UNL1        0.1650
     12  O          8.2260   -2.9760   -1.8340 O.2     1  UNL1       -0.4540
     13  O          8.8740   -1.4400   -3.2630 O.2     1  UNL1       -0.4540
     14  C          9.1920   -2.7540   -2.8510 C.3     1  UNL1        0.4680
@<TRIPOS>BOND
     1    13    14    1
     2    13    11    1
     3    14    12    1
     4    11     9    2
     5    11    10    1
     6    12    10    1
     7     9     7    1
     8    10     8    2
     9     7     6    2
    10     8     6    1
    11     6     5    1
    12     3     2    1
    13     5     1    1
    14     2     1    1
    15     2     4    2
