@<TRIPOS>MOLECULE
/home/cewinharhar/GITHUB/reincatalyze/data/processed/docking_pred/2023-May-31-1727_sub9_nm5_bs15_s42_ex16_mel10_mts10000_k50_ec075_g099_lra3e-4_lrc3e-3/2d2d9026ea33a6842fa37a74e1533968fe9c5ac5_ligand_9.pdbqt
 14 15 0 0 0
SMALL
GASTEIGER

@<TRIPOS>ATOM
      1  C          5.6470   -0.0860    2.0020 C.3     1  UNL1        0.0800
      2  C          4.7060    1.0190    1.7450 C.2     1  UNL1        0.1300
      3  C          5.0830    1.9400    0.5970 C.3     1  UNL1        0.0870
      4  O          3.6910    1.2720    2.3300 O.2     1  UNL1       -0.3000
      5  C          7.0090    0.0770    1.4530 C.3     1  UNL1        0.0430
      6  C          7.4260   -0.8580    0.4040 C.2     1  UNL1       -0.0440
      7  C          7.4320   -0.5060   -0.9470 C.2     1  UNL1        0.0080
      8  C          7.8570   -2.1200    0.7390 C.2     1  UNL1        0.0540
      9  C          7.8600   -1.4220   -1.8720 C.2     1  UNL1        0.0510
     10  C          8.2910   -3.0390   -0.2290 C.2     1  UNL1        0.1660
     11  C          8.2960   -2.6920   -1.5620 C.2     1  UNL1        0.1650
     12  O          8.7660   -4.3440   -0.1870 O.2     1  UNL1       -0.4540
     13  O          8.7690   -3.7790   -2.3090 O.2     1  UNL1       -0.4540
     14  C          9.4830   -4.5790   -1.3900 C.3     1  UNL1        0.4680
@<TRIPOS>BOND
     1    13    11    1
     2    13    14    1
     3     9    11    2
     4     9     7    1
     5    11    10    1
     6    14    12    1
     7     7     6    2
     8    10    12    1
     9    10     8    2
    10     6     8    1
    11     6     5    1
    12     3     2    1
    13     5     1    1
    14     2     1    1
    15     2     4    2
