MODEL 1
REMARK VINA RESULT:      -7.6      0.000      0.000
REMARK SMILES CC(=O)CCc1ccc2c(c1)OCO2
REMARK SMILES IDX 4 1 2 2 1 3 3 4 5 5 6 6 7 7 11 8 8 9 10 10 9 11 12 12 14 13
REMARK SMILES IDX 13 14
REMARK H PARENT
REMARK Flexibility Score: inf
ROOT
ATOM      1  C   UNL     1       5.782   1.768   1.277  1.00  0.00     0.080 C 
ENDROOT
BRANCH   1   2
ATOM      2  C   UNL     1       5.189   0.644   2.025  1.00  0.00     0.130 C 
ATOM      3  C   UNL     1       6.096  -0.560   2.215  1.00  0.00     0.087 C 
ATOM      4  O   UNL     1       4.089   0.571   2.494  1.00  0.00    -0.300 OA
ENDBRANCH   1   2
BRANCH   1   5
ATOM      5  C   UNL     1       5.735   1.666  -0.197  1.00  0.00     0.043 C 
BRANCH   5   6
ATOM      6  C   UNL     1       6.796   0.896  -0.850  1.00  0.00    -0.044 A 
ATOM      7  C   UNL     1       8.140   1.264  -0.770  1.00  0.00     0.008 A 
ATOM      8  C   UNL     1       6.487  -0.249  -1.548  1.00  0.00     0.054 A 
ATOM      9  C   UNL     1       9.084   0.481  -1.382  1.00  0.00     0.051 A 
ATOM     10  C   UNL     1       7.473  -1.032  -2.166  1.00  0.00     0.166 A 
ATOM     11  C   UNL     1       8.799  -0.668  -2.087  1.00  0.00     0.165 A 
ATOM     12  O   UNL     1       7.457  -2.202  -2.915  1.00  0.00    -0.454 OA
ATOM     13  O   UNL     1       9.567  -1.612  -2.782  1.00  0.00    -0.454 OA
ATOM     14  C   UNL     1       8.759  -2.767  -2.859  1.00  0.00     0.468 C 
ENDBRANCH   5   6
ENDBRANCH   1   5
TORSDOF 3
ENDMDL
MODEL 2
REMARK VINA RESULT:      -7.0      1.768      2.192
REMARK SMILES CC(=O)CCc1ccc2c(c1)OCO2
REMARK SMILES IDX 4 1 2 2 1 3 3 4 5 5 6 6 7 7 11 8 8 9 10 10 9 11 12 12 14 13
REMARK SMILES IDX 13 14
REMARK H PARENT
REMARK Flexibility Score: inf
ROOT
ATOM      1  C   UNL     1       5.866   1.481  -0.301  1.00  0.00     0.080 C 
ENDROOT
BRANCH   1   2
ATOM      2  C   UNL     1       5.149   1.415   0.985  1.00  0.00     0.130 C 
ATOM      3  C   UNL     1       5.556   0.272   1.898  1.00  0.00     0.087 C 
ATOM      4  O   UNL     1       4.293   2.150   1.388  1.00  0.00    -0.300 OA
ENDBRANCH   1   2
BRANCH   1   5
ATOM      5  C   UNL     1       7.286   1.070  -0.277  1.00  0.00     0.043 C 
BRANCH   5   6
ATOM      6  C   UNL     1       7.618  -0.226  -0.875  1.00  0.00    -0.044 A 
ATOM      7  C   UNL     1       7.744  -0.400  -2.254  1.00  0.00     0.008 A 
ATOM      8  C   UNL     1       7.846  -1.318  -0.069  1.00  0.00     0.054 A 
ATOM      9  C   UNL     1       8.085  -1.635  -2.742  1.00  0.00     0.051 A 
ATOM     10  C   UNL     1       8.193  -2.571  -0.596  1.00  0.00     0.166 A 
ATOM     11  C   UNL     1       8.317  -2.742  -1.957  1.00  0.00     0.165 A 
ATOM     12  O   UNL     1       8.474  -3.814  -0.041  1.00  0.00    -0.454 OA
ATOM     13  O   UNL     1       8.668  -4.074  -2.213  1.00  0.00    -0.454 OA
ATOM     14  C   UNL     1       9.211  -4.556  -1.002  1.00  0.00     0.468 C 
ENDBRANCH   5   6
ENDBRANCH   1   5
TORSDOF 3
ENDMDL
MODEL 3
REMARK VINA RESULT:      -6.7      1.762      2.263
REMARK SMILES CC(=O)CCc1ccc2c(c1)OCO2
REMARK SMILES IDX 4 1 2 2 1 3 3 4 5 5 6 6 7 7 11 8 8 9 10 10 9 11 12 12 14 13
REMARK SMILES IDX 13 14
REMARK H PARENT
REMARK Flexibility Score: inf
ROOT
ATOM      1  C   UNL     1       6.855   1.308   1.322  1.00  0.00     0.080 C 
ENDROOT
BRANCH   1   2
ATOM      2  C   UNL     1       5.381   1.315   1.340  1.00  0.00     0.130 C 
ATOM      3  C   UNL     1       4.722   2.149   0.254  1.00  0.00     0.087 C 
ATOM      4  O   UNL     1       4.652   0.747   2.102  1.00  0.00    -0.300 OA
ENDBRANCH   1   2
BRANCH   1   5
ATOM      5  C   UNL     1       7.490   1.298  -0.012  1.00  0.00     0.043 C 
BRANCH   5   6
ATOM      6  C   UNL     1       7.709  -0.008  -0.640  1.00  0.00    -0.044 A 
ATOM      7  C   UNL     1       7.713  -0.176  -2.026  1.00  0.00     0.008 A 
ATOM      8  C   UNL     1       7.949  -1.116   0.139  1.00  0.00     0.054 A 
ATOM      9  C   UNL     1       7.951  -1.422  -2.546  1.00  0.00     0.051 A 
ATOM     10  C   UNL     1       8.190  -2.380  -0.419  1.00  0.00     0.166 A 
ATOM     11  C   UNL     1       8.193  -2.546  -1.787  1.00  0.00     0.165 A 
ATOM     12  O   UNL     1       8.455  -3.639   0.104  1.00  0.00    -0.454 OA
ATOM     13  O   UNL     1       8.457  -3.890  -2.077  1.00  0.00    -0.454 OA
ATOM     14  C   UNL     1       9.074  -4.408  -0.917  1.00  0.00     0.468 C 
ENDBRANCH   5   6
ENDBRANCH   1   5
TORSDOF 3
ENDMDL
MODEL 4
REMARK VINA RESULT:      -6.7      1.143      1.613
REMARK SMILES CC(=O)CCc1ccc2c(c1)OCO2
REMARK SMILES IDX 4 1 2 2 1 3 3 4 5 5 6 6 7 7 11 8 8 9 10 10 9 11 12 12 14 13
REMARK SMILES IDX 13 14
REMARK H PARENT
REMARK Flexibility Score: inf
ROOT
ATOM      1  C   UNL     1       5.393  -0.042   1.947  1.00  0.00     0.080 C 
ENDROOT
BRANCH   1   2
ATOM      2  C   UNL     1       4.444   1.083   1.862  1.00  0.00     0.130 C 
ATOM      3  C   UNL     1       4.764   2.125   0.803  1.00  0.00     0.087 C 
ATOM      4  O   UNL     1       3.462   1.268   2.523  1.00  0.00    -0.300 OA
ENDBRANCH   1   2
BRANCH   1   5
ATOM      5  C   UNL     1       6.813   0.282   1.693  1.00  0.00     0.043 C 
BRANCH   5   6
ATOM      6  C   UNL     1       7.351  -0.054   0.372  1.00  0.00    -0.044 A 
ATOM      7  C   UNL     1       7.786   0.923  -0.525  1.00  0.00     0.008 A 
ATOM      8  C   UNL     1       7.468  -1.371  -0.009  1.00  0.00     0.054 A 
ATOM      9  C   UNL     1       8.304   0.535  -1.733  1.00  0.00     0.051 A 
ATOM     10  C   UNL     1       8.003  -1.740  -1.252  1.00  0.00     0.166 A 
ATOM     11  C   UNL     1       8.431  -0.776  -2.138  1.00  0.00     0.165 A 
ATOM     12  O   UNL     1       8.236  -2.953  -1.888  1.00  0.00    -0.454 OA
ATOM     13  O   UNL     1       8.916  -1.407  -3.291  1.00  0.00    -0.454 OA
ATOM     14  C   UNL     1       9.212  -2.730  -2.896  1.00  0.00     0.468 C 
ENDBRANCH   5   6
ENDBRANCH   1   5
TORSDOF 3
ENDMDL
MODEL 5
REMARK VINA RESULT:      -6.7      1.932      2.462
REMARK SMILES CC(=O)CCc1ccc2c(c1)OCO2
REMARK SMILES IDX 4 1 2 2 1 3 3 4 5 5 6 6 7 7 11 8 8 9 10 10 9 11 12 12 14 13
REMARK SMILES IDX 13 14
REMARK H PARENT
REMARK Flexibility Score: inf
ROOT
ATOM      1  C   UNL     1       5.647  -0.086   2.002  1.00  0.00     0.080 C 
ENDROOT
BRANCH   1   2
ATOM      2  C   UNL     1       4.706   1.019   1.745  1.00  0.00     0.130 C 
ATOM      3  C   UNL     1       5.083   1.940   0.597  1.00  0.00     0.087 C 
ATOM      4  O   UNL     1       3.691   1.272   2.330  1.00  0.00    -0.300 OA
ENDBRANCH   1   2
BRANCH   1   5
ATOM      5  C   UNL     1       7.009   0.077   1.453  1.00  0.00     0.043 C 
BRANCH   5   6
ATOM      6  C   UNL     1       7.426  -0.858   0.404  1.00  0.00    -0.044 A 
ATOM      7  C   UNL     1       7.432  -0.506  -0.947  1.00  0.00     0.008 A 
ATOM      8  C   UNL     1       7.857  -2.120   0.739  1.00  0.00     0.054 A 
ATOM      9  C   UNL     1       7.860  -1.422  -1.872  1.00  0.00     0.051 A 
ATOM     10  C   UNL     1       8.291  -3.039  -0.229  1.00  0.00     0.166 A 
ATOM     11  C   UNL     1       8.296  -2.692  -1.562  1.00  0.00     0.165 A 
ATOM     12  O   UNL     1       8.766  -4.344  -0.187  1.00  0.00    -0.454 OA
ATOM     13  O   UNL     1       8.769  -3.779  -2.309  1.00  0.00    -0.454 OA
ATOM     14  C   UNL     1       9.483  -4.579  -1.390  1.00  0.00     0.468 C 
ENDBRANCH   5   6
ENDBRANCH   1   5
TORSDOF 3
ENDMDL
