@<TRIPOS>MOLECULE
/home/cewinharhar/GITHUB/reincatalyze/data/processed/docking_pred/2023-May-31-1727_sub9_nm5_bs15_s42_ex16_mel10_mts10000_k50_ec075_g099_lra3e-4_lrc3e-3/2d2d9026ea33a6842fa37a74e1533968fe9c5ac5_ligand_9.pdbqt
 14 15 0 0 0
SMALL
GASTEIGER

@<TRIPOS>ATOM
      1  C          5.7820    1.7680    1.2770 C.3     1  UNL1        0.0800
      2  C          5.1890    0.6440    2.0250 C.2     1  UNL1        0.1300
      3  C          6.0960   -0.5600    2.2150 C.3     1  UNL1        0.0870
      4  O          4.0890    0.5710    2.4940 O.2     1  UNL1       -0.3000
      5  C          5.7350    1.6660   -0.1970 C.3     1  UNL1        0.0430
      6  C          6.7960    0.8960   -0.8500 C.2     1  UNL1       -0.0440
      7  C          8.1400    1.2640   -0.7700 C.2     1  UNL1        0.0080
      8  C          6.4870   -0.2490   -1.5480 C.2     1  UNL1        0.0540
      9  C          9.0840    0.4810   -1.3820 C.2     1  UNL1        0.0510
     10  C          7.4730   -1.0320   -2.1660 C.2     1  UNL1        0.1660
     11  C          8.7990   -0.6680   -2.0870 C.2     1  UNL1        0.1650
     12  O          7.4570   -2.2020   -2.9150 O.2     1  UNL1       -0.4540
     13  O          9.5670   -1.6120   -2.7820 O.2     1  UNL1       -0.4540
     14  C          8.7590   -2.7670   -2.8590 C.3     1  UNL1        0.4680
@<TRIPOS>BOND
     1    12    14    1
     2    12    10    1
     3    14    13    1
     4    13    11    1
     5    10    11    2
     6    10     8    1
     7    11     9    1
     8     8     6    2
     9     9     7    2
    10     6     7    1
    11     6     5    1
    12     5     1    1
    13     1     2    1
    14     2     3    1
    15     2     4    2
