@<TRIPOS>MOLECULE
/home/cewinharhar/GITHUB/reincatalyze/data/processed/docking_pred/2023-May-31-1727_sub9_nm5_bs15_s42_ex16_mel10_mts10000_k50_ec075_g099_lra3e-4_lrc3e-3/2d2d9026ea33a6842fa37a74e1533968fe9c5ac5_ligand_9.pdbqt
 14 15 0 0 0
SMALL
GASTEIGER

@<TRIPOS>ATOM
      1  C          6.8550    1.3080    1.3220 C.3     1  UNL1        0.0800
      2  C          5.3810    1.3150    1.3400 C.2     1  UNL1        0.1300
      3  C          4.7220    2.1490    0.2540 C.3     1  UNL1        0.0870
      4  O          4.6520    0.7470    2.1020 O.2     1  UNL1       -0.3000
      5  C          7.4900    1.2980   -0.0120 C.3     1  UNL1        0.0430
      6  C          7.7090   -0.0080   -0.6400 C.2     1  UNL1       -0.0440
      7  C          7.7130   -0.1760   -2.0260 C.2     1  UNL1        0.0080
      8  C          7.9490   -1.1160    0.1390 C.2     1  UNL1        0.0540
      9  C          7.9510   -1.4220   -2.5460 C.2     1  UNL1        0.0510
     10  C          8.1900   -2.3800   -0.4190 C.2     1  UNL1        0.1660
     11  C          8.1930   -2.5460   -1.7870 C.2     1  UNL1        0.1650
     12  O          8.4550   -3.6390    0.1040 O.2     1  UNL1       -0.4540
     13  O          8.4570   -3.8900   -2.0770 O.2     1  UNL1       -0.4540
     14  C          9.0740   -4.4080   -0.9170 C.3     1  UNL1        0.4680
@<TRIPOS>BOND
     1     9     7    1
     2     9    11    2
     3    13    11    1
     4    13    14    1
     5     7     6    2
     6    11    10    1
     7    14    12    1
     8     6     5    1
     9     6     8    1
    10    10    12    1
    11    10     8    2
    12     5     1    1
    13     3     2    1
    14     1     2    1
    15     2     4    2
