@<TRIPOS>MOLECULE
/home/cewinharhar/GITHUB/reincatalyze/data/processed/docking_pred/2023-May-31-1727_sub9_nm5_bs15_s42_ex16_mel10_mts10000_k50_ec075_g099_lra3e-4_lrc3e-3/2d2d9026ea33a6842fa37a74e1533968fe9c5ac5_ligand_9.pdbqt
 14 15 0 0 0
SMALL
GASTEIGER

@<TRIPOS>ATOM
      1  C          5.3930   -0.0420    1.9470 C.3     1  UNL1        0.0800
      2  C          4.4440    1.0830    1.8620 C.2     1  UNL1        0.1300
      3  C          4.7640    2.1250    0.8030 C.3     1  UNL1        0.0870
      4  O          3.4620    1.2680    2.5230 O.2     1  UNL1       -0.3000
      5  C          6.8130    0.2820    1.6930 C.3     1  UNL1        0.0430
      6  C          7.3510   -0.0540    0.3720 C.2     1  UNL1       -0.0440
      7  C          7.7860    0.9230   -0.5250 C.2     1  UNL1        0.0080
      8  C          7.4680   -1.3710   -0.0090 C.2     1  UNL1        0.0540
      9  C          8.3040    0.5350   -1.7330 C.2     1  UNL1        0.0510
     10  C          8.0030   -1.7400   -1.2520 C.2     1  UNL1        0.1660
     11  C          8.4310   -0.7760   -2.1380 C.2     1  UNL1        0.1650
     12  O          8.2360   -2.9530   -1.8880 O.2     1  UNL1       -0.4540
     13  O          8.9160   -1.4070   -3.2910 O.2     1  UNL1       -0.4540
     14  C          9.2120   -2.7300   -2.8960 C.3     1  UNL1        0.4680
@<TRIPOS>BOND
     1    13    14    1
     2    13    11    1
     3    14    12    1
     4    11     9    2
     5    11    10    1
     6    12    10    1
     7     9     7    1
     8    10     8    2
     9     7     6    2
    10     8     6    1
    11     6     5    1
    12     3     2    1
    13     5     1    1
    14     2     1    1
    15     2     4    2
