@<TRIPOS>MOLECULE
/home/cewinharhar/GITHUB/reincatalyze/data/processed/docking_pred/2023-May-31-1727_sub9_nm5_bs15_s42_ex16_mel10_mts10000_k50_ec075_g099_lra3e-4_lrc3e-3/2f41e52dfc6618f39d2325611a45b0a1c53476a0_ligand_9.pdbqt
 14 15 0 0 0
SMALL
GASTEIGER

@<TRIPOS>ATOM
      1  C          5.9820    1.5760   -0.3140 C.3     1  UNL1        0.0800
      2  C          5.2470    1.4760    0.9600 C.2     1  UNL1        0.1300
      3  C          5.7230    0.3840    1.9020 C.3     1  UNL1        0.0870
      4  O          4.3290    2.1500    1.3340 O.2     1  UNL1       -0.3000
      5  C          7.3890    1.1230   -0.2910 C.3     1  UNL1        0.0430
      6  C          7.6830   -0.1800   -0.8940 C.2     1  UNL1       -0.0440
      7  C          7.7960   -0.3530   -2.2740 C.2     1  UNL1        0.0080
      8  C          7.8860   -1.2790   -0.0920 C.2     1  UNL1        0.0540
      9  C          8.1000   -1.5950   -2.7680 C.2     1  UNL1        0.0510
     10  C          8.1970   -2.5400   -0.6240 C.2     1  UNL1        0.1660
     11  C          8.3080   -2.7110   -1.9870 C.2     1  UNL1        0.1650
     12  O          8.4480   -3.7910   -0.0750 O.2     1  UNL1       -0.4540
     13  O          8.6220   -4.0500   -2.2480 O.2     1  UNL1       -0.4540
     14  C          9.1600   -4.5500   -1.0420 C.3     1  UNL1        0.4680
@<TRIPOS>BOND
     1     9     7    1
     2     9    11    2
     3     7     6    2
     4    13    11    1
     5    13    14    1
     6    11    10    1
     7    14    12    1
     8     6     5    1
     9     6     8    1
    10    10     8    2
    11    10    12    1
    12     1     5    1
    13     1     2    1
    14     2     4    2
    15     2     3    1
