@<TRIPOS>MOLECULE
/home/cewinharhar/GITHUB/reincatalyze/data/processed/docking_pred/2023-May-31-1727_sub9_nm5_bs15_s42_ex16_mel10_mts10000_k50_ec075_g099_lra3e-4_lrc3e-3/2f41e52dfc6618f39d2325611a45b0a1c53476a0_ligand_9.pdbqt
 14 15 0 0 0
SMALL
GASTEIGER

@<TRIPOS>ATOM
      1  C          5.6430   -0.0530    2.1330 C.3     1  UNL1        0.0800
      2  C          4.6420    0.9920    1.8550 C.2     1  UNL1        0.1300
      3  C          4.9820    1.9300    0.7090 C.3     1  UNL1        0.0870
      4  O          3.6030    1.1850    2.4200 O.2     1  UNL1       -0.3000
      5  C          6.9750    0.1410    1.5220 C.3     1  UNL1        0.0430
      6  C          7.3720   -0.7960    0.4690 C.2     1  UNL1       -0.0440
      7  C          7.3180   -0.4600   -0.8850 C.2     1  UNL1        0.0080
      8  C          7.8440   -2.0450    0.8000 C.2     1  UNL1        0.0540
      9  C          7.7310   -1.3780   -1.8170 C.2     1  UNL1        0.0510
     10  C          8.2610   -2.9650   -0.1750 C.2     1  UNL1        0.1660
     11  C          8.2070   -2.6340   -1.5110 C.2     1  UNL1        0.1650
     12  O          8.7660   -4.2590   -0.1370 O.2     1  UNL1       -0.4540
     13  O          8.6760   -3.7180   -2.2630 O.2     1  UNL1       -0.4540
     14  C          9.4420   -4.4920   -1.3640 C.3     1  UNL1        0.4680
@<TRIPOS>BOND
     1    13    11    1
     2    13    14    1
     3     9    11    2
     4     9     7    1
     5    11    10    1
     6    14    12    1
     7     7     6    2
     8    10    12    1
     9    10     8    2
    10     6     8    1
    11     6     5    1
    12     3     2    1
    13     5     1    1
    14     2     1    1
    15     2     4    2
