@<TRIPOS>MOLECULE
/home/cewinharhar/GITHUB/reincatalyze/data/processed/docking_pred/2023-May-31-1727_sub9_nm5_bs15_s42_ex16_mel10_mts10000_k50_ec075_g099_lra3e-4_lrc3e-3/2f41e52dfc6618f39d2325611a45b0a1c53476a0_ligand_9.pdbqt
 14 15 0 0 0
SMALL
GASTEIGER

@<TRIPOS>ATOM
      1  C          6.1930    1.2900    0.8830 C.3     1  UNL1        0.0800
      2  C          5.5620    0.4450    1.9130 C.2     1  UNL1        0.1300
      3  C          6.3710   -0.7670    2.3450 C.3     1  UNL1        0.0870
      4  O          4.4990    0.6000    2.4420 O.2     1  UNL1       -0.3000
      5  C          5.8840    0.9460   -0.5210 C.3     1  UNL1        0.0430
      6  C          6.8980    0.1930   -1.2650 C.2     1  UNL1       -0.0440
      7  C          7.9660    0.8200   -1.9100 C.2     1  UNL1        0.0080
      8  C          6.8330   -1.1800   -1.3210 C.2     1  UNL1        0.0540
      9  C          8.8930    0.0510   -2.5650 C.2     1  UNL1        0.0510
     10  C          7.7960   -1.9420   -1.9990 C.2     1  UNL1        0.1660
     11  C          8.8490   -1.3240   -2.6360 C.2     1  UNL1        0.1650
     12  O          7.9820   -3.3020   -2.2170 O.2     1  UNL1       -0.4540
     13  O          9.6560   -2.3040   -3.2280 O.2     1  UNL1       -0.4540
     14  C          9.3490   -3.5020   -2.5450 C.3     1  UNL1        0.4680
@<TRIPOS>BOND
     1    13    11    1
     2    13    14    1
     3    11     9    2
     4    11    10    1
     5     9     7    1
     6    14    12    1
     7    12    10    1
     8    10     8    2
     9     7     6    2
    10     8     6    1
    11     6     5    1
    12     5     1    1
    13     1     2    1
    14     2     3    1
    15     2     4    2
