@<TRIPOS>MOLECULE
/home/cewinharhar/GITHUB/reincatalyze/data/processed/docking_pred/2023-May-31-1727_sub9_nm5_bs15_s42_ex16_mel10_mts10000_k50_ec075_g099_lra3e-4_lrc3e-3/2f41e52dfc6618f39d2325611a45b0a1c53476a0_ligand_9.pdbqt
 14 15 0 0 0
SMALL
GASTEIGER

@<TRIPOS>ATOM
      1  C          5.3890   -0.0670    1.9460 C.3     1  UNL1        0.0800
      2  C          4.4430    1.0590    1.8410 C.2     1  UNL1        0.1300
      3  C          4.7720    2.0870    0.7730 C.3     1  UNL1        0.0870
      4  O          3.4560    1.2530    2.4930 O.2     1  UNL1       -0.3000
      5  C          6.8100    0.2510    1.6940 C.3     1  UNL1        0.0430
      6  C          7.3500   -0.0930    0.3750 C.2     1  UNL1       -0.0440
      7  C          7.7850    0.8800   -0.5270 C.2     1  UNL1        0.0080
      8  C          7.4680   -1.4110    0.0020 C.2     1  UNL1        0.0540
      9  C          8.3040    0.4860   -1.7320 C.2     1  UNL1        0.0510
     10  C          8.0040   -1.7860   -1.2390 C.2     1  UNL1        0.1660
     11  C          8.4330   -0.8270   -2.1300 C.2     1  UNL1        0.1650
     12  O          8.2390   -3.0030   -1.8690 O.2     1  UNL1       -0.4540
     13  O          8.9190   -1.4630   -3.2790 O.2     1  UNL1       -0.4540
     14  C          9.2160   -2.7840   -2.8760 C.3     1  UNL1        0.4680
@<TRIPOS>BOND
     1    13    14    1
     2    13    11    1
     3    14    12    1
     4    11     9    2
     5    11    10    1
     6    12    10    1
     7     9     7    1
     8    10     8    2
     9     7     6    2
    10     8     6    1
    11     6     5    1
    12     3     2    1
    13     5     1    1
    14     2     1    1
    15     2     4    2
