MODEL 1
REMARK VINA RESULT:      -7.6      0.000      0.000
REMARK SMILES CC(=O)CCc1ccc2c(c1)OCO2
REMARK SMILES IDX 4 1 2 2 1 3 3 4 5 5 6 6 7 7 11 8 8 9 10 10 9 11 12 12 14 13
REMARK SMILES IDX 13 14
REMARK H PARENT
REMARK Flexibility Score: inf
ROOT
ATOM      1  C   UNL     1       5.520   1.905   1.213  1.00  0.00     0.080 C 
ENDROOT
BRANCH   1   2
ATOM      2  C   UNL     1       5.010   0.763   1.993  1.00  0.00     0.130 C 
ATOM      3  C   UNL     1       5.970  -0.406   2.137  1.00  0.00     0.087 C 
ATOM      4  O   UNL     1       3.939   0.651   2.520  1.00  0.00    -0.300 OA
ENDBRANCH   1   2
BRANCH   1   5
ATOM      5  C   UNL     1       5.510   1.747  -0.257  1.00  0.00     0.043 C 
BRANCH   5   6
ATOM      6  C   UNL     1       6.621   1.004  -0.859  1.00  0.00    -0.044 A 
ATOM      7  C   UNL     1       7.953   1.371  -0.662  1.00  0.00     0.008 A 
ATOM      8  C   UNL     1       6.370  -0.111  -1.624  1.00  0.00     0.054 A 
ATOM      9  C   UNL     1       8.944   0.614  -1.233  1.00  0.00     0.051 A 
ATOM     10  C   UNL     1       7.403  -0.867  -2.197  1.00  0.00     0.166 A 
ATOM     11  C   UNL     1       8.718  -0.505  -2.003  1.00  0.00     0.165 A 
ATOM     12  O   UNL     1       7.448  -2.006  -2.992  1.00  0.00    -0.454 OA
ATOM     13  O   UNL     1       9.540  -1.418  -2.676  1.00  0.00    -0.454 OA
ATOM     14  C   UNL     1       8.745  -2.571  -2.861  1.00  0.00     0.468 C 
ENDBRANCH   5   6
ENDBRANCH   1   5
TORSDOF 3
ENDMDL
MODEL 2
REMARK VINA RESULT:      -7.0      1.830      2.296
REMARK SMILES CC(=O)CCc1ccc2c(c1)OCO2
REMARK SMILES IDX 4 1 2 2 1 3 3 4 5 5 6 6 7 7 11 8 8 9 10 10 9 11 12 12 14 13
REMARK SMILES IDX 13 14
REMARK H PARENT
REMARK Flexibility Score: inf
ROOT
ATOM      1  C   UNL     1       5.982   1.576  -0.314  1.00  0.00     0.080 C 
ENDROOT
BRANCH   1   2
ATOM      2  C   UNL     1       5.247   1.476   0.960  1.00  0.00     0.130 C 
ATOM      3  C   UNL     1       5.723   0.384   1.902  1.00  0.00     0.087 C 
ATOM      4  O   UNL     1       4.329   2.150   1.334  1.00  0.00    -0.300 OA
ENDBRANCH   1   2
BRANCH   1   5
ATOM      5  C   UNL     1       7.389   1.123  -0.291  1.00  0.00     0.043 C 
BRANCH   5   6
ATOM      6  C   UNL     1       7.683  -0.180  -0.894  1.00  0.00    -0.044 A 
ATOM      7  C   UNL     1       7.796  -0.353  -2.274  1.00  0.00     0.008 A 
ATOM      8  C   UNL     1       7.886  -1.279  -0.092  1.00  0.00     0.054 A 
ATOM      9  C   UNL     1       8.100  -1.595  -2.768  1.00  0.00     0.051 A 
ATOM     10  C   UNL     1       8.197  -2.540  -0.624  1.00  0.00     0.166 A 
ATOM     11  C   UNL     1       8.308  -2.711  -1.987  1.00  0.00     0.165 A 
ATOM     12  O   UNL     1       8.448  -3.791  -0.075  1.00  0.00    -0.454 OA
ATOM     13  O   UNL     1       8.622  -4.050  -2.248  1.00  0.00    -0.454 OA
ATOM     14  C   UNL     1       9.160  -4.550  -1.042  1.00  0.00     0.468 C 
ENDBRANCH   5   6
ENDBRANCH   1   5
TORSDOF 3
ENDMDL
MODEL 3
REMARK VINA RESULT:      -6.9      1.006      1.089
REMARK SMILES CC(=O)CCc1ccc2c(c1)OCO2
REMARK SMILES IDX 4 1 2 2 1 3 3 4 5 5 6 6 7 7 11 8 8 9 10 10 9 11 12 12 14 13
REMARK SMILES IDX 13 14
REMARK H PARENT
REMARK Flexibility Score: inf
ROOT
ATOM      1  C   UNL     1       6.193   1.290   0.883  1.00  0.00     0.080 C 
ENDROOT
BRANCH   1   2
ATOM      2  C   UNL     1       5.562   0.445   1.913  1.00  0.00     0.130 C 
ATOM      3  C   UNL     1       6.371  -0.767   2.345  1.00  0.00     0.087 C 
ATOM      4  O   UNL     1       4.499   0.600   2.442  1.00  0.00    -0.300 OA
ENDBRANCH   1   2
BRANCH   1   5
ATOM      5  C   UNL     1       5.884   0.946  -0.521  1.00  0.00     0.043 C 
BRANCH   5   6
ATOM      6  C   UNL     1       6.898   0.193  -1.265  1.00  0.00    -0.044 A 
ATOM      7  C   UNL     1       7.966   0.820  -1.910  1.00  0.00     0.008 A 
ATOM      8  C   UNL     1       6.833  -1.180  -1.321  1.00  0.00     0.054 A 
ATOM      9  C   UNL     1       8.893   0.051  -2.565  1.00  0.00     0.051 A 
ATOM     10  C   UNL     1       7.796  -1.942  -1.999  1.00  0.00     0.166 A 
ATOM     11  C   UNL     1       8.849  -1.324  -2.636  1.00  0.00     0.165 A 
ATOM     12  O   UNL     1       7.982  -3.302  -2.217  1.00  0.00    -0.454 OA
ATOM     13  O   UNL     1       9.656  -2.304  -3.228  1.00  0.00    -0.454 OA
ATOM     14  C   UNL     1       9.349  -3.502  -2.545  1.00  0.00     0.468 C 
ENDBRANCH   5   6
ENDBRANCH   1   5
TORSDOF 3
ENDMDL
MODEL 4
REMARK VINA RESULT:      -6.8      1.171      1.663
REMARK SMILES CC(=O)CCc1ccc2c(c1)OCO2
REMARK SMILES IDX 4 1 2 2 1 3 3 4 5 5 6 6 7 7 11 8 8 9 10 10 9 11 12 12 14 13
REMARK SMILES IDX 13 14
REMARK H PARENT
REMARK Flexibility Score: inf
ROOT
ATOM      1  C   UNL     1       5.389  -0.067   1.946  1.00  0.00     0.080 C 
ENDROOT
BRANCH   1   2
ATOM      2  C   UNL     1       4.443   1.059   1.841  1.00  0.00     0.130 C 
ATOM      3  C   UNL     1       4.772   2.087   0.773  1.00  0.00     0.087 C 
ATOM      4  O   UNL     1       3.456   1.253   2.493  1.00  0.00    -0.300 OA
ENDBRANCH   1   2
BRANCH   1   5
ATOM      5  C   UNL     1       6.810   0.251   1.694  1.00  0.00     0.043 C 
BRANCH   5   6
ATOM      6  C   UNL     1       7.350  -0.093   0.375  1.00  0.00    -0.044 A 
ATOM      7  C   UNL     1       7.785   0.880  -0.527  1.00  0.00     0.008 A 
ATOM      8  C   UNL     1       7.468  -1.411   0.002  1.00  0.00     0.054 A 
ATOM      9  C   UNL     1       8.304   0.486  -1.732  1.00  0.00     0.051 A 
ATOM     10  C   UNL     1       8.004  -1.786  -1.239  1.00  0.00     0.166 A 
ATOM     11  C   UNL     1       8.433  -0.827  -2.130  1.00  0.00     0.165 A 
ATOM     12  O   UNL     1       8.239  -3.003  -1.869  1.00  0.00    -0.454 OA
ATOM     13  O   UNL     1       8.919  -1.463  -3.279  1.00  0.00    -0.454 OA
ATOM     14  C   UNL     1       9.216  -2.784  -2.876  1.00  0.00     0.468 C 
ENDBRANCH   5   6
ENDBRANCH   1   5
TORSDOF 3
ENDMDL
MODEL 5
REMARK VINA RESULT:      -6.8      1.966      2.542
REMARK SMILES CC(=O)CCc1ccc2c(c1)OCO2
REMARK SMILES IDX 4 1 2 2 1 3 3 4 5 5 6 6 7 7 11 8 8 9 10 10 9 11 12 12 14 13
REMARK SMILES IDX 13 14
REMARK H PARENT
REMARK Flexibility Score: inf
ROOT
ATOM      1  C   UNL     1       5.643  -0.053   2.133  1.00  0.00     0.080 C 
ENDROOT
BRANCH   1   2
ATOM      2  C   UNL     1       4.642   0.992   1.855  1.00  0.00     0.130 C 
ATOM      3  C   UNL     1       4.982   1.930   0.709  1.00  0.00     0.087 C 
ATOM      4  O   UNL     1       3.603   1.185   2.420  1.00  0.00    -0.300 OA
ENDBRANCH   1   2
BRANCH   1   5
ATOM      5  C   UNL     1       6.975   0.141   1.522  1.00  0.00     0.043 C 
BRANCH   5   6
ATOM      6  C   UNL     1       7.372  -0.796   0.469  1.00  0.00    -0.044 A 
ATOM      7  C   UNL     1       7.318  -0.460  -0.885  1.00  0.00     0.008 A 
ATOM      8  C   UNL     1       7.844  -2.045   0.800  1.00  0.00     0.054 A 
ATOM      9  C   UNL     1       7.731  -1.378  -1.817  1.00  0.00     0.051 A 
ATOM     10  C   UNL     1       8.261  -2.965  -0.175  1.00  0.00     0.166 A 
ATOM     11  C   UNL     1       8.207  -2.634  -1.511  1.00  0.00     0.165 A 
ATOM     12  O   UNL     1       8.766  -4.259  -0.137  1.00  0.00    -0.454 OA
ATOM     13  O   UNL     1       8.676  -3.718  -2.263  1.00  0.00    -0.454 OA
ATOM     14  C   UNL     1       9.442  -4.492  -1.364  1.00  0.00     0.468 C 
ENDBRANCH   5   6
ENDBRANCH   1   5
TORSDOF 3
ENDMDL
