@<TRIPOS>MOLECULE
/home/cewinharhar/GITHUB/reincatalyze/data/processed/docking_pred/2023-May-31-1727_sub9_nm5_bs15_s42_ex16_mel10_mts10000_k50_ec075_g099_lra3e-4_lrc3e-3/2f41e52dfc6618f39d2325611a45b0a1c53476a0_ligand_9.pdbqt
 14 15 0 0 0
SMALL
GASTEIGER

@<TRIPOS>ATOM
      1  C          5.5200    1.9050    1.2130 C.3     1  UNL1        0.0800
      2  C          5.0100    0.7630    1.9930 C.2     1  UNL1        0.1300
      3  C          5.9700   -0.4060    2.1370 C.3     1  UNL1        0.0870
      4  O          3.9390    0.6510    2.5200 O.2     1  UNL1       -0.3000
      5  C          5.5100    1.7470   -0.2570 C.3     1  UNL1        0.0430
      6  C          6.6210    1.0040   -0.8590 C.2     1  UNL1       -0.0440
      7  C          7.9530    1.3710   -0.6620 C.2     1  UNL1        0.0080
      8  C          6.3700   -0.1110   -1.6240 C.2     1  UNL1        0.0540
      9  C          8.9440    0.6140   -1.2330 C.2     1  UNL1        0.0510
     10  C          7.4030   -0.8670   -2.1970 C.2     1  UNL1        0.1660
     11  C          8.7180   -0.5050   -2.0030 C.2     1  UNL1        0.1650
     12  O          7.4480   -2.0060   -2.9920 O.2     1  UNL1       -0.4540
     13  O          9.5400   -1.4180   -2.6760 O.2     1  UNL1       -0.4540
     14  C          8.7450   -2.5710   -2.8610 C.3     1  UNL1        0.4680
@<TRIPOS>BOND
     1    12    14    1
     2    12    10    1
     3    14    13    1
     4    13    11    1
     5    10    11    2
     6    10     8    1
     7    11     9    1
     8     8     6    2
     9     9     7    2
    10     6     7    1
    11     6     5    1
    12     5     1    1
    13     1     2    1
    14     2     3    1
    15     2     4    2
