MODEL 1
REMARK VINA RESULT:      -7.7      0.000      0.000
REMARK SMILES CC(=O)CCc1ccc2c(c1)OCO2
REMARK SMILES IDX 4 1 2 2 1 3 3 4 5 5 6 6 7 7 11 8 8 9 10 10 9 11 12 12 14 13
REMARK SMILES IDX 13 14
REMARK H PARENT
REMARK Flexibility Score: inf
ROOT
ATOM      1  C   UNL     1       5.530   1.881   1.221  1.00  0.00     0.080 C 
ENDROOT
BRANCH   1   2
ATOM      2  C   UNL     1       4.987   0.751   1.996  1.00  0.00     0.130 C 
ATOM      3  C   UNL     1       5.901  -0.457   2.111  1.00  0.00     0.087 C 
ATOM      4  O   UNL     1       3.922   0.676   2.539  1.00  0.00    -0.300 OA
ENDBRANCH   1   2
BRANCH   1   5
ATOM      5  C   UNL     1       5.516   1.729  -0.249  1.00  0.00     0.043 C 
BRANCH   5   6
ATOM      6  C   UNL     1       6.623   0.984  -0.856  1.00  0.00    -0.044 A 
ATOM      7  C   UNL     1       7.956   1.362  -0.687  1.00  0.00     0.008 A 
ATOM      8  C   UNL     1       6.368  -0.145  -1.599  1.00  0.00     0.054 A 
ATOM      9  C   UNL     1       8.942   0.603  -1.261  1.00  0.00     0.051 A 
ATOM     10  C   UNL     1       7.397  -0.904  -2.175  1.00  0.00     0.166 A 
ATOM     11  C   UNL     1       8.712  -0.530  -2.009  1.00  0.00     0.165 A 
ATOM     12  O   UNL     1       7.438  -2.056  -2.952  1.00  0.00    -0.454 OA
ATOM     13  O   UNL     1       9.530  -1.449  -2.679  1.00  0.00    -0.454 OA
ATOM     14  C   UNL     1       8.740  -2.610  -2.832  1.00  0.00     0.468 C 
ENDBRANCH   5   6
ENDBRANCH   1   5
TORSDOF 3
ENDMDL
MODEL 2
REMARK VINA RESULT:      -7.1      1.835      2.300
REMARK SMILES CC(=O)CCc1ccc2c(c1)OCO2
REMARK SMILES IDX 4 1 2 2 1 3 3 4 5 5 6 6 7 7 11 8 8 9 10 10 9 11 12 12 14 13
REMARK SMILES IDX 13 14
REMARK H PARENT
REMARK Flexibility Score: inf
ROOT
ATOM      1  C   UNL     1       5.717   1.256  -0.311  1.00  0.00     0.080 C 
ENDROOT
BRANCH   1   2
ATOM      2  C   UNL     1       5.109   1.310   1.030  1.00  0.00     0.130 C 
ATOM      3  C   UNL     1       5.462   0.155   1.951  1.00  0.00     0.087 C 
ATOM      4  O   UNL     1       4.377   2.150   1.473  1.00  0.00    -0.300 OA
ENDBRANCH   1   2
BRANCH   1   5
ATOM      5  C   UNL     1       7.167   0.971  -0.358  1.00  0.00     0.043 C 
BRANCH   5   6
ATOM      6  C   UNL     1       7.579  -0.313  -0.931  1.00  0.00    -0.044 A 
ATOM      7  C   UNL     1       7.781  -0.486  -2.301  1.00  0.00     0.008 A 
ATOM      8  C   UNL     1       7.808  -1.392  -0.109  1.00  0.00     0.054 A 
ATOM      9  C   UNL     1       8.193  -1.708  -2.765  1.00  0.00     0.051 A 
ATOM     10  C   UNL     1       8.230  -2.633  -0.611  1.00  0.00     0.166 A 
ATOM     11  C   UNL     1       8.428  -2.803  -1.963  1.00  0.00     0.165 A 
ATOM     12  O   UNL     1       8.530  -3.862  -0.037  1.00  0.00    -0.454 OA
ATOM     13  O   UNL     1       8.843  -4.121  -2.195  1.00  0.00    -0.454 OA
ATOM     14  C   UNL     1       9.343  -4.578  -0.955  1.00  0.00     0.468 C 
ENDBRANCH   5   6
ENDBRANCH   1   5
TORSDOF 3
ENDMDL
MODEL 3
REMARK VINA RESULT:      -7.0      1.050      1.119
REMARK SMILES CC(=O)CCc1ccc2c(c1)OCO2
REMARK SMILES IDX 4 1 2 2 1 3 3 4 5 5 6 6 7 7 11 8 8 9 10 10 9 11 12 12 14 13
REMARK SMILES IDX 13 14
REMARK H PARENT
REMARK Flexibility Score: inf
ROOT
ATOM      1  C   UNL     1       6.161   1.272   0.894  1.00  0.00     0.080 C 
ENDROOT
BRANCH   1   2
ATOM      2  C   UNL     1       5.467   0.446   1.899  1.00  0.00     0.130 C 
ATOM      3  C   UNL     1       6.231  -0.779   2.372  1.00  0.00     0.087 C 
ATOM      4  O   UNL     1       4.385   0.628   2.379  1.00  0.00    -0.300 OA
ENDBRANCH   1   2
BRANCH   1   5
ATOM      5  C   UNL     1       5.852   0.973  -0.520  1.00  0.00     0.043 C 
BRANCH   5   6
ATOM      6  C   UNL     1       6.839   0.192  -1.271  1.00  0.00    -0.044 A 
ATOM      7  C   UNL     1       7.817   0.795  -2.064  1.00  0.00     0.008 A 
ATOM      8  C   UNL     1       6.840  -1.180  -1.187  1.00  0.00     0.054 A 
ATOM      9  C   UNL     1       8.726   0.004  -2.718  1.00  0.00     0.051 A 
ATOM     10  C   UNL     1       7.782  -1.966  -1.867  1.00  0.00     0.166 A 
ATOM     11  C   UNL     1       8.747  -1.372  -2.650  1.00  0.00     0.165 A 
ATOM     12  O   UNL     1       8.019  -3.332  -1.966  1.00  0.00    -0.454 OA
ATOM     13  O   UNL     1       9.552  -2.372  -3.210  1.00  0.00    -0.454 OA
ATOM     14  C   UNL     1       9.363  -3.506  -2.389  1.00  0.00     0.468 C 
ENDBRANCH   5   6
ENDBRANCH   1   5
TORSDOF 3
ENDMDL
MODEL 4
REMARK VINA RESULT:      -6.9      1.837      2.433
REMARK SMILES CC(=O)CCc1ccc2c(c1)OCO2
REMARK SMILES IDX 4 1 2 2 1 3 3 4 5 5 6 6 7 7 11 8 8 9 10 10 9 11 12 12 14 13
REMARK SMILES IDX 13 14
REMARK H PARENT
REMARK Flexibility Score: inf
ROOT
ATOM      1  C   UNL     1       6.541   1.059   1.182  1.00  0.00     0.080 C 
ENDROOT
BRANCH   1   2
ATOM      2  C   UNL     1       5.217   1.656   0.929  1.00  0.00     0.130 C 
ATOM      3  C   UNL     1       4.988   2.150  -0.489  1.00  0.00     0.087 C 
ATOM      4  O   UNL     1       4.313   1.795   1.702  1.00  0.00    -0.300 OA
ENDBRANCH   1   2
BRANCH   1   5
ATOM      5  C   UNL     1       7.498   1.096   0.057  1.00  0.00     0.043 C 
BRANCH   5   6
ATOM      6  C   UNL     1       7.776  -0.169  -0.630  1.00  0.00    -0.044 A 
ATOM      7  C   UNL     1       7.894  -0.252  -2.018  1.00  0.00     0.008 A 
ATOM      8  C   UNL     1       7.957  -1.322   0.098  1.00  0.00     0.054 A 
ATOM      9  C   UNL     1       8.181  -1.464  -2.591  1.00  0.00     0.051 A 
ATOM     10  C   UNL     1       8.251  -2.550  -0.515  1.00  0.00     0.166 A 
ATOM     11  C   UNL     1       8.367  -2.631  -1.885  1.00  0.00     0.165 A 
ATOM     12  O   UNL     1       8.479  -3.839  -0.049  1.00  0.00    -0.454 OA
ATOM     13  O   UNL     1       8.661  -3.956  -2.234  1.00  0.00    -0.454 OA
ATOM     14  C   UNL     1       9.184  -4.543  -1.060  1.00  0.00     0.468 C 
ENDBRANCH   5   6
ENDBRANCH   1   5
TORSDOF 3
ENDMDL
MODEL 5
REMARK VINA RESULT:      -6.8      1.162      1.655
REMARK SMILES CC(=O)CCc1ccc2c(c1)OCO2
REMARK SMILES IDX 4 1 2 2 1 3 3 4 5 5 6 6 7 7 11 8 8 9 10 10 9 11 12 12 14 13
REMARK SMILES IDX 13 14
REMARK H PARENT
REMARK Flexibility Score: inf
ROOT
ATOM      1  C   UNL     1       5.365  -0.093   1.924  1.00  0.00     0.080 C 
ENDROOT
BRANCH   1   2
ATOM      2  C   UNL     1       4.443   1.055   1.856  1.00  0.00     0.130 C 
ATOM      3  C   UNL     1       4.787   2.104   0.812  1.00  0.00     0.087 C 
ATOM      4  O   UNL     1       3.465   1.253   2.519  1.00  0.00    -0.300 OA
ENDBRANCH   1   2
BRANCH   1   5
ATOM      5  C   UNL     1       6.793   0.204   1.685  1.00  0.00     0.043 C 
BRANCH   5   6
ATOM      6  C   UNL     1       7.335  -0.129   0.365  1.00  0.00    -0.044 A 
ATOM      7  C   UNL     1       7.747   0.852  -0.539  1.00  0.00     0.008 A 
ATOM      8  C   UNL     1       7.478  -1.444  -0.009  1.00  0.00     0.054 A 
ATOM      9  C   UNL     1       8.269   0.469  -1.747  1.00  0.00     0.051 A 
ATOM     10  C   UNL     1       8.017  -1.809  -1.253  1.00  0.00     0.166 A 
ATOM     11  C   UNL     1       8.423  -0.841  -2.145  1.00  0.00     0.165 A 
ATOM     12  O   UNL     1       8.274  -3.021  -1.883  1.00  0.00    -0.454 OA
ATOM     13  O   UNL     1       8.917  -1.468  -3.296  1.00  0.00    -0.454 OA
ATOM     14  C   UNL     1       9.242  -2.783  -2.894  1.00  0.00     0.468 C 
ENDBRANCH   5   6
ENDBRANCH   1   5
TORSDOF 3
ENDMDL
