@<TRIPOS>MOLECULE
/home/cewinharhar/GITHUB/reincatalyze/data/processed/docking_pred/2023-May-31-1727_sub9_nm5_bs15_s42_ex16_mel10_mts10000_k50_ec075_g099_lra3e-4_lrc3e-3/30246d56752cb6be0208f58fab85103c625ac011_ligand_9.pdbqt
 14 15 0 0 0
SMALL
GASTEIGER

@<TRIPOS>ATOM
      1  C          6.5410    1.0590    1.1820 C.3     1  UNL1        0.0800
      2  C          5.2170    1.6560    0.9290 C.2     1  UNL1        0.1300
      3  C          4.9880    2.1500   -0.4890 C.3     1  UNL1        0.0870
      4  O          4.3130    1.7950    1.7020 O.2     1  UNL1       -0.3000
      5  C          7.4980    1.0960    0.0570 C.3     1  UNL1        0.0430
      6  C          7.7760   -0.1690   -0.6300 C.2     1  UNL1       -0.0440
      7  C          7.8940   -0.2520   -2.0180 C.2     1  UNL1        0.0080
      8  C          7.9570   -1.3220    0.0980 C.2     1  UNL1        0.0540
      9  C          8.1810   -1.4640   -2.5910 C.2     1  UNL1        0.0510
     10  C          8.2510   -2.5500   -0.5150 C.2     1  UNL1        0.1660
     11  C          8.3670   -2.6310   -1.8850 C.2     1  UNL1        0.1650
     12  O          8.4790   -3.8390   -0.0490 O.2     1  UNL1       -0.4540
     13  O          8.6610   -3.9560   -2.2340 O.2     1  UNL1       -0.4540
     14  C          9.1840   -4.5430   -1.0600 C.3     1  UNL1        0.4680
@<TRIPOS>BOND
     1     9     7    1
     2     9    11    2
     3    13    11    1
     4    13    14    1
     5     7     6    2
     6    11    10    1
     7    14    12    1
     8     6     5    1
     9     6     8    1
    10    10    12    1
    11    10     8    2
    12     3     2    1
    13     5     1    1
    14     2     1    1
    15     2     4    2
