@<TRIPOS>MOLECULE
/home/cewinharhar/GITHUB/reincatalyze/data/processed/docking_pred/2023-May-31-1727_sub9_nm5_bs15_s42_ex16_mel10_mts10000_k50_ec075_g099_lra3e-4_lrc3e-3/30246d56752cb6be0208f58fab85103c625ac011_ligand_9.pdbqt
 14 15 0 0 0
SMALL
GASTEIGER

@<TRIPOS>ATOM
      1  C          6.1610    1.2720    0.8940 C.3     1  UNL1        0.0800
      2  C          5.4670    0.4460    1.8990 C.2     1  UNL1        0.1300
      3  C          6.2310   -0.7790    2.3720 C.3     1  UNL1        0.0870
      4  O          4.3850    0.6280    2.3790 O.2     1  UNL1       -0.3000
      5  C          5.8520    0.9730   -0.5200 C.3     1  UNL1        0.0430
      6  C          6.8390    0.1920   -1.2710 C.2     1  UNL1       -0.0440
      7  C          7.8170    0.7950   -2.0640 C.2     1  UNL1        0.0080
      8  C          6.8400   -1.1800   -1.1870 C.2     1  UNL1        0.0540
      9  C          8.7260    0.0040   -2.7180 C.2     1  UNL1        0.0510
     10  C          7.7820   -1.9660   -1.8670 C.2     1  UNL1        0.1660
     11  C          8.7470   -1.3720   -2.6500 C.2     1  UNL1        0.1650
     12  O          8.0190   -3.3320   -1.9660 O.2     1  UNL1       -0.4540
     13  O          9.5520   -2.3720   -3.2100 O.2     1  UNL1       -0.4540
     14  C          9.3630   -3.5060   -2.3890 C.3     1  UNL1        0.4680
@<TRIPOS>BOND
     1    13    11    1
     2    13    14    1
     3     9    11    2
     4     9     7    1
     5    11    10    1
     6    14    12    1
     7     7     6    2
     8    12    10    1
     9    10     8    2
    10     6     8    1
    11     6     5    1
    12     5     1    1
    13     1     2    1
    14     2     3    1
    15     2     4    2
