@<TRIPOS>MOLECULE
/home/cewinharhar/GITHUB/reincatalyze/data/processed/docking_pred/2023-May-31-1727_sub9_nm5_bs15_s42_ex16_mel10_mts10000_k50_ec075_g099_lra3e-4_lrc3e-3/306d1dfeb5e1085b4f3e24b09348dc81ae645662_ligand_9.pdbqt
 14 15 0 0 0
SMALL
GASTEIGER

@<TRIPOS>ATOM
      1  C          5.7060    0.0560    1.9910 C.3     1  UNL1        0.0800
      2  C          4.7050    1.1010    1.7130 C.2     1  UNL1        0.1300
      3  C          5.0280    2.0180    0.5460 C.3     1  UNL1        0.0870
      4  O          3.6770    1.3080    2.2950 O.2     1  UNL1       -0.3000
      5  C          7.0220    0.2250    1.3390 C.3     1  UNL1        0.0430
      6  C          7.4010   -0.7640    0.3270 C.2     1  UNL1       -0.0440
      7  C          7.3340   -0.4930   -1.0410 C.2     1  UNL1        0.0080
      8  C          7.8680   -1.9990    0.7120 C.2     1  UNL1        0.0540
      9  C          7.7300   -1.4570   -1.9320 C.2     1  UNL1        0.0510
     10  C          8.2670   -2.9670   -0.2220 C.2     1  UNL1        0.1660
     11  C          8.2000   -2.7000   -1.5720 C.2     1  UNL1        0.1650
     12  O          8.7650   -4.2620   -0.1280 O.2     1  UNL1       -0.4540
     13  O          8.6530   -3.8230   -2.2760 O.2     1  UNL1       -0.4540
     14  C          9.4250   -4.5580   -1.3500 C.3     1  UNL1        0.4680
@<TRIPOS>BOND
     1    13    11    1
     2    13    14    1
     3     9    11    2
     4     9     7    1
     5    11    10    1
     6    14    12    1
     7     7     6    2
     8    10    12    1
     9    10     8    2
    10     6     8    1
    11     6     5    1
    12     3     2    1
    13     5     1    1
    14     2     1    1
    15     2     4    2
