@<TRIPOS>MOLECULE
/home/cewinharhar/GITHUB/reincatalyze/data/processed/docking_pred/2023-May-31-1727_sub9_nm5_bs15_s42_ex16_mel10_mts10000_k50_ec075_g099_lra3e-4_lrc3e-3/3109bb1a4c888d48ff6ee722b945383cff227a99_ligand_9.pdbqt
 14 15 0 0 0
SMALL
GASTEIGER

@<TRIPOS>ATOM
      1  C          6.2130    1.2000    0.9110 C.3     1  UNL1        0.0800
      2  C          5.5480    0.3670    1.9300 C.2     1  UNL1        0.1300
      3  C          6.3380   -0.8440    2.3960 C.3     1  UNL1        0.0870
      4  O          4.4710    0.5340    2.4280 O.2     1  UNL1       -0.3000
      5  C          5.8790    0.8970   -0.4960 C.3     1  UNL1        0.0430
      6  C          6.8610    0.1300   -1.2680 C.2     1  UNL1       -0.0440
      7  C          7.8250    0.7470   -2.0670 C.2     1  UNL1        0.0080
      8  C          6.8710   -1.2440   -1.1980 C.2     1  UNL1        0.0540
      9  C          8.7300   -0.0320   -2.7400 C.2     1  UNL1        0.0510
     10  C          7.8100   -2.0170   -1.8980 C.2     1  UNL1        0.1660
     11  C          8.7610   -1.4080   -2.6870 C.2     1  UNL1        0.1650
     12  O          8.0540   -3.3800   -2.0140 O.2     1  UNL1       -0.4540
     13  O          9.5650   -2.3970   -3.2680 O.2     1  UNL1       -0.4540
     14  C          9.3930   -3.5410   -2.4570 C.3     1  UNL1        0.4680
@<TRIPOS>BOND
     1    13    11    1
     2    13    14    1
     3     9    11    2
     4     9     7    1
     5    11    10    1
     6    14    12    1
     7     7     6    2
     8    12    10    1
     9    10     8    2
    10     6     8    1
    11     6     5    1
    12     5     1    1
    13     1     2    1
    14     2     3    1
    15     2     4    2
