@<TRIPOS>MOLECULE
/home/cewinharhar/GITHUB/reincatalyze/data/processed/docking_pred/2023-May-31-1727_sub9_nm5_bs15_s42_ex16_mel10_mts10000_k50_ec075_g099_lra3e-4_lrc3e-3/3110d36e974f17e9d190d2a4a051583463654b40_ligand_9.pdbqt
 14 15 0 0 0
SMALL
GASTEIGER

@<TRIPOS>ATOM
      1  C          5.6660    0.2750    1.8540 C.3     1  UNL1        0.0800
      2  C          4.7470    1.3590    1.4630 C.2     1  UNL1        0.1300
      3  C          5.1530    2.1400    0.2250 C.3     1  UNL1        0.0870
      4  O          3.7290    1.6910    2.0020 O.2     1  UNL1       -0.3000
      5  C          7.0290    0.3400    1.2880 C.3     1  UNL1        0.0430
      6  C          7.3920   -0.6760    0.2960 C.2     1  UNL1       -0.0440
      7  C          7.2970   -0.4440   -1.0770 C.2     1  UNL1        0.0080
      8  C          7.8720   -1.8980    0.7070 C.2     1  UNL1        0.0540
      9  C          7.6800   -1.4300   -1.9480 C.2     1  UNL1        0.0510
     10  C          8.2580   -2.8900   -0.2070 C.2     1  UNL1        0.1660
     11  C          8.1630   -2.6610   -1.5620 C.2     1  UNL1        0.1650
     12  O          8.7630   -4.1790   -0.0870 O.2     1  UNL1       -0.4540
     13  O          8.6070   -3.8010   -2.2440 O.2     1  UNL1       -0.4540
     14  C          9.4000   -4.5080   -1.3130 C.3     1  UNL1        0.4680
@<TRIPOS>BOND
     1    13    11    1
     2    13    14    1
     3     9    11    2
     4     9     7    1
     5    11    10    1
     6    14    12    1
     7     7     6    2
     8    10    12    1
     9    10     8    2
    10     3     2    1
    11     6     8    1
    12     6     5    1
    13     5     1    1
    14     2     1    1
    15     2     4    2
