@<TRIPOS>MOLECULE
/home/cewinharhar/GITHUB/reincatalyze/data/processed/docking_pred/2023-May-31-1727_sub9_nm5_bs15_s42_ex16_mel10_mts10000_k50_ec075_g099_lra3e-4_lrc3e-3/3110d36e974f17e9d190d2a4a051583463654b40_ligand_9.pdbqt
 14 15 0 0 0
SMALL
GASTEIGER

@<TRIPOS>ATOM
      1  C          6.2210    1.2100    0.8880 C.3     1  UNL1        0.0800
      2  C          5.5340    0.4150    1.9220 C.2     1  UNL1        0.1300
      3  C          6.2830   -0.8190    2.3970 C.3     1  UNL1        0.0870
      4  O          4.4680    0.6260    2.4250 O.2     1  UNL1       -0.3000
      5  C          5.8730    0.8950   -0.5140 C.3     1  UNL1        0.0430
      6  C          6.8480    0.1240   -1.2900 C.2     1  UNL1       -0.0440
      7  C          7.7770    0.7340   -2.1340 C.2     1  UNL1        0.0080
      8  C          6.8880   -1.2470   -1.1780 C.2     1  UNL1        0.0540
      9  C          8.6780   -0.0480   -2.8090 C.2     1  UNL1        0.0510
     10  C          7.8220   -2.0230   -1.8810 C.2     1  UNL1        0.1660
     11  C          8.7380   -1.4210   -2.7150 C.2     1  UNL1        0.1650
     12  O          8.0890   -3.3840   -1.9620 O.2     1  UNL1       -0.4540
     13  O          9.5440   -2.4120   -3.2880 O.2     1  UNL1       -0.4540
     14  C          9.4190   -3.5330   -2.4380 C.3     1  UNL1        0.4680
@<TRIPOS>BOND
     1    13    11    1
     2    13    14    1
     3     9    11    2
     4     9     7    1
     5    11    10    1
     6    14    12    1
     7     7     6    2
     8    12    10    1
     9    10     8    2
    10     6     8    1
    11     6     5    1
    12     5     1    1
    13     1     2    1
    14     2     3    1
    15     2     4    2
