@<TRIPOS>MOLECULE
/home/cewinharhar/GITHUB/reincatalyze/data/processed/docking_pred/2023-May-31-1727_sub9_nm5_bs15_s42_ex16_mel10_mts10000_k50_ec075_g099_lra3e-4_lrc3e-3/3110d36e974f17e9d190d2a4a051583463654b40_ligand_9.pdbqt
 14 15 0 0 0
SMALL
GASTEIGER

@<TRIPOS>ATOM
      1  C          5.5870    1.9050    1.2190 C.3     1  UNL1        0.0800
      2  C          5.0930    0.7560    1.9990 C.2     1  UNL1        0.1300
      3  C          6.0820   -0.3840    2.1760 C.3     1  UNL1        0.0870
      4  O          4.0150    0.6190    2.5040 O.2     1  UNL1       -0.3000
      5  C          5.5680    1.7510   -0.2500 C.3     1  UNL1        0.0430
      6  C          6.6670    0.9950   -0.8590 C.2     1  UNL1       -0.0440
      7  C          8.0050    1.3470   -0.6740 C.2     1  UNL1        0.0080
      8  C          6.3980   -0.1180   -1.6210 C.2     1  UNL1        0.0540
      9  C          8.9820    0.5790   -1.2510 C.2     1  UNL1        0.0510
     10  C          7.4180   -0.8870   -2.2000 C.2     1  UNL1        0.1660
     11  C          8.7390   -0.5390   -2.0170 C.2     1  UNL1        0.1650
     12  O          7.4450   -2.0280   -2.9930 O.2     1  UNL1       -0.4540
     13  O          9.5450   -1.4630   -2.6940 O.2     1  UNL1       -0.4540
     14  C          8.7360   -2.6070   -2.8710 C.3     1  UNL1        0.4680
@<TRIPOS>BOND
     1    12    14    1
     2    12    10    1
     3    14    13    1
     4    13    11    1
     5    10    11    2
     6    10     8    1
     7    11     9    1
     8     8     6    2
     9     9     7    2
    10     6     7    1
    11     6     5    1
    12     5     1    1
    13     1     2    1
    14     2     3    1
    15     2     4    2
