MODEL 1
REMARK VINA RESULT:      -7.7      0.000      0.000
REMARK SMILES CC(=O)CCc1ccc2c(c1)OCO2
REMARK SMILES IDX 4 1 2 2 1 3 3 4 5 5 6 6 7 7 11 8 8 9 10 10 9 11 12 12 14 13
REMARK SMILES IDX 13 14
REMARK H PARENT
REMARK Flexibility Score: inf
ROOT
ATOM      1  C   UNL     1       5.506   1.899   1.209  1.00  0.00     0.080 C 
ENDROOT
BRANCH   1   2
ATOM      2  C   UNL     1       4.996   0.762   1.997  1.00  0.00     0.130 C 
ATOM      3  C   UNL     1       5.941  -0.421   2.118  1.00  0.00     0.087 C 
ATOM      4  O   UNL     1       3.936   0.665   2.547  1.00  0.00    -0.300 OA
ENDBRANCH   1   2
BRANCH   1   5
ATOM      5  C   UNL     1       5.492   1.732  -0.259  1.00  0.00     0.043 C 
BRANCH   5   6
ATOM      6  C   UNL     1       6.608   0.997  -0.861  1.00  0.00    -0.044 A 
ATOM      7  C   UNL     1       7.938   1.379  -0.674  1.00  0.00     0.008 A 
ATOM      8  C   UNL     1       6.365  -0.126  -1.618  1.00  0.00     0.054 A 
ATOM      9  C   UNL     1       8.933   0.629  -1.244  1.00  0.00     0.051 A 
ATOM     10  C   UNL     1       7.404  -0.876  -2.190  1.00  0.00     0.166 A 
ATOM     11  C   UNL     1       8.716  -0.498  -2.005  1.00  0.00     0.165 A 
ATOM     12  O   UNL     1       7.458  -2.019  -2.977  1.00  0.00    -0.454 OA
ATOM     13  O   UNL     1       9.545  -1.408  -2.675  1.00  0.00    -0.454 OA
ATOM     14  C   UNL     1       8.760  -2.570  -2.848  1.00  0.00     0.468 C 
ENDBRANCH   5   6
ENDBRANCH   1   5
TORSDOF 3
ENDMDL
MODEL 2
REMARK VINA RESULT:      -7.0      1.849      2.317
REMARK SMILES CC(=O)CCc1ccc2c(c1)OCO2
REMARK SMILES IDX 4 1 2 2 1 3 3 4 5 5 6 6 7 7 11 8 8 9 10 10 9 11 12 12 14 13
REMARK SMILES IDX 13 14
REMARK H PARENT
REMARK Flexibility Score: inf
ROOT
ATOM      1  C   UNL     1       5.944   1.537  -0.187  1.00  0.00     0.080 C 
ENDROOT
BRANCH   1   2
ATOM      2  C   UNL     1       5.140   1.393   1.040  1.00  0.00     0.130 C 
ATOM      3  C   UNL     1       5.475   0.185   1.899  1.00  0.00     0.087 C 
ATOM      4  O   UNL     1       4.263   2.109   1.434  1.00  0.00    -0.300 OA
ENDBRANCH   1   2
BRANCH   1   5
ATOM      5  C   UNL     1       7.334   1.039  -0.117  1.00  0.00     0.043 C 
BRANCH   5   6
ATOM      6  C   UNL     1       7.616  -0.251  -0.752  1.00  0.00    -0.044 A 
ATOM      7  C   UNL     1       7.598  -0.417  -2.138  1.00  0.00     0.008 A 
ATOM      8  C   UNL     1       7.939  -1.343   0.019  1.00  0.00     0.054 A 
ATOM      9  C   UNL     1       7.898  -1.646  -2.666  1.00  0.00     0.051 A 
ATOM     10  C   UNL     1       8.243  -2.590  -0.548  1.00  0.00     0.166 A 
ATOM     11  C   UNL     1       8.224  -2.754  -1.916  1.00  0.00     0.165 A 
ATOM     12  O   UNL     1       8.594  -3.832  -0.033  1.00  0.00    -0.454 OA
ATOM     13  O   UNL     1       8.561  -4.081  -2.215  1.00  0.00    -0.454 OA
ATOM     14  C   UNL     1       9.234  -4.562  -1.070  1.00  0.00     0.468 C 
ENDBRANCH   5   6
ENDBRANCH   1   5
TORSDOF 3
ENDMDL
MODEL 3
REMARK VINA RESULT:      -7.0      1.119      1.228
REMARK SMILES CC(=O)CCc1ccc2c(c1)OCO2
REMARK SMILES IDX 4 1 2 2 1 3 3 4 5 5 6 6 7 7 11 8 8 9 10 10 9 11 12 12 14 13
REMARK SMILES IDX 13 14
REMARK H PARENT
REMARK Flexibility Score: inf
ROOT
ATOM      1  C   UNL     1       6.245   1.169   0.919  1.00  0.00     0.080 C 
ENDROOT
BRANCH   1   2
ATOM      2  C   UNL     1       5.556   0.352   1.935  1.00  0.00     0.130 C 
ATOM      3  C   UNL     1       6.322  -0.869   2.416  1.00  0.00     0.087 C 
ATOM      4  O   UNL     1       4.476   0.539   2.420  1.00  0.00    -0.300 OA
ENDBRANCH   1   2
BRANCH   1   5
ATOM      5  C   UNL     1       5.899   0.884  -0.489  1.00  0.00     0.043 C 
BRANCH   5   6
ATOM      6  C   UNL     1       6.866   0.112  -1.274  1.00  0.00    -0.044 A 
ATOM      7  C   UNL     1       7.784   0.720  -2.132  1.00  0.00     0.008 A 
ATOM      8  C   UNL     1       6.909  -1.258  -1.158  1.00  0.00     0.054 A 
ATOM      9  C   UNL     1       8.678  -0.062  -2.815  1.00  0.00     0.051 A 
ATOM     10  C   UNL     1       7.836  -2.035  -1.870  1.00  0.00     0.166 A 
ATOM     11  C   UNL     1       8.741  -1.435  -2.717  1.00  0.00     0.165 A 
ATOM     12  O   UNL     1       8.105  -3.396  -1.949  1.00  0.00    -0.454 OA
ATOM     13  O   UNL     1       9.542  -2.427  -3.296  1.00  0.00    -0.454 OA
ATOM     14  C   UNL     1       9.429  -3.545  -2.441  1.00  0.00     0.468 C 
ENDBRANCH   5   6
ENDBRANCH   1   5
TORSDOF 3
ENDMDL
MODEL 4
REMARK VINA RESULT:      -6.8      1.163      1.650
REMARK SMILES CC(=O)CCc1ccc2c(c1)OCO2
REMARK SMILES IDX 4 1 2 2 1 3 3 4 5 5 6 6 7 7 11 8 8 9 10 10 9 11 12 12 14 13
REMARK SMILES IDX 13 14
REMARK H PARENT
REMARK Flexibility Score: inf
ROOT
ATOM      1  C   UNL     1       5.400  -0.048   1.946  1.00  0.00     0.080 C 
ENDROOT
BRANCH   1   2
ATOM      2  C   UNL     1       4.439   1.065   1.844  1.00  0.00     0.130 C 
ATOM      3  C   UNL     1       4.753   2.099   0.777  1.00  0.00     0.087 C 
ATOM      4  O   UNL     1       3.451   1.246   2.497  1.00  0.00    -0.300 OA
ENDBRANCH   1   2
BRANCH   1   5
ATOM      5  C   UNL     1       6.815   0.287   1.682  1.00  0.00     0.043 C 
BRANCH   5   6
ATOM      6  C   UNL     1       7.353  -0.064   0.365  1.00  0.00    -0.044 A 
ATOM      7  C   UNL     1       7.788   0.902  -0.543  1.00  0.00     0.008 A 
ATOM      8  C   UNL     1       7.468  -1.385  -0.002  1.00  0.00     0.054 A 
ATOM      9  C   UNL     1       8.305   0.500  -1.748  1.00  0.00     0.051 A 
ATOM     10  C   UNL     1       8.002  -1.769  -1.241  1.00  0.00     0.166 A 
ATOM     11  C   UNL     1       8.430  -0.814  -2.138  1.00  0.00     0.165 A 
ATOM     12  O   UNL     1       8.234  -2.989  -1.864  1.00  0.00    -0.454 OA
ATOM     13  O   UNL     1       8.914  -1.459  -3.284  1.00  0.00    -0.454 OA
ATOM     14  C   UNL     1       9.209  -2.778  -2.874  1.00  0.00     0.468 C 
ENDBRANCH   5   6
ENDBRANCH   1   5
TORSDOF 3
ENDMDL
MODEL 5
REMARK VINA RESULT:      -6.7      1.935      2.471
REMARK SMILES CC(=O)CCc1ccc2c(c1)OCO2
REMARK SMILES IDX 4 1 2 2 1 3 3 4 5 5 6 6 7 7 11 8 8 9 10 10 9 11 12 12 14 13
REMARK SMILES IDX 13 14
REMARK H PARENT
REMARK Flexibility Score: inf
ROOT
ATOM      1  C   UNL     1       6.541   0.653   1.681  1.00  0.00     0.080 C 
ENDROOT
BRANCH   1   2
ATOM      2  C   UNL     1       5.191   1.230   1.551  1.00  0.00     0.130 C 
ATOM      3  C   UNL     1       4.989   2.150   0.360  1.00  0.00     0.087 C 
ATOM      4  O   UNL     1       4.246   1.058   2.268  1.00  0.00    -0.300 OA
ENDBRANCH   1   2
BRANCH   1   5
ATOM      5  C   UNL     1       7.426   0.796   0.506  1.00  0.00     0.043 C 
BRANCH   5   6
ATOM      6  C   UNL     1       7.683  -0.408  -0.290  1.00  0.00    -0.044 A 
ATOM      7  C   UNL     1       7.639  -0.401  -1.685  1.00  0.00     0.008 A 
ATOM      8  C   UNL     1       8.006  -1.590   0.334  1.00  0.00     0.054 A 
ATOM      9  C   UNL     1       7.917  -1.558  -2.367  1.00  0.00     0.051 A 
ATOM     10  C   UNL     1       8.286  -2.760  -0.388  1.00  0.00     0.166 A 
ATOM     11  C   UNL     1       8.243  -2.753  -1.765  1.00  0.00     0.165 A 
ATOM     12  O   UNL     1       8.632  -4.060  -0.038  1.00  0.00    -0.454 OA
ATOM     13  O   UNL     1       8.559  -4.035  -2.232  1.00  0.00    -0.454 OA
ATOM     14  C   UNL     1       9.246  -4.661  -1.168  1.00  0.00     0.468 C 
ENDBRANCH   5   6
ENDBRANCH   1   5
TORSDOF 3
ENDMDL
