@<TRIPOS>MOLECULE
/home/cewinharhar/GITHUB/reincatalyze/data/processed/docking_pred/2023-May-31-1727_sub9_nm5_bs15_s42_ex16_mel10_mts10000_k50_ec075_g099_lra3e-4_lrc3e-3/31638bda67923b1bb66f4f033a77b51352de91e4_ligand_9.pdbqt
 14 15 0 0 0
SMALL
GASTEIGER

@<TRIPOS>ATOM
      1  C          5.5060    1.8990    1.2090 C.3     1  UNL1        0.0800
      2  C          4.9960    0.7620    1.9970 C.2     1  UNL1        0.1300
      3  C          5.9410   -0.4210    2.1180 C.3     1  UNL1        0.0870
      4  O          3.9360    0.6650    2.5470 O.2     1  UNL1       -0.3000
      5  C          5.4920    1.7320   -0.2590 C.3     1  UNL1        0.0430
      6  C          6.6080    0.9970   -0.8610 C.2     1  UNL1       -0.0440
      7  C          7.9380    1.3790   -0.6740 C.2     1  UNL1        0.0080
      8  C          6.3650   -0.1260   -1.6180 C.2     1  UNL1        0.0540
      9  C          8.9330    0.6290   -1.2440 C.2     1  UNL1        0.0510
     10  C          7.4040   -0.8760   -2.1900 C.2     1  UNL1        0.1660
     11  C          8.7160   -0.4980   -2.0050 C.2     1  UNL1        0.1650
     12  O          7.4580   -2.0190   -2.9770 O.2     1  UNL1       -0.4540
     13  O          9.5450   -1.4080   -2.6750 O.2     1  UNL1       -0.4540
     14  C          8.7600   -2.5700   -2.8480 C.3     1  UNL1        0.4680
@<TRIPOS>BOND
     1    12    14    1
     2    12    10    1
     3    14    13    1
     4    13    11    1
     5    10    11    2
     6    10     8    1
     7    11     9    1
     8     8     6    2
     9     9     7    2
    10     6     7    1
    11     6     5    1
    12     5     1    1
    13     1     2    1
    14     2     3    1
    15     2     4    2
