@<TRIPOS>MOLECULE
/home/cewinharhar/GITHUB/reincatalyze/data/processed/docking_pred/2023-May-31-1727_sub9_nm5_bs15_s42_ex16_mel10_mts10000_k50_ec075_g099_lra3e-4_lrc3e-3/31638bda67923b1bb66f4f033a77b51352de91e4_ligand_9.pdbqt
 14 15 0 0 0
SMALL
GASTEIGER

@<TRIPOS>ATOM
      1  C          5.9440    1.5370   -0.1870 C.3     1  UNL1        0.0800
      2  C          5.1400    1.3930    1.0400 C.2     1  UNL1        0.1300
      3  C          5.4750    0.1850    1.8990 C.3     1  UNL1        0.0870
      4  O          4.2630    2.1090    1.4340 O.2     1  UNL1       -0.3000
      5  C          7.3340    1.0390   -0.1170 C.3     1  UNL1        0.0430
      6  C          7.6160   -0.2510   -0.7520 C.2     1  UNL1       -0.0440
      7  C          7.5980   -0.4170   -2.1380 C.2     1  UNL1        0.0080
      8  C          7.9390   -1.3430    0.0190 C.2     1  UNL1        0.0540
      9  C          7.8980   -1.6460   -2.6660 C.2     1  UNL1        0.0510
     10  C          8.2430   -2.5900   -0.5480 C.2     1  UNL1        0.1660
     11  C          8.2240   -2.7540   -1.9160 C.2     1  UNL1        0.1650
     12  O          8.5940   -3.8320   -0.0330 O.2     1  UNL1       -0.4540
     13  O          8.5610   -4.0810   -2.2150 O.2     1  UNL1       -0.4540
     14  C          9.2340   -4.5620   -1.0700 C.3     1  UNL1        0.4680
@<TRIPOS>BOND
     1     9     7    1
     2     9    11    2
     3    13    11    1
     4    13    14    1
     5     7     6    2
     6    11    10    1
     7    14    12    1
     8     6     5    1
     9     6     8    1
    10    10    12    1
    11    10     8    2
    12     1     5    1
    13     1     2    1
    14     2     4    2
    15     2     3    1
