@<TRIPOS>MOLECULE
/home/cewinharhar/GITHUB/reincatalyze/data/processed/docking_pred/2023-May-31-1727_sub9_nm5_bs15_s42_ex16_mel10_mts10000_k50_ec075_g099_lra3e-4_lrc3e-3/31638bda67923b1bb66f4f033a77b51352de91e4_ligand_9.pdbqt
 14 15 0 0 0
SMALL
GASTEIGER

@<TRIPOS>ATOM
      1  C          6.2450    1.1690    0.9190 C.3     1  UNL1        0.0800
      2  C          5.5560    0.3520    1.9350 C.2     1  UNL1        0.1300
      3  C          6.3220   -0.8690    2.4160 C.3     1  UNL1        0.0870
      4  O          4.4760    0.5390    2.4200 O.2     1  UNL1       -0.3000
      5  C          5.8990    0.8840   -0.4890 C.3     1  UNL1        0.0430
      6  C          6.8660    0.1120   -1.2740 C.2     1  UNL1       -0.0440
      7  C          7.7840    0.7200   -2.1320 C.2     1  UNL1        0.0080
      8  C          6.9090   -1.2580   -1.1580 C.2     1  UNL1        0.0540
      9  C          8.6780   -0.0620   -2.8150 C.2     1  UNL1        0.0510
     10  C          7.8360   -2.0350   -1.8700 C.2     1  UNL1        0.1660
     11  C          8.7410   -1.4350   -2.7170 C.2     1  UNL1        0.1650
     12  O          8.1050   -3.3960   -1.9490 O.2     1  UNL1       -0.4540
     13  O          9.5420   -2.4270   -3.2960 O.2     1  UNL1       -0.4540
     14  C          9.4290   -3.5450   -2.4410 C.3     1  UNL1        0.4680
@<TRIPOS>BOND
     1    13    11    1
     2    13    14    1
     3     9    11    2
     4     9     7    1
     5    11    10    1
     6    14    12    1
     7     7     6    2
     8    12    10    1
     9    10     8    2
    10     6     8    1
    11     6     5    1
    12     5     1    1
    13     1     2    1
    14     2     3    1
    15     2     4    2
