@<TRIPOS>MOLECULE
/home/cewinharhar/GITHUB/reincatalyze/data/processed/docking_pred/2023-May-31-1727_sub9_nm5_bs15_s42_ex16_mel10_mts10000_k50_ec075_g099_lra3e-4_lrc3e-3/31de0aabf4a391366091aaa04775d5537fef7eaf_ligand_9.pdbqt
 14 15 0 0 0
SMALL
GASTEIGER

@<TRIPOS>ATOM
      1  C          5.6750    0.2700    1.7530 C.3     1  UNL1        0.0800
      2  C          4.7800    1.3810    1.3830 C.2     1  UNL1        0.1300
      3  C          5.1770    2.1470    0.1320 C.3     1  UNL1        0.0870
      4  O          3.7870    1.7440    1.9460 O.2     1  UNL1       -0.3000
      5  C          7.0460    0.3270    1.2030 C.3     1  UNL1        0.0430
      6  C          7.4180   -0.6960    0.2220 C.2     1  UNL1       -0.0440
      7  C          7.3580   -0.4660   -1.1530 C.2     1  UNL1        0.0080
      8  C          7.8710   -1.9240    0.6470 C.2     1  UNL1        0.0540
      9  C          7.7470   -1.4600   -2.0130 C.2     1  UNL1        0.0510
     10  C          8.2640   -2.9240   -0.2560 C.2     1  UNL1        0.1660
     11  C          8.2030   -2.6970   -1.6130 C.2     1  UNL1        0.1650
     12  O          8.7480   -4.2190   -0.1210 O.2     1  UNL1       -0.4540
     13  O          8.6470   -3.8450   -2.2820 O.2     1  UNL1       -0.4540
     14  C          9.4090   -4.5600   -1.3310 C.3     1  UNL1        0.4680
@<TRIPOS>BOND
     1    13    11    1
     2    13    14    1
     3     9    11    2
     4     9     7    1
     5    11    10    1
     6    14    12    1
     7     7     6    2
     8    10    12    1
     9    10     8    2
    10     3     2    1
    11     6     8    1
    12     6     5    1
    13     5     1    1
    14     2     1    1
    15     2     4    2
