MODEL 1
REMARK VINA RESULT:      -7.6      0.000      0.000
REMARK SMILES CC(=O)CCc1ccc2c(c1)OCO2
REMARK SMILES IDX 4 1 2 2 1 3 3 4 5 5 6 6 7 7 11 8 8 9 10 10 9 11 12 12 14 13
REMARK SMILES IDX 13 14
REMARK H PARENT
REMARK Flexibility Score: inf
ROOT
ATOM      1  C   UNL     1       5.558   1.884   1.227  1.00  0.00     0.080 C 
ENDROOT
BRANCH   1   2
ATOM      2  C   UNL     1       5.004   0.752   1.993  1.00  0.00     0.130 C 
ATOM      3  C   UNL     1       5.924  -0.449   2.133  1.00  0.00     0.087 C 
ATOM      4  O   UNL     1       3.927   0.671   2.511  1.00  0.00    -0.300 OA
ENDBRANCH   1   2
BRANCH   1   5
ATOM      5  C   UNL     1       5.546   1.743  -0.244  1.00  0.00     0.043 C 
BRANCH   5   6
ATOM      6  C   UNL     1       6.646   0.992  -0.855  1.00  0.00    -0.044 A 
ATOM      7  C   UNL     1       7.981   1.365  -0.692  1.00  0.00     0.008 A 
ATOM      8  C   UNL     1       6.382  -0.138  -1.594  1.00  0.00     0.054 A 
ATOM      9  C   UNL     1       8.961   0.600  -1.270  1.00  0.00     0.051 A 
ATOM     10  C   UNL     1       7.405  -0.903  -2.173  1.00  0.00     0.166 A 
ATOM     11  C   UNL     1       8.723  -0.534  -2.014  1.00  0.00     0.165 A 
ATOM     12  O   UNL     1       7.436  -2.056  -2.948  1.00  0.00    -0.454 OA
ATOM     13  O   UNL     1       9.533  -1.459  -2.686  1.00  0.00    -0.454 OA
ATOM     14  C   UNL     1       8.736  -2.616  -2.833  1.00  0.00     0.468 C 
ENDBRANCH   5   6
ENDBRANCH   1   5
TORSDOF 3
ENDMDL
MODEL 2
REMARK VINA RESULT:      -7.0      1.821      2.289
REMARK SMILES CC(=O)CCc1ccc2c(c1)OCO2
REMARK SMILES IDX 4 1 2 2 1 3 3 4 5 5 6 6 7 7 11 8 8 9 10 10 9 11 12 12 14 13
REMARK SMILES IDX 13 14
REMARK H PARENT
REMARK Flexibility Score: inf
ROOT
ATOM      1  C   UNL     1       5.775   1.406  -0.257  1.00  0.00     0.080 C 
ENDROOT
BRANCH   1   2
ATOM      2  C   UNL     1       5.113   1.333   1.058  1.00  0.00     0.130 C 
ATOM      3  C   UNL     1       5.514   0.151   1.924  1.00  0.00     0.087 C 
ATOM      4  O   UNL     1       4.305   2.090   1.517  1.00  0.00    -0.300 OA
ENDBRANCH   1   2
BRANCH   1   5
ATOM      5  C   UNL     1       7.204   1.028  -0.288  1.00  0.00     0.043 C 
BRANCH   5   6
ATOM      6  C   UNL     1       7.541  -0.272  -0.873  1.00  0.00    -0.044 A 
ATOM      7  C   UNL     1       7.612  -0.472  -2.253  1.00  0.00     0.008 A 
ATOM      8  C   UNL     1       7.827  -1.341  -0.056  1.00  0.00     0.054 A 
ATOM      9  C   UNL     1       7.960  -1.709  -2.730  1.00  0.00     0.051 A 
ATOM     10  C   UNL     1       8.181  -2.597  -0.572  1.00  0.00     0.166 A 
ATOM     11  C   UNL     1       8.251  -2.794  -1.934  1.00  0.00     0.165 A 
ATOM     12  O   UNL     1       8.514  -3.822  -0.006  1.00  0.00    -0.454 OA
ATOM     13  O   UNL     1       8.621  -4.122  -2.179  1.00  0.00    -0.454 OA
ATOM     14  C   UNL     1       9.227  -4.567  -0.982  1.00  0.00     0.468 C 
ENDBRANCH   5   6
ENDBRANCH   1   5
TORSDOF 3
ENDMDL
MODEL 3
REMARK VINA RESULT:      -7.0      1.076      1.154
REMARK SMILES CC(=O)CCc1ccc2c(c1)OCO2
REMARK SMILES IDX 4 1 2 2 1 3 3 4 5 5 6 6 7 7 11 8 8 9 10 10 9 11 12 12 14 13
REMARK SMILES IDX 13 14
REMARK H PARENT
REMARK Flexibility Score: inf
ROOT
ATOM      1  C   UNL     1       6.215   1.266   0.887  1.00  0.00     0.080 C 
ENDROOT
BRANCH   1   2
ATOM      2  C   UNL     1       5.569   0.434   1.918  1.00  0.00     0.130 C 
ATOM      3  C   UNL     1       6.388  -0.747   2.409  1.00  0.00     0.087 C 
ATOM      4  O   UNL     1       4.485   0.581   2.409  1.00  0.00    -0.300 OA
ENDBRANCH   1   2
BRANCH   1   5
ATOM      5  C   UNL     1       5.877   0.945  -0.515  1.00  0.00     0.043 C 
BRANCH   5   6
ATOM      6  C   UNL     1       6.854   0.164  -1.279  1.00  0.00    -0.044 A 
ATOM      7  C   UNL     1       7.813   0.767  -2.095  1.00  0.00     0.008 A 
ATOM      8  C   UNL     1       6.865  -1.208  -1.184  1.00  0.00     0.054 A 
ATOM      9  C   UNL     1       8.714  -0.024  -2.760  1.00  0.00     0.051 A 
ATOM     10  C   UNL     1       7.800  -1.993  -1.876  1.00  0.00     0.166 A 
ATOM     11  C   UNL     1       8.745  -1.399  -2.682  1.00  0.00     0.165 A 
ATOM     12  O   UNL     1       8.044  -3.358  -1.968  1.00  0.00    -0.454 OA
ATOM     13  O   UNL     1       9.546  -2.398  -3.249  1.00  0.00    -0.454 OA
ATOM     14  C   UNL     1       9.380  -3.527  -2.416  1.00  0.00     0.468 C 
ENDBRANCH   5   6
ENDBRANCH   1   5
TORSDOF 3
ENDMDL
MODEL 4
REMARK VINA RESULT:      -6.7      1.098      1.597
REMARK SMILES CC(=O)CCc1ccc2c(c1)OCO2
REMARK SMILES IDX 4 1 2 2 1 3 3 4 5 5 6 6 7 7 11 8 8 9 10 10 9 11 12 12 14 13
REMARK SMILES IDX 13 14
REMARK H PARENT
REMARK Flexibility Score: inf
ROOT
ATOM      1  C   UNL     1       5.335  -0.022   1.989  1.00  0.00     0.080 C 
ENDROOT
BRANCH   1   2
ATOM      2  C   UNL     1       4.388   1.101   1.869  1.00  0.00     0.130 C 
ATOM      3  C   UNL     1       4.733   2.132   0.807  1.00  0.00     0.087 C 
ATOM      4  O   UNL     1       3.390   1.293   2.504  1.00  0.00    -0.300 OA
ENDBRANCH   1   2
BRANCH   1   5
ATOM      5  C   UNL     1       6.760   0.300   1.762  1.00  0.00     0.043 C 
BRANCH   5   6
ATOM      6  C   UNL     1       7.312  -0.000   0.438  1.00  0.00    -0.044 A 
ATOM      7  C   UNL     1       7.870   0.987  -0.377  1.00  0.00     0.008 A 
ATOM      8  C   UNL     1       7.317  -1.294  -0.029  1.00  0.00     0.054 A 
ATOM      9  C   UNL     1       8.393   0.630  -1.592  1.00  0.00     0.051 A 
ATOM     10  C   UNL     1       7.859  -1.631  -1.278  1.00  0.00     0.166 A 
ATOM     11  C   UNL     1       8.410  -0.657  -2.082  1.00  0.00     0.165 A 
ATOM     12  O   UNL     1       7.999  -2.817  -1.989  1.00  0.00    -0.454 OA
ATOM     13  O   UNL     1       8.874  -1.256  -3.261  1.00  0.00    -0.454 OA
ATOM     14  C   UNL     1       9.028  -2.625  -2.948  1.00  0.00     0.468 C 
ENDBRANCH   5   6
ENDBRANCH   1   5
TORSDOF 3
ENDMDL
MODEL 5
REMARK VINA RESULT:      -6.7      1.989      2.525
REMARK SMILES CC(=O)CCc1ccc2c(c1)OCO2
REMARK SMILES IDX 4 1 2 2 1 3 3 4 5 5 6 6 7 7 11 8 8 9 10 10 9 11 12 12 14 13
REMARK SMILES IDX 13 14
REMARK H PARENT
REMARK Flexibility Score: inf
ROOT
ATOM      1  C   UNL     1       5.675   0.270   1.753  1.00  0.00     0.080 C 
ENDROOT
BRANCH   1   2
ATOM      2  C   UNL     1       4.780   1.381   1.383  1.00  0.00     0.130 C 
ATOM      3  C   UNL     1       5.177   2.147   0.132  1.00  0.00     0.087 C 
ATOM      4  O   UNL     1       3.787   1.744   1.946  1.00  0.00    -0.300 OA
ENDBRANCH   1   2
BRANCH   1   5
ATOM      5  C   UNL     1       7.046   0.327   1.203  1.00  0.00     0.043 C 
BRANCH   5   6
ATOM      6  C   UNL     1       7.418  -0.696   0.222  1.00  0.00    -0.044 A 
ATOM      7  C   UNL     1       7.358  -0.466  -1.153  1.00  0.00     0.008 A 
ATOM      8  C   UNL     1       7.871  -1.924   0.647  1.00  0.00     0.054 A 
ATOM      9  C   UNL     1       7.747  -1.460  -2.013  1.00  0.00     0.051 A 
ATOM     10  C   UNL     1       8.264  -2.924  -0.256  1.00  0.00     0.166 A 
ATOM     11  C   UNL     1       8.203  -2.697  -1.613  1.00  0.00     0.165 A 
ATOM     12  O   UNL     1       8.748  -4.219  -0.121  1.00  0.00    -0.454 OA
ATOM     13  O   UNL     1       8.647  -3.845  -2.282  1.00  0.00    -0.454 OA
ATOM     14  C   UNL     1       9.409  -4.560  -1.331  1.00  0.00     0.468 C 
ENDBRANCH   5   6
ENDBRANCH   1   5
TORSDOF 3
ENDMDL
