@<TRIPOS>MOLECULE
/home/cewinharhar/GITHUB/reincatalyze/data/processed/docking_pred/2023-May-31-1727_sub9_nm5_bs15_s42_ex16_mel10_mts10000_k50_ec075_g099_lra3e-4_lrc3e-3/32925d028e6f827171d23f19599134de0355568e_ligand_9.pdbqt
 14 15 0 0 0
SMALL
GASTEIGER

@<TRIPOS>ATOM
      1  C          6.6610    1.3530    0.6120 C.3     1  UNL1        0.0800
      2  C          5.3570    1.3090    1.2980 C.2     1  UNL1        0.1300
      3  C          5.0770    0.0390    2.0820 C.3     1  UNL1        0.0870
      4  O          4.5030    2.1500    1.3080 O.2     1  UNL1       -0.3000
      5  C          6.6510    1.0170   -0.8280 C.3     1  UNL1        0.0430
      6  C          7.2170   -0.2780   -1.2180 C.2     1  UNL1       -0.0440
      7  C          7.5610   -0.5710   -2.5390 C.2     1  UNL1        0.0080
      8  C          7.4510   -1.2420   -0.2660 C.2     1  UNL1        0.0540
      9  C          8.1110   -1.7930   -2.8280 C.2     1  UNL1        0.0510
     10  C          8.0150   -2.4850   -0.5900 C.2     1  UNL1        0.1660
     11  C          8.3540   -2.7750   -1.8930 C.2     1  UNL1        0.1650
     12  O          8.3560   -3.6180    0.1400 O.2     1  UNL1       -0.4540
     13  O          8.8920   -4.0680   -1.9410 O.2     1  UNL1       -0.4540
     14  C          9.3070   -4.3490   -0.6210 C.3     1  UNL1        0.4680
@<TRIPOS>BOND
     1     9     7    1
     2     9    11    2
     3     7     6    2
     4    13    11    1
     5    13    14    1
     6    11    10    1
     7     6     5    1
     8     6     8    1
     9     5     1    1
    10    14    12    1
    11    10     8    2
    12    10    12    1
    13     1     2    1
    14     2     4    2
    15     2     3    1
