@<TRIPOS>MOLECULE
/home/cewinharhar/GITHUB/reincatalyze/data/processed/docking_pred/2023-May-31-1727_sub9_nm5_bs15_s42_ex16_mel10_mts10000_k50_ec075_g099_lra3e-4_lrc3e-3/32925d028e6f827171d23f19599134de0355568e_ligand_9.pdbqt
 14 15 0 0 0
SMALL
GASTEIGER

@<TRIPOS>ATOM
      1  C          5.6080    0.0130    2.0360 C.3     1  UNL1        0.0800
      2  C          4.6410    1.1020    1.8100 C.2     1  UNL1        0.1300
      3  C          4.9860    2.0530    0.6760 C.3     1  UNL1        0.0870
      4  O          3.6260    1.3220    2.4090 O.2     1  UNL1       -0.3000
      5  C          6.9400    0.1860    1.4200 C.3     1  UNL1        0.0430
      6  C          7.3360   -0.7830    0.3950 C.2     1  UNL1       -0.0440
      7  C          7.2460   -0.5010   -0.9700 C.2     1  UNL1        0.0080
      8  C          7.8400   -2.0080    0.7630 C.2     1  UNL1        0.0540
      9  C          7.6600   -1.4450   -1.8740 C.2     1  UNL1        0.0510
     10  C          8.2570   -2.9560   -0.1840 C.2     1  UNL1        0.1660
     11  C          8.1680   -2.6780   -1.5300 C.2     1  UNL1        0.1650
     12  O          8.7910   -4.2360   -0.1070 O.2     1  UNL1       -0.4540
     13  O          8.6450   -3.7810   -2.2500 O.2     1  UNL1       -0.4540
     14  C          9.4460   -4.5040   -1.3390 C.3     1  UNL1        0.4680
@<TRIPOS>BOND
     1    13    11    1
     2    13    14    1
     3     9    11    2
     4     9     7    1
     5    11    10    1
     6    14    12    1
     7     7     6    2
     8    10    12    1
     9    10     8    2
    10     6     8    1
    11     6     5    1
    12     3     2    1
    13     5     1    1
    14     2     1    1
    15     2     4    2
