@<TRIPOS>MOLECULE
/home/cewinharhar/GITHUB/reincatalyze/data/processed/docking_pred/2023-May-31-1727_sub9_nm5_bs15_s42_ex16_mel10_mts10000_k50_ec075_g099_lra3e-4_lrc3e-3/36543b95c0c748273319382419c31c9b55863a9a_ligand_9.pdbqt
 14 15 0 0 0
SMALL
GASTEIGER

@<TRIPOS>ATOM
      1  C          6.2370    1.1850    0.9000 C.3     1  UNL1        0.0800
      2  C          5.5590    0.3690    1.9240 C.2     1  UNL1        0.1300
      3  C          6.3330   -0.8490    2.4010 C.3     1  UNL1        0.0870
      4  O          4.4830    0.5520    2.4170 O.2     1  UNL1       -0.3000
      5  C          5.8920    0.8840   -0.5050 C.3     1  UNL1        0.0430
      6  C          6.8650    0.1110   -1.2830 C.2     1  UNL1       -0.0440
      7  C          7.7940    0.7200   -2.1280 C.2     1  UNL1        0.0080
      8  C          6.9010   -1.2600   -1.1730 C.2     1  UNL1        0.0540
      9  C          8.6930   -0.0640   -2.8050 C.2     1  UNL1        0.0510
     10  C          7.8330   -2.0370   -1.8770 C.2     1  UNL1        0.1660
     11  C          8.7490   -1.4370   -2.7120 C.2     1  UNL1        0.1650
     12  O          8.0970   -3.3990   -1.9600 O.2     1  UNL1       -0.4540
     13  O          9.5530   -2.4290   -3.2870 O.2     1  UNL1       -0.4540
     14  C          9.4260   -3.5510   -2.4380 C.3     1  UNL1        0.4680
@<TRIPOS>BOND
     1    13    11    1
     2    13    14    1
     3     9    11    2
     4     9     7    1
     5    11    10    1
     6    14    12    1
     7     7     6    2
     8    12    10    1
     9    10     8    2
    10     6     8    1
    11     6     5    1
    12     5     1    1
    13     1     2    1
    14     2     3    1
    15     2     4    2
