@<TRIPOS>MOLECULE
/home/cewinharhar/GITHUB/reincatalyze/data/processed/docking_pred/2023-May-31-1727_sub9_nm5_bs15_s42_ex16_mel10_mts10000_k50_ec075_g099_lra3e-4_lrc3e-3/37aabdb081a78d2f2d4d4e560ab17afff45a2586_ligand_9.pdbqt
 14 15 0 0 0
SMALL
GASTEIGER

@<TRIPOS>ATOM
      1  C          5.7830    0.1520    1.9700 C.3     1  UNL1        0.0800
      2  C          4.7420    1.1550    1.6840 C.2     1  UNL1        0.1300
      3  C          5.0360    2.0840    0.5170 C.3     1  UNL1        0.0870
      4  O          3.7020    1.3210    2.2570 O.2     1  UNL1       -0.3000
      5  C          7.0700    0.3310    1.2650 C.3     1  UNL1        0.0430
      6  C          7.4340   -0.6790    0.2670 C.2     1  UNL1       -0.0440
      7  C          7.3820   -0.4220   -1.1040 C.2     1  UNL1        0.0080
      8  C          7.8700   -1.9200    0.6700 C.2     1  UNL1        0.0540
      9  C          7.7620   -1.4050   -1.9810 C.2     1  UNL1        0.0510
     10  C          8.2540   -2.9070   -0.2490 C.2     1  UNL1        0.1660
     11  C          8.2020   -2.6540   -1.6020 C.2     1  UNL1        0.1650
     12  O          8.7220   -4.2110   -0.1360 O.2     1  UNL1       -0.4540
     13  O          8.6350   -3.7950   -2.2910 O.2     1  UNL1       -0.4540
     14  C          9.3830   -4.5370   -1.3500 C.3     1  UNL1        0.4680
@<TRIPOS>BOND
     1    13    11    1
     2    13    14    1
     3     9    11    2
     4     9     7    1
     5    11    10    1
     6    14    12    1
     7     7     6    2
     8    10    12    1
     9    10     8    2
    10     6     8    1
    11     6     5    1
    12     3     2    1
    13     5     1    1
    14     2     1    1
    15     2     4    2
