@<TRIPOS>MOLECULE
/home/cewinharhar/GITHUB/reincatalyze/data/processed/docking_pred/2023-May-31-1727_sub9_nm5_bs15_s42_ex16_mel10_mts10000_k50_ec075_g099_lra3e-4_lrc3e-3/37aabdb081a78d2f2d4d4e560ab17afff45a2586_ligand_9.pdbqt
 14 15 0 0 0
SMALL
GASTEIGER

@<TRIPOS>ATOM
      1  C          6.3230    1.1780    0.8940 C.3     1  UNL1        0.0800
      2  C          5.6010    0.4110    1.9250 C.2     1  UNL1        0.1300
      3  C          6.3260   -0.8160    2.4500 C.3     1  UNL1        0.0870
      4  O          4.5210    0.6420    2.3910 O.2     1  UNL1       -0.3000
      5  C          5.9440    0.9030   -0.5080 C.3     1  UNL1        0.0430
      6  C          6.8620    0.0820   -1.3020 C.2     1  UNL1       -0.0440
      7  C          7.6120    0.6090   -2.3540 C.2     1  UNL1        0.0080
      8  C          7.0270   -1.2510   -1.0020 C.2     1  UNL1        0.0540
      9  C          8.4720   -0.2110   -3.0360 C.2     1  UNL1        0.0510
     10  C          7.9150   -2.0680   -1.7180 C.2     1  UNL1        0.1660
     11  C          8.6550   -1.5470   -2.7570 C.2     1  UNL1        0.1650
     12  O          8.2790   -3.4070   -1.6430 O.2     1  UNL1       -0.4540
     13  O          9.4530   -2.5650   -3.2960 O.2     1  UNL1       -0.4540
     14  C          9.5370   -3.5480   -2.2850 C.3     1  UNL1        0.4680
@<TRIPOS>BOND
     1    13    11    1
     2    13    14    1
     3     9    11    2
     4     9     7    1
     5    11    10    1
     6     7     6    2
     7    14    12    1
     8    10    12    1
     9    10     8    2
    10     6     8    1
    11     6     5    1
    12     5     1    1
    13     1     2    1
    14     2     4    2
    15     2     3    1
