@<TRIPOS>MOLECULE
/home/cewinharhar/GITHUB/reincatalyze/data/processed/docking_pred/2023-May-31-1727_sub9_nm5_bs15_s42_ex16_mel10_mts10000_k50_ec075_g099_lra3e-4_lrc3e-3/37aabdb081a78d2f2d4d4e560ab17afff45a2586_ligand_9.pdbqt
 14 15 0 0 0
SMALL
GASTEIGER

@<TRIPOS>ATOM
      1  C          5.3820   -0.0490    1.9560 C.3     1  UNL1        0.0800
      2  C          4.4330    1.0740    1.8490 C.2     1  UNL1        0.1300
      3  C          4.7610    2.1040    0.7820 C.3     1  UNL1        0.0870
      4  O          3.4440    1.2650    2.4990 O.2     1  UNL1       -0.3000
      5  C          6.8010    0.2710    1.6940 C.3     1  UNL1        0.0430
      6  C          7.3360   -0.0800    0.3760 C.2     1  UNL1       -0.0440
      7  C          7.7550    0.8870   -0.5390 C.2     1  UNL1        0.0080
      8  C          7.4650   -1.4010    0.0150 C.2     1  UNL1        0.0540
      9  C          8.2710    0.4860   -1.7440 C.2     1  UNL1        0.0510
     10  C          7.9970   -1.7840   -1.2260 C.2     1  UNL1        0.1660
     11  C          8.4100   -0.8290   -2.1290 C.2     1  UNL1        0.1650
     12  O          8.2390   -3.0040   -1.8440 O.2     1  UNL1       -0.4540
     13  O          8.8940   -1.4730   -3.2750 O.2     1  UNL1       -0.4540
     14  C          9.2070   -2.7870   -2.8610 C.3     1  UNL1        0.4680
@<TRIPOS>BOND
     1    13    14    1
     2    13    11    1
     3    14    12    1
     4    11     9    2
     5    11    10    1
     6    12    10    1
     7     9     7    1
     8    10     8    2
     9     7     6    2
    10     8     6    1
    11     6     5    1
    12     3     2    1
    13     5     1    1
    14     2     1    1
    15     2     4    2
