@<TRIPOS>MOLECULE
/home/cewinharhar/GITHUB/reincatalyze/data/processed/docking_pred/2023-May-31-1727_sub9_nm5_bs15_s42_ex16_mel10_mts10000_k50_ec075_g099_lra3e-4_lrc3e-3/3b11ad51370e6150fddf32b3aa65dd5e24197163_ligand_9.pdbqt
 14 15 0 0 0
SMALL
GASTEIGER

@<TRIPOS>ATOM
      1  C          5.7870    1.5430    1.1740 C.3     1  UNL1        0.0800
      2  C          5.1740    0.4790    1.9900 C.2     1  UNL1        0.1300
      3  C          6.0200   -0.7690    2.1730 C.3     1  UNL1        0.0870
      4  O          4.0990    0.4860    2.5190 O.2     1  UNL1       -0.3000
      5  C          5.7290    1.3550   -0.2910 C.3     1  UNL1        0.0430
      6  C          6.9320    0.8400   -0.9490 C.2     1  UNL1       -0.0440
      7  C          8.2050    1.3400   -0.6690 C.2     1  UNL1        0.0080
      8  C          6.8340   -0.1890   -1.8570 C.2     1  UNL1        0.0540
      9  C          9.2910    0.7920   -1.3020 C.2     1  UNL1        0.0510
     10  C          7.9620   -0.7310   -2.4910 C.2     1  UNL1        0.1660
     11  C          9.2180   -0.2370   -2.2140 C.2     1  UNL1        0.1650
     12  O          8.1610   -1.7420   -3.4220 O.2     1  UNL1       -0.4540
     13  O         10.1580   -0.9470   -2.9730 O.2     1  UNL1       -0.4540
     14  C          9.5170   -2.1550   -3.3260 C.3     1  UNL1        0.4680
@<TRIPOS>BOND
     1    12    14    1
     2    12    10    1
     3    14    13    1
     4    13    11    1
     5    10    11    2
     6    10     8    1
     7    11     9    1
     8     8     6    2
     9     9     7    2
    10     6     7    1
    11     6     5    1
    12     5     1    1
    13     1     2    1
    14     2     3    1
    15     2     4    2
