@<TRIPOS>MOLECULE
/home/cewinharhar/GITHUB/reincatalyze/data/processed/docking_pred/2023-May-31-1727_sub9_nm5_bs15_s42_ex16_mel10_mts10000_k50_ec075_g099_lra3e-4_lrc3e-3/3b11ad51370e6150fddf32b3aa65dd5e24197163_ligand_9.pdbqt
 14 15 0 0 0
SMALL
GASTEIGER

@<TRIPOS>ATOM
      1  C          9.0130    0.2190   -3.6580 C.3     1  UNL1        0.0800
      2  C         10.3330    0.5450   -3.0880 C.2     1  UNL1        0.1300
      3  C         11.2430    1.3660   -3.9850 C.3     1  UNL1        0.0870
      4  O         10.7650    0.2410   -2.0130 O.2     1  UNL1       -0.3000
      5  C          8.3850   -1.0280   -3.1750 C.3     1  UNL1        0.0430
      6  C          7.7160   -0.9820   -1.8720 C.2     1  UNL1       -0.0440
      7  C          7.9270   -1.9530   -0.8920 C.2     1  UNL1        0.0080
      8  C          6.8680    0.0590   -1.5710 C.2     1  UNL1        0.0540
      9  C          7.2880   -1.8310    0.3150 C.2     1  UNL1        0.0510
     10  C          6.2270    0.1580   -0.3260 C.2     1  UNL1        0.1660
     11  C          6.4350   -0.8000    0.6410 C.2     1  UNL1        0.1650
     12  O          5.3450    1.0690    0.2420 O.2     1  UNL1       -0.4540
     13  O          5.6850   -0.4660    1.7750 O.2     1  UNL1       -0.4540
     14  C          5.4180    0.9160    1.6520 C.3     1  UNL1        0.4680
@<TRIPOS>BOND
     1     3     2    1
     2     1     5    1
     3     1     2    1
     4     5     6    1
     5     2     4    2
     6     6     8    2
     7     6     7    1
     8     8    10    1
     9     7     9    2
    10    10    12    1
    11    10    11    2
    12    12    14    1
    13     9    11    1
    14    11    13    1
    15    14    13    1
