MODEL 1
REMARK VINA RESULT:      -7.6      0.000      0.000
REMARK SMILES CC(=O)CCc1ccc2c(c1)OCO2
REMARK SMILES IDX 4 1 2 2 1 3 3 4 5 5 6 6 7 7 11 8 8 9 10 10 9 11 12 12 14 13
REMARK SMILES IDX 13 14
REMARK H PARENT
REMARK Flexibility Score: inf
ROOT
ATOM      1  C   UNL     1       5.983   1.422   1.106  1.00  0.00     0.080 C 
ENDROOT
BRANCH   1   2
ATOM      2  C   UNL     1       5.352   0.418   1.981  1.00  0.00     0.130 C 
ATOM      3  C   UNL     1       6.174  -0.835   2.232  1.00  0.00     0.087 C 
ATOM      4  O   UNL     1       4.279   0.474   2.512  1.00  0.00    -0.300 OA
ENDBRANCH   1   2
BRANCH   1   5
ATOM      5  C   UNL     1       5.806   1.223  -0.347  1.00  0.00     0.043 C 
BRANCH   5   6
ATOM      6  C   UNL     1       6.909   0.592  -1.077  1.00  0.00    -0.044 A 
ATOM      7  C   UNL     1       6.702  -0.442  -1.991  1.00  0.00     0.008 A 
ATOM      8  C   UNL     1       8.198   1.035  -0.893  1.00  0.00     0.054 A 
ATOM      9  C   UNL     1       7.778  -0.968  -2.659  1.00  0.00     0.051 A 
ATOM     10  C   UNL     1       9.282   0.479  -1.590  1.00  0.00     0.166 A 
ATOM     11  C   UNL     1       9.077  -0.542  -2.492  1.00  0.00     0.165 A 
ATOM     12  O   UNL     1      10.651   0.716  -1.608  1.00  0.00    -0.454 OA
ATOM     13  O   UNL     1      10.311  -0.911  -3.043  1.00  0.00    -0.454 OA
ATOM     14  C   UNL     1      11.161   0.196  -2.827  1.00  0.00     0.468 C 
ENDBRANCH   5   6
ENDBRANCH   1   5
TORSDOF 3
ENDMDL
MODEL 2
REMARK VINA RESULT:      -7.5      0.855      1.836
REMARK SMILES CC(=O)CCc1ccc2c(c1)OCO2
REMARK SMILES IDX 4 1 2 2 1 3 3 4 5 5 6 6 7 7 11 8 8 9 10 10 9 11 12 12 14 13
REMARK SMILES IDX 13 14
REMARK H PARENT
REMARK Flexibility Score: inf
ROOT
ATOM      1  C   UNL     1       5.787   1.543   1.174  1.00  0.00     0.080 C 
ENDROOT
BRANCH   1   2
ATOM      2  C   UNL     1       5.174   0.479   1.990  1.00  0.00     0.130 C 
ATOM      3  C   UNL     1       6.020  -0.769   2.173  1.00  0.00     0.087 C 
ATOM      4  O   UNL     1       4.099   0.486   2.519  1.00  0.00    -0.300 OA
ENDBRANCH   1   2
BRANCH   1   5
ATOM      5  C   UNL     1       5.729   1.355  -0.291  1.00  0.00     0.043 C 
BRANCH   5   6
ATOM      6  C   UNL     1       6.932   0.840  -0.949  1.00  0.00    -0.044 A 
ATOM      7  C   UNL     1       8.205   1.340  -0.669  1.00  0.00     0.008 A 
ATOM      8  C   UNL     1       6.834  -0.189  -1.857  1.00  0.00     0.054 A 
ATOM      9  C   UNL     1       9.291   0.792  -1.302  1.00  0.00     0.051 A 
ATOM     10  C   UNL     1       7.962  -0.731  -2.491  1.00  0.00     0.166 A 
ATOM     11  C   UNL     1       9.218  -0.237  -2.214  1.00  0.00     0.165 A 
ATOM     12  O   UNL     1       8.161  -1.742  -3.422  1.00  0.00    -0.454 OA
ATOM     13  O   UNL     1      10.158  -0.947  -2.973  1.00  0.00    -0.454 OA
ATOM     14  C   UNL     1       9.517  -2.155  -3.326  1.00  0.00     0.468 C 
ENDBRANCH   5   6
ENDBRANCH   1   5
TORSDOF 3
ENDMDL
MODEL 3
REMARK VINA RESULT:      -6.9      1.219      1.692
REMARK SMILES CC(=O)CCc1ccc2c(c1)OCO2
REMARK SMILES IDX 4 1 2 2 1 3 3 4 5 5 6 6 7 7 11 8 8 9 10 10 9 11 12 12 14 13
REMARK SMILES IDX 13 14
REMARK H PARENT
REMARK Flexibility Score: inf
ROOT
ATOM      1  C   UNL     1       6.137  -0.754   1.863  1.00  0.00     0.080 C 
ENDROOT
BRANCH   1   2
ATOM      2  C   UNL     1       5.210   0.390   1.796  1.00  0.00     0.130 C 
ATOM      3  C   UNL     1       5.455   1.359   0.652  1.00  0.00     0.087 C 
ATOM      4  O   UNL     1       4.296   0.640   2.530  1.00  0.00    -0.300 OA
ENDBRANCH   1   2
BRANCH   1   5
ATOM      5  C   UNL     1       7.536  -0.482   1.472  1.00  0.00     0.043 C 
BRANCH   5   6
ATOM      6  C   UNL     1       7.871  -0.603   0.051  1.00  0.00    -0.044 A 
ATOM      7  C   UNL     1       7.260  -1.544  -0.780  1.00  0.00     0.008 A 
ATOM      8  C   UNL     1       8.794   0.246  -0.514  1.00  0.00     0.054 A 
ATOM      9  C   UNL     1       7.602  -1.583  -2.107  1.00  0.00     0.051 A 
ATOM     10  C   UNL     1       9.125   0.185  -1.876  1.00  0.00     0.166 A 
ATOM     11  C   UNL     1       8.523  -0.744  -2.696  1.00  0.00     0.165 A 
ATOM     12  O   UNL     1       9.994   0.892  -2.698  1.00  0.00    -0.454 OA
ATOM     13  O   UNL     1       9.027  -0.593  -3.994  1.00  0.00    -0.454 OA
ATOM     14  C   UNL     1       9.558   0.715  -4.038  1.00  0.00     0.468 C 
ENDBRANCH   5   6
ENDBRANCH   1   5
TORSDOF 3
ENDMDL
MODEL 4
REMARK VINA RESULT:      -6.9      1.425      5.453
REMARK SMILES CC(=O)CCc1ccc2c(c1)OCO2
REMARK SMILES IDX 4 1 2 2 1 3 3 4 5 5 6 6 7 7 11 8 8 9 10 10 9 11 12 12 14 13
REMARK SMILES IDX 13 14
REMARK H PARENT
REMARK Flexibility Score: inf
ROOT
ATOM      1  C   UNL     1       8.990   0.333  -3.644  1.00  0.00     0.080 C 
ENDROOT
BRANCH   1   2
ATOM      2  C   UNL     1      10.349   0.566  -3.120  1.00  0.00     0.130 C 
ATOM      3  C   UNL     1      11.265   1.372  -4.025  1.00  0.00     0.087 C 
ATOM      4  O   UNL     1      10.807   0.197  -2.076  1.00  0.00    -0.300 OA
ENDBRANCH   1   2
BRANCH   1   5
ATOM      5  C   UNL     1       8.177  -0.669  -2.924  1.00  0.00     0.043 C 
BRANCH   5   6
ATOM      6  C   UNL     1       7.467  -0.218  -1.724  1.00  0.00    -0.044 A 
ATOM      7  C   UNL     1       6.447   0.734  -1.776  1.00  0.00     0.008 A 
ATOM      8  C   UNL     1       7.778  -0.756  -0.497  1.00  0.00     0.054 A 
ATOM      9  C   UNL     1       5.807   1.088  -0.617  1.00  0.00     0.051 A 
ATOM     10  C   UNL     1       7.106  -0.375   0.674  1.00  0.00     0.166 A 
ATOM     11  C   UNL     1       6.100   0.565   0.623  1.00  0.00     0.165 A 
ATOM     12  O   UNL     1       7.202  -0.737   2.012  1.00  0.00    -0.454 OA
ATOM     13  O   UNL     1       5.600   0.761   1.916  1.00  0.00    -0.454 OA
ATOM     14  C   UNL     1       5.977  -0.391   2.641  1.00  0.00     0.468 C 
ENDBRANCH   5   6
ENDBRANCH   1   5
TORSDOF 3
ENDMDL
MODEL 5
REMARK VINA RESULT:      -6.7      1.510      5.445
REMARK SMILES CC(=O)CCc1ccc2c(c1)OCO2
REMARK SMILES IDX 4 1 2 2 1 3 3 4 5 5 6 6 7 7 11 8 8 9 10 10 9 11 12 12 14 13
REMARK SMILES IDX 13 14
REMARK H PARENT
REMARK Flexibility Score: inf
ROOT
ATOM      1  C   UNL     1       9.013   0.219  -3.658  1.00  0.00     0.080 C 
ENDROOT
BRANCH   1   2
ATOM      2  C   UNL     1      10.333   0.545  -3.088  1.00  0.00     0.130 C 
ATOM      3  C   UNL     1      11.243   1.366  -3.985  1.00  0.00     0.087 C 
ATOM      4  O   UNL     1      10.765   0.241  -2.013  1.00  0.00    -0.300 OA
ENDBRANCH   1   2
BRANCH   1   5
ATOM      5  C   UNL     1       8.385  -1.028  -3.175  1.00  0.00     0.043 C 
BRANCH   5   6
ATOM      6  C   UNL     1       7.716  -0.982  -1.872  1.00  0.00    -0.044 A 
ATOM      7  C   UNL     1       7.927  -1.953  -0.892  1.00  0.00     0.008 A 
ATOM      8  C   UNL     1       6.868   0.059  -1.571  1.00  0.00     0.054 A 
ATOM      9  C   UNL     1       7.288  -1.831   0.315  1.00  0.00     0.051 A 
ATOM     10  C   UNL     1       6.227   0.158  -0.326  1.00  0.00     0.166 A 
ATOM     11  C   UNL     1       6.435  -0.800   0.641  1.00  0.00     0.165 A 
ATOM     12  O   UNL     1       5.345   1.069   0.242  1.00  0.00    -0.454 OA
ATOM     13  O   UNL     1       5.685  -0.466   1.775  1.00  0.00    -0.454 OA
ATOM     14  C   UNL     1       5.418   0.916   1.652  1.00  0.00     0.468 C 
ENDBRANCH   5   6
ENDBRANCH   1   5
TORSDOF 3
ENDMDL
