@<TRIPOS>MOLECULE
/home/cewinharhar/GITHUB/reincatalyze/data/processed/docking_pred/2023-May-31-1727_sub9_nm5_bs15_s42_ex16_mel10_mts10000_k50_ec075_g099_lra3e-4_lrc3e-3/3b11ad51370e6150fddf32b3aa65dd5e24197163_ligand_9.pdbqt
 14 15 0 0 0
SMALL
GASTEIGER

@<TRIPOS>ATOM
      1  C          8.9900    0.3330   -3.6440 C.3     1  UNL1        0.0800
      2  C         10.3490    0.5660   -3.1200 C.2     1  UNL1        0.1300
      3  C         11.2650    1.3720   -4.0250 C.3     1  UNL1        0.0870
      4  O         10.8070    0.1970   -2.0760 O.2     1  UNL1       -0.3000
      5  C          8.1770   -0.6690   -2.9240 C.3     1  UNL1        0.0430
      6  C          7.4670   -0.2180   -1.7240 C.2     1  UNL1       -0.0440
      7  C          6.4470    0.7340   -1.7760 C.2     1  UNL1        0.0080
      8  C          7.7780   -0.7560   -0.4970 C.2     1  UNL1        0.0540
      9  C          5.8070    1.0880   -0.6170 C.2     1  UNL1        0.0510
     10  C          7.1060   -0.3750    0.6740 C.2     1  UNL1        0.1660
     11  C          6.1000    0.5650    0.6230 C.2     1  UNL1        0.1650
     12  O          7.2020   -0.7370    2.0120 O.2     1  UNL1       -0.4540
     13  O          5.6000    0.7610    1.9160 O.2     1  UNL1       -0.4540
     14  C          5.9770   -0.3910    2.6410 C.3     1  UNL1        0.4680
@<TRIPOS>BOND
     1     3     2    1
     2     1     2    1
     3     1     5    1
     4     2     4    2
     5     5     6    1
     6     7     6    2
     7     7     9    1
     8     6     8    1
     9     9    11    2
    10     8    10    2
    11    11    10    1
    12    11    13    1
    13    10    12    1
    14    13    14    1
    15    12    14    1
