@<TRIPOS>MOLECULE
/home/cewinharhar/GITHUB/reincatalyze/data/processed/docking_pred/2023-May-31-1727_sub9_nm5_bs15_s42_ex16_mel10_mts10000_k50_ec075_g099_lra3e-4_lrc3e-3/3b11ad51370e6150fddf32b3aa65dd5e24197163_ligand_9.pdbqt
 14 15 0 0 0
SMALL
GASTEIGER

@<TRIPOS>ATOM
      1  C          6.1370   -0.7540    1.8630 C.3     1  UNL1        0.0800
      2  C          5.2100    0.3900    1.7960 C.2     1  UNL1        0.1300
      3  C          5.4550    1.3590    0.6520 C.3     1  UNL1        0.0870
      4  O          4.2960    0.6400    2.5300 O.2     1  UNL1       -0.3000
      5  C          7.5360   -0.4820    1.4720 C.3     1  UNL1        0.0430
      6  C          7.8710   -0.6030    0.0510 C.2     1  UNL1       -0.0440
      7  C          7.2600   -1.5440   -0.7800 C.2     1  UNL1        0.0080
      8  C          8.7940    0.2460   -0.5140 C.2     1  UNL1        0.0540
      9  C          7.6020   -1.5830   -2.1070 C.2     1  UNL1        0.0510
     10  C          9.1250    0.1850   -1.8760 C.2     1  UNL1        0.1660
     11  C          8.5230   -0.7440   -2.6960 C.2     1  UNL1        0.1650
     12  O          9.9940    0.8920   -2.6980 O.2     1  UNL1       -0.4540
     13  O          9.0270   -0.5930   -3.9940 O.2     1  UNL1       -0.4540
     14  C          9.5580    0.7150   -4.0380 C.3     1  UNL1        0.4680
@<TRIPOS>BOND
     1    14    13    1
     2    14    12    1
     3    13    11    1
     4    12    10    1
     5    11     9    2
     6    11    10    1
     7     9     7    1
     8    10     8    2
     9     7     6    2
    10     8     6    1
    11     6     5    1
    12     3     2    1
    13     5     1    1
    14     2     1    1
    15     2     4    2
