@<TRIPOS>MOLECULE
/home/cewinharhar/GITHUB/reincatalyze/data/processed/docking_pred/2023-May-31-1727_sub9_nm5_bs15_s42_ex16_mel10_mts10000_k50_ec075_g099_lra3e-4_lrc3e-3/3b11ad51370e6150fddf32b3aa65dd5e24197163_ligand_9.pdbqt
 14 15 0 0 0
SMALL
GASTEIGER

@<TRIPOS>ATOM
      1  C          5.9830    1.4220    1.1060 C.3     1  UNL1        0.0800
      2  C          5.3520    0.4180    1.9810 C.2     1  UNL1        0.1300
      3  C          6.1740   -0.8350    2.2320 C.3     1  UNL1        0.0870
      4  O          4.2790    0.4740    2.5120 O.2     1  UNL1       -0.3000
      5  C          5.8060    1.2230   -0.3470 C.3     1  UNL1        0.0430
      6  C          6.9090    0.5920   -1.0770 C.2     1  UNL1       -0.0440
      7  C          6.7020   -0.4420   -1.9910 C.2     1  UNL1        0.0080
      8  C          8.1980    1.0350   -0.8930 C.2     1  UNL1        0.0540
      9  C          7.7780   -0.9680   -2.6590 C.2     1  UNL1        0.0510
     10  C          9.2820    0.4790   -1.5900 C.2     1  UNL1        0.1660
     11  C          9.0770   -0.5420   -2.4920 C.2     1  UNL1        0.1650
     12  O         10.6510    0.7160   -1.6080 O.2     1  UNL1       -0.4540
     13  O         10.3110   -0.9110   -3.0430 O.2     1  UNL1       -0.4540
     14  C         11.1610    0.1960   -2.8270 C.3     1  UNL1        0.4680
@<TRIPOS>BOND
     1    13    14    1
     2    13    11    1
     3    14    12    1
     4     9    11    2
     5     9     7    1
     6    11    10    1
     7     7     6    2
     8    12    10    1
     9    10     8    2
    10     6     8    1
    11     6     5    1
    12     5     1    1
    13     1     2    1
    14     2     3    1
    15     2     4    2
