@<TRIPOS>MOLECULE
/home/cewinharhar/GITHUB/reincatalyze/data/processed/docking_pred/2023-May-31-1727_sub9_nm5_bs15_s42_ex16_mel10_mts10000_k50_ec075_g099_lra3e-4_lrc3e-3/3b29dc4ebb7ee5049f43ecb42d98a580ffb6b5da_ligand_9.pdbqt
 14 15 0 0 0
SMALL
GASTEIGER

@<TRIPOS>ATOM
      1  C          5.8840    1.3760   -0.2640 C.3     1  UNL1        0.0800
      2  C          5.2090    1.3240    1.0450 C.2     1  UNL1        0.1300
      3  C          5.4590    0.0630    1.8550 C.3     1  UNL1        0.0870
      4  O          4.4940    2.1500    1.5380 O.2     1  UNL1       -0.3000
      5  C          7.3090    0.9840   -0.2790 C.3     1  UNL1        0.0430
      6  C          7.6410   -0.3150   -0.8700 C.2     1  UNL1       -0.0440
      7  C          7.7100   -0.5080   -2.2500 C.2     1  UNL1        0.0080
      8  C          7.9250   -1.3880   -0.0580 C.2     1  UNL1        0.0540
      9  C          8.0530   -1.7440   -2.7340 C.2     1  UNL1        0.0510
     10  C          8.2740   -2.6430   -0.5800 C.2     1  UNL1        0.1660
     11  C          8.3410   -2.8340   -1.9430 C.2     1  UNL1        0.1650
     12  O          8.6030   -3.8710   -0.0200 O.2     1  UNL1       -0.4540
     13  O          8.7070   -4.1630   -2.1930 O.2     1  UNL1       -0.4540
     14  C          9.3120   -4.6150   -1.0000 C.3     1  UNL1        0.4680
@<TRIPOS>BOND
     1     9     7    1
     2     9    11    2
     3     7     6    2
     4    13    11    1
     5    13    14    1
     6    11    10    1
     7    14    12    1
     8     6     5    1
     9     6     8    1
    10    10     8    2
    11    10    12    1
    12     5     1    1
    13     1     2    1
    14     2     4    2
    15     2     3    1
