@<TRIPOS>MOLECULE
/home/cewinharhar/GITHUB/reincatalyze/data/processed/docking_pred/2023-May-31-1727_sub9_nm5_bs15_s42_ex16_mel10_mts10000_k50_ec075_g099_lra3e-4_lrc3e-3/3b98b0574a09314ff34419eb6cee054edaec9098_ligand_9.pdbqt
 14 15 0 0 0
SMALL
GASTEIGER

@<TRIPOS>ATOM
      1  C          5.9480    1.4860   -0.3080 C.3     1  UNL1        0.0800
      2  C          5.2870    1.4040    1.0070 C.2     1  UNL1        0.1300
      3  C          5.7040    0.2270    1.8720 C.3     1  UNL1        0.0870
      4  O          4.4690    2.1490    1.4670 O.2     1  UNL1       -0.3000
      5  C          7.3710    1.0880   -0.3480 C.3     1  UNL1        0.0430
      6  C          7.6840   -0.2230   -0.9250 C.2     1  UNL1       -0.0440
      7  C          7.8240   -0.4160   -2.3000 C.2     1  UNL1        0.0080
      8  C          7.8780   -1.3080   -0.1030 C.2     1  UNL1        0.0540
      9  C          8.1450   -1.6630   -2.7690 C.2     1  UNL1        0.0510
     10  C          8.2070   -2.5750   -0.6100 C.2     1  UNL1        0.1660
     11  C          8.3440   -2.7650   -1.9670 C.2     1  UNL1        0.1650
     12  O          8.4540   -3.8160   -0.0370 O.2     1  UNL1       -0.4540
     13  O          8.6710   -4.1070   -2.2020 O.2     1  UNL1       -0.4540
     14  C          9.1890   -4.5850   -0.9780 C.3     1  UNL1        0.4680
@<TRIPOS>BOND
     1     9     7    1
     2     9    11    2
     3     7     6    2
     4    13    11    1
     5    13    14    1
     6    11    10    1
     7    14    12    1
     8     6     5    1
     9     6     8    1
    10    10     8    2
    11    10    12    1
    12     5     1    1
    13     1     2    1
    14     2     4    2
    15     2     3    1
