@<TRIPOS>MOLECULE
/home/cewinharhar/GITHUB/reincatalyze/data/processed/docking_pred/2023-May-31-1727_sub9_nm5_bs15_s42_ex16_mel10_mts10000_k50_ec075_g099_lra3e-4_lrc3e-3/3b98b0574a09314ff34419eb6cee054edaec9098_ligand_9.pdbqt
 14 15 0 0 0
SMALL
GASTEIGER

@<TRIPOS>ATOM
      1  C          5.3830   -0.0900    1.9550 C.3     1  UNL1        0.0800
      2  C          4.4510    1.0500    1.8770 C.2     1  UNL1        0.1300
      3  C          4.7840    2.0910    0.8220 C.3     1  UNL1        0.0870
      4  O          3.4740    1.2480    2.5420 O.2     1  UNL1       -0.3000
      5  C          6.8070    0.2160    1.7090 C.3     1  UNL1        0.0430
      6  C          7.3460   -0.1170    0.3870 C.2     1  UNL1       -0.0440
      7  C          7.7650    0.8640   -0.5140 C.2     1  UNL1        0.0080
      8  C          7.4770   -1.4330    0.0080 C.2     1  UNL1        0.0540
      9  C          8.2840    0.4790   -1.7230 C.2     1  UNL1        0.0510
     10  C          8.0130   -1.7980   -1.2360 C.2     1  UNL1        0.1660
     11  C          8.4260   -0.8300   -2.1250 C.2     1  UNL1        0.1650
     12  O          8.2590   -3.0100   -1.8700 O.2     1  UNL1       -0.4540
     13  O          8.9150   -1.4580   -3.2780 O.2     1  UNL1       -0.4540
     14  C          9.2280   -2.7770   -2.8810 C.3     1  UNL1        0.4680
@<TRIPOS>BOND
     1    13    14    1
     2    13    11    1
     3    14    12    1
     4    11     9    2
     5    11    10    1
     6    12    10    1
     7     9     7    1
     8    10     8    2
     9     7     6    2
    10     8     6    1
    11     6     5    1
    12     3     2    1
    13     5     1    1
    14     2     1    1
    15     2     4    2
