MODEL 1
REMARK VINA RESULT:      -7.6      0.000      0.000
REMARK SMILES CC(=O)CCc1ccc2c(c1)OCO2
REMARK SMILES IDX 4 1 2 2 1 3 3 4 5 5 6 6 7 7 11 8 8 9 10 10 9 11 12 12 14 13
REMARK SMILES IDX 13 14
REMARK H PARENT
REMARK Flexibility Score: inf
ROOT
ATOM      1  C   UNL     1       5.606   1.877   1.258  1.00  0.00     0.080 C 
ENDROOT
BRANCH   1   2
ATOM      2  C   UNL     1       5.026   0.743   2.002  1.00  0.00     0.130 C 
ATOM      3  C   UNL     1       5.936  -0.464   2.159  1.00  0.00     0.087 C 
ATOM      4  O   UNL     1       3.935   0.665   2.490  1.00  0.00    -0.300 OA
ENDBRANCH   1   2
BRANCH   1   5
ATOM      5  C   UNL     1       5.594   1.764  -0.215  1.00  0.00     0.043 C 
BRANCH   5   6
ATOM      6  C   UNL     1       6.679   1.001  -0.838  1.00  0.00    -0.044 A 
ATOM      7  C   UNL     1       8.018   1.375  -0.712  1.00  0.00     0.008 A 
ATOM      8  C   UNL     1       6.397  -0.141  -1.551  1.00  0.00     0.054 A 
ATOM      9  C   UNL     1       8.985   0.599  -1.298  1.00  0.00     0.051 A 
ATOM     10  C   UNL     1       7.407  -0.917  -2.141  1.00  0.00     0.166 A 
ATOM     11  C   UNL     1       8.728  -0.548  -2.018  1.00  0.00     0.165 A 
ATOM     12  O   UNL     1       7.420  -2.084  -2.896  1.00  0.00    -0.454 OA
ATOM     13  O   UNL     1       9.522  -1.484  -2.692  1.00  0.00    -0.454 OA
ATOM     14  C   UNL     1       8.721  -2.643  -2.801  1.00  0.00     0.468 C 
ENDBRANCH   5   6
ENDBRANCH   1   5
TORSDOF 3
ENDMDL
MODEL 2
REMARK VINA RESULT:      -6.9      0.972      1.042
REMARK SMILES CC(=O)CCc1ccc2c(c1)OCO2
REMARK SMILES IDX 4 1 2 2 1 3 3 4 5 5 6 6 7 7 11 8 8 9 10 10 9 11 12 12 14 13
REMARK SMILES IDX 13 14
REMARK H PARENT
REMARK Flexibility Score: inf
ROOT
ATOM      1  C   UNL     1       6.183   1.258   0.907  1.00  0.00     0.080 C 
ENDROOT
BRANCH   1   2
ATOM      2  C   UNL     1       5.529   0.389   1.902  1.00  0.00     0.130 C 
ATOM      3  C   UNL     1       6.336  -0.824   2.336  1.00  0.00     0.087 C 
ATOM      4  O   UNL     1       4.450   0.526   2.403  1.00  0.00    -0.300 OA
ENDBRANCH   1   2
BRANCH   1   5
ATOM      5  C   UNL     1       5.897   0.953  -0.511  1.00  0.00     0.043 C 
BRANCH   5   6
ATOM      6  C   UNL     1       6.910   0.195  -1.251  1.00  0.00    -0.044 A 
ATOM      7  C   UNL     1       7.983   0.816  -1.893  1.00  0.00     0.008 A 
ATOM      8  C   UNL     1       6.840  -1.178  -1.305  1.00  0.00     0.054 A 
ATOM      9  C   UNL     1       8.909   0.043  -2.544  1.00  0.00     0.051 A 
ATOM     10  C   UNL     1       7.802  -1.945  -1.978  1.00  0.00     0.166 A 
ATOM     11  C   UNL     1       8.860  -1.332  -2.613  1.00  0.00     0.165 A 
ATOM     12  O   UNL     1       7.983  -3.306  -2.193  1.00  0.00    -0.454 OA
ATOM     13  O   UNL     1       9.665  -2.317  -3.200  1.00  0.00    -0.454 OA
ATOM     14  C   UNL     1       9.351  -3.512  -2.517  1.00  0.00     0.468 C 
ENDBRANCH   5   6
ENDBRANCH   1   5
TORSDOF 3
ENDMDL
MODEL 3
REMARK VINA RESULT:      -6.9      1.799      2.270
REMARK SMILES CC(=O)CCc1ccc2c(c1)OCO2
REMARK SMILES IDX 4 1 2 2 1 3 3 4 5 5 6 6 7 7 11 8 8 9 10 10 9 11 12 12 14 13
REMARK SMILES IDX 13 14
REMARK H PARENT
REMARK Flexibility Score: inf
ROOT
ATOM      1  C   UNL     1       5.948   1.486  -0.308  1.00  0.00     0.080 C 
ENDROOT
BRANCH   1   2
ATOM      2  C   UNL     1       5.287   1.404   1.007  1.00  0.00     0.130 C 
ATOM      3  C   UNL     1       5.704   0.227   1.872  1.00  0.00     0.087 C 
ATOM      4  O   UNL     1       4.469   2.149   1.467  1.00  0.00    -0.300 OA
ENDBRANCH   1   2
BRANCH   1   5
ATOM      5  C   UNL     1       7.371   1.088  -0.348  1.00  0.00     0.043 C 
BRANCH   5   6
ATOM      6  C   UNL     1       7.684  -0.223  -0.925  1.00  0.00    -0.044 A 
ATOM      7  C   UNL     1       7.824  -0.416  -2.300  1.00  0.00     0.008 A 
ATOM      8  C   UNL     1       7.878  -1.308  -0.103  1.00  0.00     0.054 A 
ATOM      9  C   UNL     1       8.145  -1.663  -2.769  1.00  0.00     0.051 A 
ATOM     10  C   UNL     1       8.207  -2.575  -0.610  1.00  0.00     0.166 A 
ATOM     11  C   UNL     1       8.344  -2.765  -1.967  1.00  0.00     0.165 A 
ATOM     12  O   UNL     1       8.454  -3.816  -0.037  1.00  0.00    -0.454 OA
ATOM     13  O   UNL     1       8.671  -4.107  -2.202  1.00  0.00    -0.454 OA
ATOM     14  C   UNL     1       9.189  -4.585  -0.978  1.00  0.00     0.468 C 
ENDBRANCH   5   6
ENDBRANCH   1   5
TORSDOF 3
ENDMDL
MODEL 4
REMARK VINA RESULT:      -6.8      1.156      1.645
REMARK SMILES CC(=O)CCc1ccc2c(c1)OCO2
REMARK SMILES IDX 4 1 2 2 1 3 3 4 5 5 6 6 7 7 11 8 8 9 10 10 9 11 12 12 14 13
REMARK SMILES IDX 13 14
REMARK H PARENT
REMARK Flexibility Score: inf
ROOT
ATOM      1  C   UNL     1       5.383  -0.090   1.955  1.00  0.00     0.080 C 
ENDROOT
BRANCH   1   2
ATOM      2  C   UNL     1       4.451   1.050   1.877  1.00  0.00     0.130 C 
ATOM      3  C   UNL     1       4.784   2.091   0.822  1.00  0.00     0.087 C 
ATOM      4  O   UNL     1       3.474   1.248   2.542  1.00  0.00    -0.300 OA
ENDBRANCH   1   2
BRANCH   1   5
ATOM      5  C   UNL     1       6.807   0.216   1.709  1.00  0.00     0.043 C 
BRANCH   5   6
ATOM      6  C   UNL     1       7.346  -0.117   0.387  1.00  0.00    -0.044 A 
ATOM      7  C   UNL     1       7.765   0.864  -0.514  1.00  0.00     0.008 A 
ATOM      8  C   UNL     1       7.477  -1.433   0.008  1.00  0.00     0.054 A 
ATOM      9  C   UNL     1       8.284   0.479  -1.723  1.00  0.00     0.051 A 
ATOM     10  C   UNL     1       8.013  -1.798  -1.236  1.00  0.00     0.166 A 
ATOM     11  C   UNL     1       8.426  -0.830  -2.125  1.00  0.00     0.165 A 
ATOM     12  O   UNL     1       8.259  -3.010  -1.870  1.00  0.00    -0.454 OA
ATOM     13  O   UNL     1       8.915  -1.458  -3.278  1.00  0.00    -0.454 OA
ATOM     14  C   UNL     1       9.228  -2.777  -2.881  1.00  0.00     0.468 C 
ENDBRANCH   5   6
ENDBRANCH   1   5
TORSDOF 3
ENDMDL
MODEL 5
REMARK VINA RESULT:      -6.8      1.879      2.428
REMARK SMILES CC(=O)CCc1ccc2c(c1)OCO2
REMARK SMILES IDX 4 1 2 2 1 3 3 4 5 5 6 6 7 7 11 8 8 9 10 10 9 11 12 12 14 13
REMARK SMILES IDX 13 14
REMARK H PARENT
REMARK Flexibility Score: inf
ROOT
ATOM      1  C   UNL     1       6.843   0.848   1.423  1.00  0.00     0.080 C 
ENDROOT
BRANCH   1   2
ATOM      2  C   UNL     1       5.404   1.154   1.525  1.00  0.00     0.130 C 
ATOM      3  C   UNL     1       4.878   2.150   0.506  1.00  0.00     0.087 C 
ATOM      4  O   UNL     1       4.612   0.713   2.308  1.00  0.00    -0.300 OA
ENDBRANCH   1   2
BRANCH   1   5
ATOM      5  C   UNL     1       7.429   0.918   0.068  1.00  0.00     0.043 C 
BRANCH   5   6
ATOM      6  C   UNL     1       7.703  -0.352  -0.611  1.00  0.00    -0.044 A 
ATOM      7  C   UNL     1       7.700  -0.468  -2.002  1.00  0.00     0.008 A 
ATOM      8  C   UNL     1       8.002  -1.475   0.125  1.00  0.00     0.054 A 
ATOM      9  C   UNL     1       7.992  -1.681  -2.570  1.00  0.00     0.051 A 
ATOM     10  C   UNL     1       8.298  -2.705  -0.483  1.00  0.00     0.166 A 
ATOM     11  C   UNL     1       8.294  -2.819  -1.856  1.00  0.00     0.165 A 
ATOM     12  O   UNL     1       8.627  -3.969  -0.009  1.00  0.00    -0.454 OA
ATOM     13  O   UNL     1       8.618  -4.139  -2.198  1.00  0.00    -0.454 OA
ATOM     14  C   UNL     1       9.271  -4.669  -1.063  1.00  0.00     0.468 C 
ENDBRANCH   5   6
ENDBRANCH   1   5
TORSDOF 3
ENDMDL
