@<TRIPOS>MOLECULE
/home/cewinharhar/GITHUB/reincatalyze/data/processed/docking_pred/2023-May-31-1727_sub9_nm5_bs15_s42_ex16_mel10_mts10000_k50_ec075_g099_lra3e-4_lrc3e-3/3b98b0574a09314ff34419eb6cee054edaec9098_ligand_9.pdbqt
 14 15 0 0 0
SMALL
GASTEIGER

@<TRIPOS>ATOM
      1  C          6.8430    0.8480    1.4230 C.3     1  UNL1        0.0800
      2  C          5.4040    1.1540    1.5250 C.2     1  UNL1        0.1300
      3  C          4.8780    2.1500    0.5060 C.3     1  UNL1        0.0870
      4  O          4.6120    0.7130    2.3080 O.2     1  UNL1       -0.3000
      5  C          7.4290    0.9180    0.0680 C.3     1  UNL1        0.0430
      6  C          7.7030   -0.3520   -0.6110 C.2     1  UNL1       -0.0440
      7  C          7.7000   -0.4680   -2.0020 C.2     1  UNL1        0.0080
      8  C          8.0020   -1.4750    0.1250 C.2     1  UNL1        0.0540
      9  C          7.9920   -1.6810   -2.5700 C.2     1  UNL1        0.0510
     10  C          8.2980   -2.7050   -0.4830 C.2     1  UNL1        0.1660
     11  C          8.2940   -2.8190   -1.8560 C.2     1  UNL1        0.1650
     12  O          8.6270   -3.9690   -0.0090 O.2     1  UNL1       -0.4540
     13  O          8.6180   -4.1390   -2.1980 O.2     1  UNL1       -0.4540
     14  C          9.2710   -4.6690   -1.0630 C.3     1  UNL1        0.4680
@<TRIPOS>BOND
     1     9     7    1
     2     9    11    2
     3    13    11    1
     4    13    14    1
     5     7     6    2
     6    11    10    1
     7    14    12    1
     8     6     5    1
     9     6     8    1
    10    10    12    1
    11    10     8    2
    12     5     1    1
    13     3     2    1
    14     1     2    1
    15     2     4    2
