@<TRIPOS>MOLECULE
/home/cewinharhar/GITHUB/reincatalyze/data/processed/docking_pred/2023-May-31-1727_sub9_nm5_bs15_s42_ex16_mel10_mts10000_k50_ec075_g099_lra3e-4_lrc3e-3/3bf4b9a3f06cfa5433c2fd34b58c3faf64c233d9_ligand_9.pdbqt
 14 15 0 0 0
SMALL
GASTEIGER

@<TRIPOS>ATOM
      1  C          5.5720    2.0350    1.3000 C.3     1  UNL1        0.0800
      2  C          5.4450    0.8120    2.1140 C.2     1  UNL1        0.1300
      3  C          6.7270    0.3360    2.7750 C.3     1  UNL1        0.0870
      4  O          4.4600    0.1600    2.3120 O.2     1  UNL1       -0.3000
      5  C          5.5330    1.8480   -0.1660 C.3     1  UNL1        0.0430
      6  C          6.6220    1.0770   -0.7720 C.2     1  UNL1       -0.0440
      7  C          7.9640    1.4090   -0.5820 C.2     1  UNL1        0.0080
      8  C          6.3380   -0.0310   -1.5360 C.2     1  UNL1        0.0540
      9  C          8.9320    0.6270   -1.1570 C.2     1  UNL1        0.0510
     10  C          7.3490   -0.8140   -2.1140 C.2     1  UNL1        0.1660
     11  C          8.6740   -0.4860   -1.9260 C.2     1  UNL1        0.1650
     12  O          7.3610   -1.9530   -2.9090 O.2     1  UNL1       -0.4540
     13  O          9.4690   -1.4210   -2.6020 O.2     1  UNL1       -0.4540
     14  C          8.6430   -2.5520   -2.7830 C.3     1  UNL1        0.4680
@<TRIPOS>BOND
     1    12    14    1
     2    12    10    1
     3    14    13    1
     4    13    11    1
     5    10    11    2
     6    10     8    1
     7    11     9    1
     8     8     6    2
     9     9     7    2
    10     6     7    1
    11     6     5    1
    12     5     1    1
    13     1     2    1
    14     2     4    2
    15     2     3    1
