MODEL 1
REMARK VINA RESULT:      -7.6      0.000      0.000
REMARK SMILES CC(=O)CCc1ccc2c(c1)OCO2
REMARK SMILES IDX 4 1 2 2 1 3 3 4 5 5 6 6 7 7 11 8 8 9 10 10 9 11 12 12 14 13
REMARK SMILES IDX 13 14
REMARK H PARENT
REMARK Flexibility Score: inf
ROOT
ATOM      1  C   UNL     1       5.572   2.035   1.300  1.00  0.00     0.080 C 
ENDROOT
BRANCH   1   2
ATOM      2  C   UNL     1       5.445   0.812   2.114  1.00  0.00     0.130 C 
ATOM      3  C   UNL     1       6.727   0.336   2.775  1.00  0.00     0.087 C 
ATOM      4  O   UNL     1       4.460   0.160   2.312  1.00  0.00    -0.300 OA
ENDBRANCH   1   2
BRANCH   1   5
ATOM      5  C   UNL     1       5.533   1.848  -0.166  1.00  0.00     0.043 C 
BRANCH   5   6
ATOM      6  C   UNL     1       6.622   1.077  -0.772  1.00  0.00    -0.044 A 
ATOM      7  C   UNL     1       7.964   1.409  -0.582  1.00  0.00     0.008 A 
ATOM      8  C   UNL     1       6.338  -0.031  -1.536  1.00  0.00     0.054 A 
ATOM      9  C   UNL     1       8.932   0.627  -1.157  1.00  0.00     0.051 A 
ATOM     10  C   UNL     1       7.349  -0.814  -2.114  1.00  0.00     0.166 A 
ATOM     11  C   UNL     1       8.674  -0.486  -1.926  1.00  0.00     0.165 A 
ATOM     12  O   UNL     1       7.361  -1.953  -2.909  1.00  0.00    -0.454 OA
ATOM     13  O   UNL     1       9.469  -1.421  -2.602  1.00  0.00    -0.454 OA
ATOM     14  C   UNL     1       8.643  -2.552  -2.783  1.00  0.00     0.468 C 
ENDBRANCH   5   6
ENDBRANCH   1   5
TORSDOF 3
ENDMDL
MODEL 2
REMARK VINA RESULT:      -7.5      0.931      1.014
REMARK SMILES CC(=O)CCc1ccc2c(c1)OCO2
REMARK SMILES IDX 4 1 2 2 1 3 3 4 5 5 6 6 7 7 11 8 8 9 10 10 9 11 12 12 14 13
REMARK SMILES IDX 13 14
REMARK H PARENT
REMARK Flexibility Score: inf
ROOT
ATOM      1  C   UNL     1       5.137   0.753   1.622  1.00  0.00     0.080 C 
ENDROOT
BRANCH   1   2
ATOM      2  C   UNL     1       6.164   0.129   2.477  1.00  0.00     0.130 C 
ATOM      3  C   UNL     1       6.391  -1.354   2.243  1.00  0.00     0.087 C 
ATOM      4  O   UNL     1       6.831   0.651   3.324  1.00  0.00    -0.300 OA
ENDBRANCH   1   2
BRANCH   1   5
ATOM      5  C   UNL     1       5.635   1.533   0.470  1.00  0.00     0.043 C 
BRANCH   5   6
ATOM      6  C   UNL     1       6.672   0.915  -0.360  1.00  0.00    -0.044 A 
ATOM      7  C   UNL     1       7.984   1.393  -0.391  1.00  0.00     0.008 A 
ATOM      8  C   UNL     1       6.376  -0.190  -1.123  1.00  0.00     0.054 A 
ATOM      9  C   UNL     1       8.910   0.749  -1.170  1.00  0.00     0.051 A 
ATOM     10  C   UNL     1       7.344  -0.831  -1.911  1.00  0.00     0.166 A 
ATOM     11  C   UNL     1       8.638  -0.359  -1.942  1.00  0.00     0.165 A 
ATOM     12  O   UNL     1       7.334  -1.932  -2.758  1.00  0.00    -0.454 OA
ATOM     13  O   UNL     1       9.393  -1.171  -2.798  1.00  0.00    -0.454 OA
ATOM     14  C   UNL     1       8.674  -2.383  -2.894  1.00  0.00     0.468 C 
ENDBRANCH   5   6
ENDBRANCH   1   5
TORSDOF 3
ENDMDL
MODEL 3
REMARK VINA RESULT:      -7.0      1.752      2.084
REMARK SMILES CC(=O)CCc1ccc2c(c1)OCO2
REMARK SMILES IDX 4 1 2 2 1 3 3 4 5 5 6 6 7 7 11 8 8 9 10 10 9 11 12 12 14 13
REMARK SMILES IDX 13 14
REMARK H PARENT
REMARK Flexibility Score: inf
ROOT
ATOM      1  C   UNL     1       5.383   1.414   0.262  1.00  0.00     0.080 C 
ENDROOT
BRANCH   1   2
ATOM      2  C   UNL     1       5.127   1.403   1.714  1.00  0.00     0.130 C 
ATOM      3  C   UNL     1       6.362   1.295   2.591  1.00  0.00     0.087 C 
ATOM      4  O   UNL     1       4.070   1.469   2.275  1.00  0.00    -0.300 OA
ENDBRANCH   1   2
BRANCH   1   5
ATOM      5  C   UNL     1       6.798   1.304  -0.151  1.00  0.00     0.043 C 
BRANCH   5   6
ATOM      6  C   UNL     1       7.227   0.031  -0.738  1.00  0.00    -0.044 A 
ATOM      7  C   UNL     1       7.378  -0.139  -2.115  1.00  0.00     0.008 A 
ATOM      8  C   UNL     1       7.524  -1.037   0.076  1.00  0.00     0.054 A 
ATOM      9  C   UNL     1       7.810  -1.349  -2.593  1.00  0.00     0.051 A 
ATOM     10  C   UNL     1       7.965  -2.265  -0.441  1.00  0.00     0.166 A 
ATOM     11  C   UNL     1       8.113  -2.433  -1.800  1.00  0.00     0.165 A 
ATOM     12  O   UNL     1       8.328  -3.482   0.122  1.00  0.00    -0.454 OA
ATOM     13  O   UNL     1       8.561  -3.738  -2.046  1.00  0.00    -0.454 OA
ATOM     14  C   UNL     1       9.126  -4.174  -0.827  1.00  0.00     0.468 C 
ENDBRANCH   5   6
ENDBRANCH   1   5
TORSDOF 3
ENDMDL
MODEL 4
REMARK VINA RESULT:      -7.0      1.954      2.461
REMARK SMILES CC(=O)CCc1ccc2c(c1)OCO2
REMARK SMILES IDX 4 1 2 2 1 3 3 4 5 5 6 6 7 7 11 8 8 9 10 10 9 11 12 12 14 13
REMARK SMILES IDX 13 14
REMARK H PARENT
REMARK Flexibility Score: inf
ROOT
ATOM      1  C   UNL     1       5.807   0.353   2.225  1.00  0.00     0.080 C 
ENDROOT
BRANCH   1   2
ATOM      2  C   UNL     1       4.691   1.267   1.922  1.00  0.00     0.130 C 
ATOM      3  C   UNL     1       4.862   2.108   0.668  1.00  0.00     0.087 C 
ATOM      4  O   UNL     1       3.678   1.421   2.542  1.00  0.00    -0.300 OA
ENDBRANCH   1   2
BRANCH   1   5
ATOM      5  C   UNL     1       7.042   0.548   1.436  1.00  0.00     0.043 C 
BRANCH   5   6
ATOM      6  C   UNL     1       7.348  -0.453   0.411  1.00  0.00    -0.044 A 
ATOM      7  C   UNL     1       7.224  -0.184  -0.953  1.00  0.00     0.008 A 
ATOM      8  C   UNL     1       7.802  -1.699   0.779  1.00  0.00     0.054 A 
ATOM      9  C   UNL     1       7.554  -1.160  -1.857  1.00  0.00     0.051 A 
ATOM     10  C   UNL     1       8.133  -2.679  -0.168  1.00  0.00     0.166 A 
ATOM     11  C   UNL     1       8.010  -2.414  -1.514  1.00  0.00     0.165 A 
ATOM     12  O   UNL     1       8.602  -3.985  -0.092  1.00  0.00    -0.454 OA
ATOM     13  O   UNL     1       8.402  -3.549  -2.235  1.00  0.00    -0.454 OA
ATOM     14  C   UNL     1       9.197  -4.302  -1.342  1.00  0.00     0.468 C 
ENDBRANCH   5   6
ENDBRANCH   1   5
TORSDOF 3
ENDMDL
MODEL 5
REMARK VINA RESULT:      -7.0      1.207      1.727
REMARK SMILES CC(=O)CCc1ccc2c(c1)OCO2
REMARK SMILES IDX 4 1 2 2 1 3 3 4 5 5 6 6 7 7 11 8 8 9 10 10 9 11 12 12 14 13
REMARK SMILES IDX 13 14
REMARK H PARENT
REMARK Flexibility Score: inf
ROOT
ATOM      1  C   UNL     1       5.329  -0.005   2.039  1.00  0.00     0.080 C 
ENDROOT
BRANCH   1   2
ATOM      2  C   UNL     1       4.430   1.162   1.977  1.00  0.00     0.130 C 
ATOM      3  C   UNL     1       4.724   2.150   0.861  1.00  0.00     0.087 C 
ATOM      4  O   UNL     1       3.505   1.417   2.695  1.00  0.00    -0.300 OA
ENDBRANCH   1   2
BRANCH   1   5
ATOM      5  C   UNL     1       6.763   0.266   1.810  1.00  0.00     0.043 C 
BRANCH   5   6
ATOM      6  C   UNL     1       7.297  -0.029   0.477  1.00  0.00    -0.044 A 
ATOM      7  C   UNL     1       7.802   0.967  -0.359  1.00  0.00     0.008 A 
ATOM      8  C   UNL     1       7.336  -1.327   0.023  1.00  0.00     0.054 A 
ATOM      9  C   UNL     1       8.311   0.616  -1.583  1.00  0.00     0.051 A 
ATOM     10  C   UNL     1       7.863  -1.659  -1.234  1.00  0.00     0.166 A 
ATOM     11  C   UNL     1       8.361  -0.675  -2.060  1.00  0.00     0.165 A 
ATOM     12  O   UNL     1       8.028  -2.847  -1.936  1.00  0.00    -0.454 OA
ATOM     13  O   UNL     1       8.820  -1.270  -3.242  1.00  0.00    -0.454 OA
ATOM     14  C   UNL     1       9.029  -2.629  -2.920  1.00  0.00     0.468 C 
ENDBRANCH   5   6
ENDBRANCH   1   5
TORSDOF 3
ENDMDL
