@<TRIPOS>MOLECULE
/home/cewinharhar/GITHUB/reincatalyze/data/processed/docking_pred/2023-May-31-1727_sub9_nm5_bs15_s42_ex16_mel10_mts10000_k50_ec075_g099_lra3e-4_lrc3e-3/3bf4b9a3f06cfa5433c2fd34b58c3faf64c233d9_ligand_9.pdbqt
 14 15 0 0 0
SMALL
GASTEIGER

@<TRIPOS>ATOM
      1  C          5.3290   -0.0050    2.0390 C.3     1  UNL1        0.0800
      2  C          4.4300    1.1620    1.9770 C.2     1  UNL1        0.1300
      3  C          4.7240    2.1500    0.8610 C.3     1  UNL1        0.0870
      4  O          3.5050    1.4170    2.6950 O.2     1  UNL1       -0.3000
      5  C          6.7630    0.2660    1.8100 C.3     1  UNL1        0.0430
      6  C          7.2970   -0.0290    0.4770 C.2     1  UNL1       -0.0440
      7  C          7.8020    0.9670   -0.3590 C.2     1  UNL1        0.0080
      8  C          7.3360   -1.3270    0.0230 C.2     1  UNL1        0.0540
      9  C          8.3110    0.6160   -1.5830 C.2     1  UNL1        0.0510
     10  C          7.8630   -1.6590   -1.2340 C.2     1  UNL1        0.1660
     11  C          8.3610   -0.6750   -2.0600 C.2     1  UNL1        0.1650
     12  O          8.0280   -2.8470   -1.9360 O.2     1  UNL1       -0.4540
     13  O          8.8200   -1.2700   -3.2420 O.2     1  UNL1       -0.4540
     14  C          9.0290   -2.6290   -2.9200 C.3     1  UNL1        0.4680
@<TRIPOS>BOND
     1    13    14    1
     2    13    11    1
     3    14    12    1
     4    11     9    2
     5    11    10    1
     6    12    10    1
     7     9     7    1
     8    10     8    2
     9     7     6    2
    10     8     6    1
    11     6     5    1
    12     3     2    1
    13     5     1    1
    14     2     1    1
    15     2     4    2
