@<TRIPOS>MOLECULE
/home/cewinharhar/GITHUB/reincatalyze/data/processed/docking_pred/2023-May-31-1727_sub9_nm5_bs15_s42_ex16_mel10_mts10000_k50_ec075_g099_lra3e-4_lrc3e-3/3c93f0ab1d0179ecce707f4524a6ff468bff7290_ligand_9.pdbqt
 14 15 0 0 0
SMALL
GASTEIGER

@<TRIPOS>ATOM
      1  C          5.3880   -0.0750    1.9490 C.3     1  UNL1        0.0800
      2  C          4.4490    1.0590    1.8670 C.2     1  UNL1        0.1300
      3  C          4.7910    2.1120    0.8270 C.3     1  UNL1        0.0870
      4  O          3.4600    1.2440    2.5180 O.2     1  UNL1       -0.3000
      5  C          6.8090    0.2360    1.6920 C.3     1  UNL1        0.0430
      6  C          7.3410   -0.1050    0.3690 C.2     1  UNL1       -0.0440
      7  C          7.7410    0.8710   -0.5460 C.2     1  UNL1        0.0080
      8  C          7.4880   -1.4230    0.0050 C.2     1  UNL1        0.0540
      9  C          8.2550    0.4790   -1.7550 C.2     1  UNL1        0.0510
     10  C          8.0180   -1.7950   -1.2400 C.2     1  UNL1        0.1660
     11  C          8.4110   -0.8330   -2.1430 C.2     1  UNL1        0.1650
     12  O          8.2750   -3.0110   -1.8620 O.2     1  UNL1       -0.4540
     13  O          8.8990   -1.4670   -3.2930 O.2     1  UNL1       -0.4540
     14  C          9.2330   -2.7770   -2.8840 C.3     1  UNL1        0.4680
@<TRIPOS>BOND
     1    13    14    1
     2    13    11    1
     3    14    12    1
     4    11     9    2
     5    11    10    1
     6    12    10    1
     7     9     7    1
     8    10     8    2
     9     7     6    2
    10     8     6    1
    11     6     5    1
    12     3     2    1
    13     5     1    1
    14     2     1    1
    15     2     4    2
