@<TRIPOS>MOLECULE
/home/cewinharhar/GITHUB/reincatalyze/data/processed/docking_pred/2023-May-31-1727_sub9_nm5_bs15_s42_ex16_mel10_mts10000_k50_ec075_g099_lra3e-4_lrc3e-3/3e742204aaadd08b2af2eabe2bac092cf241077d_ligand_9.pdbqt
 14 15 0 0 0
SMALL
GASTEIGER

@<TRIPOS>ATOM
      1  C          5.8490    1.6490   -0.0970 C.3     1  UNL1        0.0800
      2  C          5.0710    1.3910    1.1280 C.2     1  UNL1        0.1300
      3  C          5.5550    0.2250    1.9730 C.3     1  UNL1        0.0870
      4  O          4.1120    1.9880    1.5300 O.2     1  UNL1       -0.3000
      5  C          7.2500    1.1790   -0.0890 C.3     1  UNL1        0.0430
      6  C          7.5280   -0.1120   -0.7240 C.2     1  UNL1       -0.0440
      7  C          7.4820   -0.2850   -2.1090 C.2     1  UNL1        0.0080
      8  C          7.8730   -1.1990    0.0450 C.2     1  UNL1        0.0540
      9  C          7.7790   -1.5140   -2.6370 C.2     1  UNL1        0.0510
     10  C          8.1740   -2.4460   -0.5220 C.2     1  UNL1        0.1660
     11  C          8.1280   -2.6170   -1.8880 C.2     1  UNL1        0.1650
     12  O          8.5430   -3.6840   -0.0090 O.2     1  UNL1       -0.4540
     13  O          8.4670   -3.9420   -2.1880 O.2     1  UNL1       -0.4540
     14  C          9.1670   -4.4140   -1.0550 C.3     1  UNL1        0.4680
@<TRIPOS>BOND
     1     9     7    1
     2     9    11    2
     3    13    11    1
     4    13    14    1
     5     7     6    2
     6    11    10    1
     7    14    12    1
     8     6     5    1
     9     6     8    1
    10    10    12    1
    11    10     8    2
    12     1     5    1
    13     1     2    1
    14     2     4    2
    15     2     3    1
