@<TRIPOS>MOLECULE
/home/cewinharhar/GITHUB/reincatalyze/data/processed/docking_pred/2023-May-31-1727_sub9_nm5_bs15_s42_ex16_mel10_mts10000_k50_ec075_g099_lra3e-4_lrc3e-3/3e742204aaadd08b2af2eabe2bac092cf241077d_ligand_9.pdbqt
 14 15 0 0 0
SMALL
GASTEIGER

@<TRIPOS>ATOM
      1  C          6.1800    1.3060    0.8770 C.3     1  UNL1        0.0800
      2  C          5.5180    0.4490    1.8770 C.2     1  UNL1        0.1300
      3  C          6.2860   -0.8000    2.2730 C.3     1  UNL1        0.0870
      4  O          4.4570    0.6210    2.4060 O.2     1  UNL1       -0.3000
      5  C          5.8910    0.9970   -0.5400 C.3     1  UNL1        0.0430
      6  C          6.8900    0.2120   -1.2710 C.2     1  UNL1       -0.0440
      7  C          7.9530    0.8090   -1.9500 C.2     1  UNL1        0.0080
      8  C          6.8140   -1.1610   -1.2820 C.2     1  UNL1        0.0540
      9  C          8.8660    0.0130   -2.5910 C.2     1  UNL1        0.0510
     10  C          7.7630   -1.9530   -1.9460 C.2     1  UNL1        0.1660
     11  C          8.8120   -1.3630   -2.6160 C.2     1  UNL1        0.1650
     12  O          7.9360   -3.3200   -2.1210 O.2     1  UNL1       -0.4540
     13  O          9.6040   -2.3690   -3.1860 O.2     1  UNL1       -0.4540
     14  C          9.2980   -3.5410   -2.4610 C.3     1  UNL1        0.4680
@<TRIPOS>BOND
     1    13    11    1
     2    13    14    1
     3    11     9    2
     4    11    10    1
     5     9     7    1
     6    14    12    1
     7    12    10    1
     8     7     6    2
     9    10     8    2
    10     8     6    1
    11     6     5    1
    12     5     1    1
    13     1     2    1
    14     2     3    1
    15     2     4    2
