MODEL 1
REMARK VINA RESULT:      -7.7      0.000      0.000
REMARK SMILES CC(=O)CCc1ccc2c(c1)OCO2
REMARK SMILES IDX 4 1 2 2 1 3 3 4 5 5 6 6 7 7 11 8 8 9 10 10 9 11 12 12 14 13
REMARK SMILES IDX 13 14
REMARK H PARENT
REMARK Flexibility Score: inf
ROOT
ATOM      1  C   UNL     1       5.643   1.910   1.276  1.00  0.00     0.080 C 
ENDROOT
BRANCH   1   2
ATOM      2  C   UNL     1       5.075   0.762   2.005  1.00  0.00     0.130 C 
ATOM      3  C   UNL     1       6.015  -0.417   2.197  1.00  0.00     0.087 C 
ATOM      4  O   UNL     1       3.972   0.652   2.459  1.00  0.00    -0.300 OA
ENDBRANCH   1   2
BRANCH   1   5
ATOM      5  C   UNL     1       5.637   1.812  -0.199  1.00  0.00     0.043 C 
BRANCH   5   6
ATOM      6  C   UNL     1       6.713   1.038  -0.824  1.00  0.00    -0.044 A 
ATOM      7  C   UNL     1       8.056   1.393  -0.696  1.00  0.00     0.008 A 
ATOM      8  C   UNL     1       6.416  -0.096  -1.543  1.00  0.00     0.054 A 
ATOM      9  C   UNL     1       9.013   0.607  -1.285  1.00  0.00     0.051 A 
ATOM     10  C   UNL     1       7.416  -0.883  -2.136  1.00  0.00     0.166 A 
ATOM     11  C   UNL     1       8.742  -0.532  -2.010  1.00  0.00     0.165 A 
ATOM     12  O   UNL     1       7.414  -2.046  -2.897  1.00  0.00    -0.454 OA
ATOM     13  O   UNL     1       9.524  -1.475  -2.689  1.00  0.00    -0.454 OA
ATOM     14  C   UNL     1       8.708  -2.623  -2.804  1.00  0.00     0.468 C 
ENDBRANCH   5   6
ENDBRANCH   1   5
TORSDOF 3
ENDMDL
MODEL 2
REMARK VINA RESULT:      -7.0      0.993      1.067
REMARK SMILES CC(=O)CCc1ccc2c(c1)OCO2
REMARK SMILES IDX 4 1 2 2 1 3 3 4 5 5 6 6 7 7 11 8 8 9 10 10 9 11 12 12 14 13
REMARK SMILES IDX 13 14
REMARK H PARENT
REMARK Flexibility Score: inf
ROOT
ATOM      1  C   UNL     1       6.180   1.306   0.877  1.00  0.00     0.080 C 
ENDROOT
BRANCH   1   2
ATOM      2  C   UNL     1       5.518   0.449   1.877  1.00  0.00     0.130 C 
ATOM      3  C   UNL     1       6.286  -0.800   2.273  1.00  0.00     0.087 C 
ATOM      4  O   UNL     1       4.457   0.621   2.406  1.00  0.00    -0.300 OA
ENDBRANCH   1   2
BRANCH   1   5
ATOM      5  C   UNL     1       5.891   0.997  -0.540  1.00  0.00     0.043 C 
BRANCH   5   6
ATOM      6  C   UNL     1       6.890   0.212  -1.271  1.00  0.00    -0.044 A 
ATOM      7  C   UNL     1       7.953   0.809  -1.950  1.00  0.00     0.008 A 
ATOM      8  C   UNL     1       6.814  -1.161  -1.282  1.00  0.00     0.054 A 
ATOM      9  C   UNL     1       8.866   0.013  -2.591  1.00  0.00     0.051 A 
ATOM     10  C   UNL     1       7.763  -1.953  -1.946  1.00  0.00     0.166 A 
ATOM     11  C   UNL     1       8.812  -1.363  -2.616  1.00  0.00     0.165 A 
ATOM     12  O   UNL     1       7.936  -3.320  -2.121  1.00  0.00    -0.454 OA
ATOM     13  O   UNL     1       9.604  -2.369  -3.186  1.00  0.00    -0.454 OA
ATOM     14  C   UNL     1       9.298  -3.541  -2.461  1.00  0.00     0.468 C 
ENDBRANCH   5   6
ENDBRANCH   1   5
TORSDOF 3
ENDMDL
MODEL 3
REMARK VINA RESULT:      -7.0      1.763      2.187
REMARK SMILES CC(=O)CCc1ccc2c(c1)OCO2
REMARK SMILES IDX 4 1 2 2 1 3 3 4 5 5 6 6 7 7 11 8 8 9 10 10 9 11 12 12 14 13
REMARK SMILES IDX 13 14
REMARK H PARENT
REMARK Flexibility Score: inf
ROOT
ATOM      1  C   UNL     1       5.849   1.649  -0.097  1.00  0.00     0.080 C 
ENDROOT
BRANCH   1   2
ATOM      2  C   UNL     1       5.071   1.391   1.128  1.00  0.00     0.130 C 
ATOM      3  C   UNL     1       5.555   0.225   1.973  1.00  0.00     0.087 C 
ATOM      4  O   UNL     1       4.112   1.988   1.530  1.00  0.00    -0.300 OA
ENDBRANCH   1   2
BRANCH   1   5
ATOM      5  C   UNL     1       7.250   1.179  -0.089  1.00  0.00     0.043 C 
BRANCH   5   6
ATOM      6  C   UNL     1       7.528  -0.112  -0.724  1.00  0.00    -0.044 A 
ATOM      7  C   UNL     1       7.482  -0.285  -2.109  1.00  0.00     0.008 A 
ATOM      8  C   UNL     1       7.873  -1.199   0.045  1.00  0.00     0.054 A 
ATOM      9  C   UNL     1       7.779  -1.514  -2.637  1.00  0.00     0.051 A 
ATOM     10  C   UNL     1       8.174  -2.446  -0.522  1.00  0.00     0.166 A 
ATOM     11  C   UNL     1       8.128  -2.617  -1.888  1.00  0.00     0.165 A 
ATOM     12  O   UNL     1       8.543  -3.684  -0.009  1.00  0.00    -0.454 OA
ATOM     13  O   UNL     1       8.467  -3.942  -2.188  1.00  0.00    -0.454 OA
ATOM     14  C   UNL     1       9.167  -4.414  -1.055  1.00  0.00     0.468 C 
ENDBRANCH   5   6
ENDBRANCH   1   5
TORSDOF 3
ENDMDL
MODEL 4
REMARK VINA RESULT:      -6.9      1.168      1.652
REMARK SMILES CC(=O)CCc1ccc2c(c1)OCO2
REMARK SMILES IDX 4 1 2 2 1 3 3 4 5 5 6 6 7 7 11 8 8 9 10 10 9 11 12 12 14 13
REMARK SMILES IDX 13 14
REMARK H PARENT
REMARK Flexibility Score: inf
ROOT
ATOM      1  C   UNL     1       5.381  -0.069   1.953  1.00  0.00     0.080 C 
ENDROOT
BRANCH   1   2
ATOM      2  C   UNL     1       4.436   1.057   1.851  1.00  0.00     0.130 C 
ATOM      3  C   UNL     1       4.771   2.093   0.792  1.00  0.00     0.087 C 
ATOM      4  O   UNL     1       3.446   1.247   2.498  1.00  0.00    -0.300 OA
ENDBRANCH   1   2
BRANCH   1   5
ATOM      5  C   UNL     1       6.802   0.247   1.697  1.00  0.00     0.043 C 
BRANCH   5   6
ATOM      6  C   UNL     1       7.337  -0.094   0.376  1.00  0.00    -0.044 A 
ATOM      7  C   UNL     1       7.754   0.881  -0.532  1.00  0.00     0.008 A 
ATOM      8  C   UNL     1       7.470  -1.412   0.006  1.00  0.00     0.054 A 
ATOM      9  C   UNL     1       8.270   0.490  -1.740  1.00  0.00     0.051 A 
ATOM     10  C   UNL     1       8.002  -1.785  -1.238  1.00  0.00     0.166 A 
ATOM     11  C   UNL     1       8.412  -0.823  -2.134  1.00  0.00     0.165 A 
ATOM     12  O   UNL     1       8.248  -3.000  -1.864  1.00  0.00    -0.454 OA
ATOM     13  O   UNL     1       8.899  -1.457  -3.284  1.00  0.00    -0.454 OA
ATOM     14  C   UNL     1       9.215  -2.773  -2.879  1.00  0.00     0.468 C 
ENDBRANCH   5   6
ENDBRANCH   1   5
TORSDOF 3
ENDMDL
MODEL 5
REMARK VINA RESULT:      -6.8      1.889      2.439
REMARK SMILES CC(=O)CCc1ccc2c(c1)OCO2
REMARK SMILES IDX 4 1 2 2 1 3 3 4 5 5 6 6 7 7 11 8 8 9 10 10 9 11 12 12 14 13
REMARK SMILES IDX 13 14
REMARK H PARENT
REMARK Flexibility Score: inf
ROOT
ATOM      1  C   UNL     1       6.740   0.748   1.499  1.00  0.00     0.080 C 
ENDROOT
BRANCH   1   2
ATOM      2  C   UNL     1       5.315   1.119   1.575  1.00  0.00     0.130 C 
ATOM      3  C   UNL     1       4.856   2.148   0.557  1.00  0.00     0.087 C 
ATOM      4  O   UNL     1       4.488   0.707   2.338  1.00  0.00    -0.300 OA
ENDBRANCH   1   2
BRANCH   1   5
ATOM      5  C   UNL     1       7.370   0.853   0.166  1.00  0.00     0.043 C 
BRANCH   5   6
ATOM      6  C   UNL     1       7.656  -0.398  -0.541  1.00  0.00    -0.044 A 
ATOM      7  C   UNL     1       7.660  -0.482  -1.934  1.00  0.00     0.008 A 
ATOM      8  C   UNL     1       7.962  -1.536   0.170  1.00  0.00     0.054 A 
ATOM      9  C   UNL     1       7.963  -1.679  -2.529  1.00  0.00     0.051 A 
ATOM     10  C   UNL     1       8.269  -2.749  -0.466  1.00  0.00     0.166 A 
ATOM     11  C   UNL     1       8.272  -2.831  -1.841  1.00  0.00     0.165 A 
ATOM     12  O   UNL     1       8.606  -4.021  -0.020  1.00  0.00    -0.454 OA
ATOM     13  O   UNL     1       8.607  -4.140  -2.212  1.00  0.00    -0.454 OA
ATOM     14  C   UNL     1       9.259  -4.692  -1.088  1.00  0.00     0.468 C 
ENDBRANCH   5   6
ENDBRANCH   1   5
TORSDOF 3
ENDMDL
