@<TRIPOS>MOLECULE
/home/cewinharhar/GITHUB/reincatalyze/data/processed/docking_pred/2023-May-31-1727_sub9_nm5_bs15_s42_ex16_mel10_mts10000_k50_ec075_g099_lra3e-4_lrc3e-3/3e742204aaadd08b2af2eabe2bac092cf241077d_ligand_9.pdbqt
 14 15 0 0 0
SMALL
GASTEIGER

@<TRIPOS>ATOM
      1  C          6.7400    0.7480    1.4990 C.3     1  UNL1        0.0800
      2  C          5.3150    1.1190    1.5750 C.2     1  UNL1        0.1300
      3  C          4.8560    2.1480    0.5570 C.3     1  UNL1        0.0870
      4  O          4.4880    0.7070    2.3380 O.2     1  UNL1       -0.3000
      5  C          7.3700    0.8530    0.1660 C.3     1  UNL1        0.0430
      6  C          7.6560   -0.3980   -0.5410 C.2     1  UNL1       -0.0440
      7  C          7.6600   -0.4820   -1.9340 C.2     1  UNL1        0.0080
      8  C          7.9620   -1.5360    0.1700 C.2     1  UNL1        0.0540
      9  C          7.9630   -1.6790   -2.5290 C.2     1  UNL1        0.0510
     10  C          8.2690   -2.7490   -0.4660 C.2     1  UNL1        0.1660
     11  C          8.2720   -2.8310   -1.8410 C.2     1  UNL1        0.1650
     12  O          8.6060   -4.0210   -0.0200 O.2     1  UNL1       -0.4540
     13  O          8.6070   -4.1400   -2.2120 O.2     1  UNL1       -0.4540
     14  C          9.2590   -4.6920   -1.0880 C.3     1  UNL1        0.4680
@<TRIPOS>BOND
     1     9     7    1
     2     9    11    2
     3    13    11    1
     4    13    14    1
     5     7     6    2
     6    11    10    1
     7    14    12    1
     8     6     5    1
     9     6     8    1
    10    10    12    1
    11    10     8    2
    12     5     1    1
    13     3     2    1
    14     1     2    1
    15     2     4    2
