@<TRIPOS>MOLECULE
/home/cewinharhar/GITHUB/reincatalyze/data/processed/docking_pred/2023-May-31-1727_sub9_nm5_bs15_s42_ex16_mel10_mts10000_k50_ec075_g099_lra3e-4_lrc3e-3/404021d27c656f8fbd9408a440432f577c9906d0_ligand_9.pdbqt
 14 15 0 0 0
SMALL
GASTEIGER

@<TRIPOS>ATOM
      1  C          6.2000   -0.3450    2.3380 C.3     1  UNL1        0.0800
      2  C          5.1060    0.5620    1.9450 C.2     1  UNL1        0.1300
      3  C          5.3420    1.3500    0.6680 C.3     1  UNL1        0.0870
      4  O          4.0650    0.7460    2.5090 O.2     1  UNL1       -0.3000
      5  C          7.4740   -0.1860    1.6040 C.3     1  UNL1        0.0430
      6  C          7.7420   -1.1290    0.5150 C.2     1  UNL1       -0.0440
      7  C          7.6750   -0.7530   -0.8280 C.2     1  UNL1        0.0080
      8  C          8.1010   -2.4260    0.8000 C.2     1  UNL1        0.0540
      9  C          7.9650   -1.6810   -1.7940 C.2     1  UNL1        0.0510
     10  C          8.3930   -3.3550   -0.2100 C.2     1  UNL1        0.1660
     11  C          8.3260   -2.9840   -1.5350 C.2     1  UNL1        0.1650
     12  O          8.7710   -4.6920   -0.2210 O.2     1  UNL1       -0.4540
     13  O          8.6610   -4.0890   -2.3290 O.2     1  UNL1       -0.4540
     14  C          9.3790   -4.9570   -1.4760 C.3     1  UNL1        0.4680
@<TRIPOS>BOND
     1    13    11    1
     2    13    14    1
     3     9    11    2
     4     9     7    1
     5    11    10    1
     6    14    12    1
     7     7     6    2
     8    12    10    1
     9    10     8    2
    10     6     8    1
    11     6     5    1
    12     3     2    1
    13     5     1    1
    14     2     1    1
    15     2     4    2
