@<TRIPOS>MOLECULE
/home/cewinharhar/GITHUB/reincatalyze/data/processed/docking_pred/2023-May-31-1727_sub9_nm5_bs15_s42_ex16_mel10_mts10000_k50_ec075_g099_lra3e-4_lrc3e-3/404021d27c656f8fbd9408a440432f577c9906d0_ligand_9.pdbqt
 14 15 0 0 0
SMALL
GASTEIGER

@<TRIPOS>ATOM
      1  C          6.1580    1.4580   -0.1700 C.3     1  UNL1        0.0800
      2  C          6.0340    1.4090    1.2980 C.2     1  UNL1        0.1300
      3  C          5.1730    0.2810    1.8410 C.3     1  UNL1        0.0870
      4  O          6.5280    2.1470    2.1030 O.2     1  UNL1       -0.3000
      5  C          7.5040    1.1900   -0.7190 C.3     1  UNL1        0.0430
      6  C          7.7750   -0.1700   -1.1930 C.2     1  UNL1       -0.0440
      7  C          7.9230   -0.4710   -2.5480 C.2     1  UNL1        0.0080
      8  C          7.9210   -1.1980   -0.2900 C.2     1  UNL1        0.0540
      9  C          8.2040   -1.7600   -2.9180 C.2     1  UNL1        0.0510
     10  C          8.2090   -2.5100   -0.6960 C.2     1  UNL1        0.1660
     11  C          8.3540   -2.8060   -2.0340 C.2     1  UNL1        0.1650
     12  O          8.4050   -3.7130   -0.0300 O.2     1  UNL1       -0.4540
     13  O          8.6340   -4.1720   -2.1640 O.2     1  UNL1       -0.4540
     14  C          9.1210   -4.5760   -0.9010 C.3     1  UNL1        0.4680
@<TRIPOS>BOND
     1     9     7    1
     2     9    11    2
     3     7     6    2
     4    13    11    1
     5    13    14    1
     6    11    10    1
     7     6     5    1
     8     6     8    1
     9    14    12    1
    10     5     1    1
    11    10     8    2
    12    10    12    1
    13     1     2    1
    14     2     3    1
    15     2     4    2
