@<TRIPOS>MOLECULE
/home/cewinharhar/GITHUB/reincatalyze/data/processed/docking_pred/2023-May-31-1727_sub9_nm5_bs15_s42_ex16_mel10_mts10000_k50_ec075_g099_lra3e-4_lrc3e-3/40acbf0de97fa4e5d7c484f453b530351da0d172_ligand_9.pdbqt
 14 15 0 0 0
SMALL
GASTEIGER

@<TRIPOS>ATOM
      1  C          5.5790    1.9170    1.2470 C.3     1  UNL1        0.0800
      2  C          5.0350    0.7760    2.0060 C.2     1  UNL1        0.1300
      3  C          5.9910   -0.3870    2.2050 C.3     1  UNL1        0.0870
      4  O          3.9400    0.6630    2.4800 O.2     1  UNL1       -0.3000
      5  C          5.5660    1.7850   -0.2250 C.3     1  UNL1        0.0430
      6  C          6.6560    1.0200   -0.8390 C.2     1  UNL1       -0.0440
      7  C          7.9940    1.3930   -0.7030 C.2     1  UNL1        0.0080
      8  C          6.3780   -0.1210   -1.5540 C.2     1  UNL1        0.0540
      9  C          8.9640    0.6160   -1.2810 C.2     1  UNL1        0.0510
     10  C          7.3920   -0.8990   -2.1350 C.2     1  UNL1        0.1660
     11  C          8.7120   -0.5300   -2.0020 C.2     1  UNL1        0.1650
     12  O          7.4090   -2.0650   -2.8900 O.2     1  UNL1       -0.4540
     13  O          9.5110   -1.4680   -2.6700 O.2     1  UNL1       -0.4540
     14  C          8.7100   -2.6260   -2.7840 C.3     1  UNL1        0.4680
@<TRIPOS>BOND
     1    12    14    1
     2    12    10    1
     3    14    13    1
     4    13    11    1
     5    10    11    2
     6    10     8    1
     7    11     9    1
     8     8     6    2
     9     9     7    2
    10     6     7    1
    11     6     5    1
    12     5     1    1
    13     1     2    1
    14     2     3    1
    15     2     4    2
