@<TRIPOS>MOLECULE
/home/cewinharhar/GITHUB/reincatalyze/data/processed/docking_pred/2023-May-31-1727_sub9_nm5_bs15_s42_ex16_mel10_mts10000_k50_ec075_g099_lra3e-4_lrc3e-3/40acbf0de97fa4e5d7c484f453b530351da0d172_ligand_9.pdbqt
 14 15 0 0 0
SMALL
GASTEIGER

@<TRIPOS>ATOM
      1  C          6.1900    1.2230    0.9090 C.3     1  UNL1        0.0800
      2  C          5.5240    0.3960    1.9310 C.2     1  UNL1        0.1300
      3  C          6.3070   -0.8210    2.3950 C.3     1  UNL1        0.0870
      4  O          4.4490    0.5700    2.4330 O.2     1  UNL1       -0.3000
      5  C          5.8520    0.9180   -0.4970 C.3     1  UNL1        0.0430
      6  C          6.8310    0.1490   -1.2700 C.2     1  UNL1       -0.0440
      7  C          7.7820    0.7630   -2.0870 C.2     1  UNL1        0.0080
      8  C          6.8520   -1.2240   -1.1830 C.2     1  UNL1        0.0540
      9  C          8.6860   -0.0180   -2.7610 C.2     1  UNL1        0.0510
     10  C          7.7890   -1.9990   -1.8840 C.2     1  UNL1        0.1660
     11  C          8.7270   -1.3930   -2.6910 C.2     1  UNL1        0.1650
     12  O          8.0410   -3.3610   -1.9850 O.2     1  UNL1       -0.4540
     13  O          9.5320   -2.3840   -3.2680 O.2     1  UNL1       -0.4540
     14  C          9.3770   -3.5180   -2.4410 C.3     1  UNL1        0.4680
@<TRIPOS>BOND
     1    13    11    1
     2    13    14    1
     3     9    11    2
     4     9     7    1
     5    11    10    1
     6    14    12    1
     7     7     6    2
     8    12    10    1
     9    10     8    2
    10     6     8    1
    11     6     5    1
    12     5     1    1
    13     1     2    1
    14     2     3    1
    15     2     4    2
