@<TRIPOS>MOLECULE
/home/cewinharhar/GITHUB/reincatalyze/data/processed/docking_pred/2023-May-31-1727_sub9_nm5_bs15_s42_ex16_mel10_mts10000_k50_ec075_g099_lra3e-4_lrc3e-3/40acbf0de97fa4e5d7c484f453b530351da0d172_ligand_9.pdbqt
 14 15 0 0 0
SMALL
GASTEIGER

@<TRIPOS>ATOM
      1  C          5.7420    1.3630   -0.3570 C.3     1  UNL1        0.0800
      2  C          5.1080    1.3850    0.9730 C.2     1  UNL1        0.1300
      3  C          5.5880    0.3170    1.9400 C.3     1  UNL1        0.0870
      4  O          4.2690    2.1400    1.3750 O.2     1  UNL1       -0.3000
      5  C          7.1890    1.0610   -0.3850 C.3     1  UNL1        0.0430
      6  C          7.5950   -0.2270   -0.9540 C.2     1  UNL1       -0.0440
      7  C          7.8280   -0.3960   -2.3200 C.2     1  UNL1        0.0080
      8  C          7.7860   -1.3140   -0.1330 C.2     1  UNL1        0.0540
      9  C          8.2310   -1.6220   -2.7810 C.2     1  UNL1        0.0510
     10  C          8.2000   -2.5580   -0.6310 C.2     1  UNL1        0.1660
     11  C          8.4290   -2.7250   -1.9790 C.2     1  UNL1        0.1650
     12  O          8.4660   -3.7950   -0.0570 O.2     1  UNL1       -0.4540
     13  O          8.8280   -4.0480   -2.2070 O.2     1  UNL1       -0.4540
     14  C          9.2900   -4.5190   -0.9590 C.3     1  UNL1        0.4680
@<TRIPOS>BOND
     1     9     7    1
     2     9    11    2
     3     7     6    2
     4    13    11    1
     5    13    14    1
     6    11    10    1
     7    14    12    1
     8     6     5    1
     9     6     8    1
    10    10     8    2
    11    10    12    1
    12     5     1    1
    13     1     2    1
    14     2     4    2
    15     2     3    1
