MODEL 1
REMARK VINA RESULT:      -7.6      0.000      0.000
REMARK SMILES CC(=O)CCc1ccc2c(c1)OCO2
REMARK SMILES IDX 4 1 2 2 1 3 3 4 5 5 6 6 7 7 11 8 8 9 10 10 9 11 12 12 14 13
REMARK SMILES IDX 13 14
REMARK H PARENT
REMARK Flexibility Score: inf
ROOT
ATOM      1  C   UNL     1       5.579   1.917   1.247  1.00  0.00     0.080 C 
ENDROOT
BRANCH   1   2
ATOM      2  C   UNL     1       5.035   0.776   2.006  1.00  0.00     0.130 C 
ATOM      3  C   UNL     1       5.991  -0.387   2.205  1.00  0.00     0.087 C 
ATOM      4  O   UNL     1       3.940   0.663   2.480  1.00  0.00    -0.300 OA
ENDBRANCH   1   2
BRANCH   1   5
ATOM      5  C   UNL     1       5.566   1.785  -0.225  1.00  0.00     0.043 C 
BRANCH   5   6
ATOM      6  C   UNL     1       6.656   1.020  -0.839  1.00  0.00    -0.044 A 
ATOM      7  C   UNL     1       7.994   1.393  -0.703  1.00  0.00     0.008 A 
ATOM      8  C   UNL     1       6.378  -0.121  -1.554  1.00  0.00     0.054 A 
ATOM      9  C   UNL     1       8.964   0.616  -1.281  1.00  0.00     0.051 A 
ATOM     10  C   UNL     1       7.392  -0.899  -2.135  1.00  0.00     0.166 A 
ATOM     11  C   UNL     1       8.712  -0.530  -2.002  1.00  0.00     0.165 A 
ATOM     12  O   UNL     1       7.409  -2.065  -2.890  1.00  0.00    -0.454 OA
ATOM     13  O   UNL     1       9.511  -1.468  -2.670  1.00  0.00    -0.454 OA
ATOM     14  C   UNL     1       8.710  -2.626  -2.784  1.00  0.00     0.468 C 
ENDBRANCH   5   6
ENDBRANCH   1   5
TORSDOF 3
ENDMDL
MODEL 2
REMARK VINA RESULT:      -7.0      1.786      2.245
REMARK SMILES CC(=O)CCc1ccc2c(c1)OCO2
REMARK SMILES IDX 4 1 2 2 1 3 3 4 5 5 6 6 7 7 11 8 8 9 10 10 9 11 12 12 14 13
REMARK SMILES IDX 13 14
REMARK H PARENT
REMARK Flexibility Score: inf
ROOT
ATOM      1  C   UNL     1       5.742   1.363  -0.357  1.00  0.00     0.080 C 
ENDROOT
BRANCH   1   2
ATOM      2  C   UNL     1       5.108   1.385   0.973  1.00  0.00     0.130 C 
ATOM      3  C   UNL     1       5.588   0.317   1.940  1.00  0.00     0.087 C 
ATOM      4  O   UNL     1       4.269   2.140   1.375  1.00  0.00    -0.300 OA
ENDBRANCH   1   2
BRANCH   1   5
ATOM      5  C   UNL     1       7.189   1.061  -0.385  1.00  0.00     0.043 C 
BRANCH   5   6
ATOM      6  C   UNL     1       7.595  -0.227  -0.954  1.00  0.00    -0.044 A 
ATOM      7  C   UNL     1       7.828  -0.396  -2.320  1.00  0.00     0.008 A 
ATOM      8  C   UNL     1       7.786  -1.314  -0.133  1.00  0.00     0.054 A 
ATOM      9  C   UNL     1       8.231  -1.622  -2.781  1.00  0.00     0.051 A 
ATOM     10  C   UNL     1       8.200  -2.558  -0.631  1.00  0.00     0.166 A 
ATOM     11  C   UNL     1       8.429  -2.725  -1.979  1.00  0.00     0.165 A 
ATOM     12  O   UNL     1       8.466  -3.795  -0.057  1.00  0.00    -0.454 OA
ATOM     13  O   UNL     1       8.828  -4.048  -2.207  1.00  0.00    -0.454 OA
ATOM     14  C   UNL     1       9.290  -4.519  -0.959  1.00  0.00     0.468 C 
ENDBRANCH   5   6
ENDBRANCH   1   5
TORSDOF 3
ENDMDL
MODEL 3
REMARK VINA RESULT:      -6.9      1.069      1.151
REMARK SMILES CC(=O)CCc1ccc2c(c1)OCO2
REMARK SMILES IDX 4 1 2 2 1 3 3 4 5 5 6 6 7 7 11 8 8 9 10 10 9 11 12 12 14 13
REMARK SMILES IDX 13 14
REMARK H PARENT
REMARK Flexibility Score: inf
ROOT
ATOM      1  C   UNL     1       6.190   1.223   0.909  1.00  0.00     0.080 C 
ENDROOT
BRANCH   1   2
ATOM      2  C   UNL     1       5.524   0.396   1.931  1.00  0.00     0.130 C 
ATOM      3  C   UNL     1       6.307  -0.821   2.395  1.00  0.00     0.087 C 
ATOM      4  O   UNL     1       4.449   0.570   2.433  1.00  0.00    -0.300 OA
ENDBRANCH   1   2
BRANCH   1   5
ATOM      5  C   UNL     1       5.852   0.918  -0.497  1.00  0.00     0.043 C 
BRANCH   5   6
ATOM      6  C   UNL     1       6.831   0.149  -1.270  1.00  0.00    -0.044 A 
ATOM      7  C   UNL     1       7.782   0.763  -2.087  1.00  0.00     0.008 A 
ATOM      8  C   UNL     1       6.852  -1.224  -1.183  1.00  0.00     0.054 A 
ATOM      9  C   UNL     1       8.686  -0.018  -2.761  1.00  0.00     0.051 A 
ATOM     10  C   UNL     1       7.789  -1.999  -1.884  1.00  0.00     0.166 A 
ATOM     11  C   UNL     1       8.727  -1.393  -2.691  1.00  0.00     0.165 A 
ATOM     12  O   UNL     1       8.041  -3.361  -1.985  1.00  0.00    -0.454 OA
ATOM     13  O   UNL     1       9.532  -2.384  -3.268  1.00  0.00    -0.454 OA
ATOM     14  C   UNL     1       9.377  -3.518  -2.441  1.00  0.00     0.468 C 
ENDBRANCH   5   6
ENDBRANCH   1   5
TORSDOF 3
ENDMDL
MODEL 4
REMARK VINA RESULT:      -6.7      1.093      1.597
REMARK SMILES CC(=O)CCc1ccc2c(c1)OCO2
REMARK SMILES IDX 4 1 2 2 1 3 3 4 5 5 6 6 7 7 11 8 8 9 10 10 9 11 12 12 14 13
REMARK SMILES IDX 13 14
REMARK H PARENT
REMARK Flexibility Score: inf
ROOT
ATOM      1  C   UNL     1       5.335  -0.022   1.989  1.00  0.00     0.080 C 
ENDROOT
BRANCH   1   2
ATOM      2  C   UNL     1       4.388   1.101   1.869  1.00  0.00     0.130 C 
ATOM      3  C   UNL     1       4.733   2.132   0.807  1.00  0.00     0.087 C 
ATOM      4  O   UNL     1       3.390   1.293   2.504  1.00  0.00    -0.300 OA
ENDBRANCH   1   2
BRANCH   1   5
ATOM      5  C   UNL     1       6.760   0.300   1.762  1.00  0.00     0.043 C 
BRANCH   5   6
ATOM      6  C   UNL     1       7.312  -0.000   0.438  1.00  0.00    -0.044 A 
ATOM      7  C   UNL     1       7.870   0.987  -0.377  1.00  0.00     0.008 A 
ATOM      8  C   UNL     1       7.317  -1.294  -0.029  1.00  0.00     0.054 A 
ATOM      9  C   UNL     1       8.393   0.630  -1.592  1.00  0.00     0.051 A 
ATOM     10  C   UNL     1       7.859  -1.631  -1.278  1.00  0.00     0.166 A 
ATOM     11  C   UNL     1       8.410  -0.657  -2.082  1.00  0.00     0.165 A 
ATOM     12  O   UNL     1       7.999  -2.817  -1.989  1.00  0.00    -0.454 OA
ATOM     13  O   UNL     1       8.874  -1.256  -3.261  1.00  0.00    -0.454 OA
ATOM     14  C   UNL     1       9.028  -2.625  -2.948  1.00  0.00     0.468 C 
ENDBRANCH   5   6
ENDBRANCH   1   5
TORSDOF 3
ENDMDL
MODEL 5
REMARK VINA RESULT:      -6.7      1.904      2.389
REMARK SMILES CC(=O)CCc1ccc2c(c1)OCO2
REMARK SMILES IDX 4 1 2 2 1 3 3 4 5 5 6 6 7 7 11 8 8 9 10 10 9 11 12 12 14 13
REMARK SMILES IDX 13 14
REMARK H PARENT
REMARK Flexibility Score: inf
ROOT
ATOM      1  C   UNL     1       5.980   0.375   1.883  1.00  0.00     0.080 C 
ENDROOT
BRANCH   1   2
ATOM      2  C   UNL     1       4.799   1.222   1.638  1.00  0.00     0.130 C 
ATOM      3  C   UNL     1       4.901   2.148   0.438  1.00  0.00     0.087 C 
ATOM      4  O   UNL     1       3.780   1.264   2.267  1.00  0.00    -0.300 OA
ENDBRANCH   1   2
BRANCH   1   5
ATOM      5  C   UNL     1       7.133   0.589   0.984  1.00  0.00     0.043 C 
BRANCH   5   6
ATOM      6  C   UNL     1       7.462  -0.490   0.049  1.00  0.00    -0.044 A 
ATOM      7  C   UNL     1       7.429  -0.312  -1.336  1.00  0.00     0.008 A 
ATOM      8  C   UNL     1       7.847  -1.721   0.526  1.00  0.00     0.054 A 
ATOM      9  C   UNL     1       7.776  -1.357  -2.151  1.00  0.00     0.051 A 
ATOM     10  C   UNL     1       8.198  -2.775  -0.332  1.00  0.00     0.166 A 
ATOM     11  C   UNL     1       8.164  -2.599  -1.698  1.00  0.00     0.165 A 
ATOM     12  O   UNL     1       8.613  -4.087  -0.141  1.00  0.00    -0.454 OA
ATOM     13  O   UNL     1       8.556  -3.793  -2.316  1.00  0.00    -0.454 OA
ATOM     14  C   UNL     1       9.269  -4.508  -1.328  1.00  0.00     0.468 C 
ENDBRANCH   5   6
ENDBRANCH   1   5
TORSDOF 3
ENDMDL
