@<TRIPOS>MOLECULE
/home/cewinharhar/GITHUB/reincatalyze/data/processed/docking_pred/2023-May-31-1727_sub9_nm5_bs15_s42_ex16_mel10_mts10000_k50_ec075_g099_lra3e-4_lrc3e-3/4189dfae64d91db0e72dbf5a0635460cd734823f_ligand_9.pdbqt
 14 15 0 0 0
SMALL
GASTEIGER

@<TRIPOS>ATOM
      1  C          5.3830   -0.0730    1.9110 C.3     1  UNL1        0.0800
      2  C          4.4460    1.0630    1.8470 C.2     1  UNL1        0.1300
      3  C          4.7770    2.1210    0.8090 C.3     1  UNL1        0.0870
      4  O          3.4650    1.2460    2.5110 O.2     1  UNL1       -0.3000
      5  C          6.8070    0.2430    1.6750 C.3     1  UNL1        0.0430
      6  C          7.3580   -0.0910    0.3580 C.2     1  UNL1       -0.0440
      7  C          7.8070    0.8870   -0.5300 C.2     1  UNL1        0.0080
      8  C          7.4730   -1.4070   -0.0260 C.2     1  UNL1        0.0540
      9  C          8.3370    0.5010   -1.7350 C.2     1  UNL1        0.0510
     10  C          8.0190   -1.7740   -1.2650 C.2     1  UNL1        0.1660
     11  C          8.4620   -0.8090   -2.1430 C.2     1  UNL1        0.1650
     12  O          8.2540   -2.9860   -1.9030 O.2     1  UNL1       -0.4540
     13  O          8.9560   -1.4380   -3.2930 O.2     1  UNL1       -0.4540
     14  C          9.2410   -2.7640   -2.8990 C.3     1  UNL1        0.4680
@<TRIPOS>BOND
     1    13    14    1
     2    13    11    1
     3    14    12    1
     4    11     9    2
     5    11    10    1
     6    12    10    1
     7     9     7    1
     8    10     8    2
     9     7     6    2
    10     8     6    1
    11     6     5    1
    12     3     2    1
    13     5     1    1
    14     2     1    1
    15     2     4    2
