@<TRIPOS>MOLECULE
/home/cewinharhar/GITHUB/reincatalyze/data/processed/docking_pred/2023-May-31-1727_sub9_nm5_bs15_s42_ex16_mel10_mts10000_k50_ec075_g099_lra3e-4_lrc3e-3/4189dfae64d91db0e72dbf5a0635460cd734823f_ligand_9.pdbqt
 14 15 0 0 0
SMALL
GASTEIGER

@<TRIPOS>ATOM
      1  C          5.5610    1.8700    1.2140 C.3     1  UNL1        0.0800
      2  C          5.0100    0.7460    1.9920 C.2     1  UNL1        0.1300
      3  C          5.9260   -0.4570    2.1350 C.3     1  UNL1        0.0870
      4  O          3.9360    0.6740    2.5200 O.2     1  UNL1       -0.3000
      5  C          5.5420    1.7160   -0.2560 C.3     1  UNL1        0.0430
      6  C          6.6460    0.9710   -0.8660 C.2     1  UNL1       -0.0440
      7  C          7.9800    1.3470   -0.6990 C.2     1  UNL1        0.0080
      8  C          6.3870   -0.1570   -1.6100 C.2     1  UNL1        0.0540
      9  C          8.9640    0.5870   -1.2770 C.2     1  UNL1        0.0510
     10  C          7.4140   -0.9170   -2.1900 C.2     1  UNL1        0.1660
     11  C          8.7300   -0.5450   -2.0260 C.2     1  UNL1        0.1650
     12  O          7.4510   -2.0670   -2.9690 O.2     1  UNL1       -0.4540
     13  O          9.5450   -1.4640   -2.6990 O.2     1  UNL1       -0.4540
     14  C          8.7520   -2.6240   -2.8520 C.3     1  UNL1        0.4680
@<TRIPOS>BOND
     1    12    14    1
     2    12    10    1
     3    14    13    1
     4    13    11    1
     5    10    11    2
     6    10     8    1
     7    11     9    1
     8     8     6    2
     9     9     7    2
    10     6     7    1
    11     6     5    1
    12     5     1    1
    13     1     2    1
    14     2     3    1
    15     2     4    2
