@<TRIPOS>MOLECULE
/home/cewinharhar/GITHUB/reincatalyze/data/processed/docking_pred/2023-May-31-1727_sub9_nm5_bs15_s42_ex16_mel10_mts10000_k50_ec075_g099_lra3e-4_lrc3e-3/4189dfae64d91db0e72dbf5a0635460cd734823f_ligand_9.pdbqt
 14 15 0 0 0
SMALL
GASTEIGER

@<TRIPOS>ATOM
      1  C          5.7040    1.3000   -0.3300 C.3     1  UNL1        0.0800
      2  C          5.0820    1.3220    1.0060 C.2     1  UNL1        0.1300
      3  C          5.4730    0.1770    1.9250 C.3     1  UNL1        0.0870
      4  O          4.3130    2.1300    1.4460 O.2     1  UNL1       -0.3000
      5  C          7.1520    1.0050   -0.3690 C.3     1  UNL1        0.0430
      6  C          7.5590   -0.2790   -0.9470 C.2     1  UNL1       -0.0440
      7  C          7.7510   -0.4490   -2.3190 C.2     1  UNL1        0.0080
      8  C          7.7920   -1.3590   -0.1290 C.2     1  UNL1        0.0540
      9  C          8.1590   -1.6710   -2.7880 C.2     1  UNL1        0.0510
     10  C          8.2090   -2.5990   -0.6360 C.2     1  UNL1        0.1660
     11  C          8.3980   -2.7680   -1.9900 C.2     1  UNL1        0.1650
     12  O          8.5120   -3.8300   -0.0660 O.2     1  UNL1       -0.4540
     13  O          8.8110   -4.0860   -2.2260 O.2     1  UNL1       -0.4540
     14  C          9.3180   -4.5450   -0.9910 C.3     1  UNL1        0.4680
@<TRIPOS>BOND
     1     9     7    1
     2     9    11    2
     3     7     6    2
     4    13    11    1
     5    13    14    1
     6    11    10    1
     7    14    12    1
     8     6     5    1
     9     6     8    1
    10    10     8    2
    11    10    12    1
    12     5     1    1
    13     1     2    1
    14     2     4    2
    15     2     3    1
