@<TRIPOS>MOLECULE
/home/cewinharhar/GITHUB/reincatalyze/data/processed/docking_pred/2023-May-31-1727_sub9_nm5_bs15_s42_ex16_mel10_mts10000_k50_ec075_g099_lra3e-4_lrc3e-3/4189dfae64d91db0e72dbf5a0635460cd734823f_ligand_9.pdbqt
 14 15 0 0 0
SMALL
GASTEIGER

@<TRIPOS>ATOM
      1  C          6.2340    1.1780    0.9260 C.3     1  UNL1        0.0800
      2  C          5.5510    0.3540    1.9400 C.2     1  UNL1        0.1300
      3  C          6.3190   -0.8690    2.4090 C.3     1  UNL1        0.0870
      4  O          4.4730    0.5360    2.4310 O.2     1  UNL1       -0.3000
      5  C          5.8980    0.8860   -0.4840 C.3     1  UNL1        0.0430
      6  C          6.8750    0.1160   -1.2600 C.2     1  UNL1       -0.0440
      7  C          7.8260    0.7290   -2.0770 C.2     1  UNL1        0.0080
      8  C          6.8930   -1.2570   -1.1750 C.2     1  UNL1        0.0540
      9  C          8.7260   -0.0520   -2.7530 C.2     1  UNL1        0.0510
     10  C          7.8270   -2.0320   -1.8780 C.2     1  UNL1        0.1660
     11  C          8.7650   -1.4270   -2.6860 C.2     1  UNL1        0.1650
     12  O          8.0770   -3.3950   -1.9830 O.2     1  UNL1       -0.4540
     13  O          9.5670   -2.4190   -3.2660 O.2     1  UNL1       -0.4540
     14  C          9.4120   -3.5540   -2.4400 C.3     1  UNL1        0.4680
@<TRIPOS>BOND
     1    13    11    1
     2    13    14    1
     3     9    11    2
     4     9     7    1
     5    11    10    1
     6    14    12    1
     7     7     6    2
     8    12    10    1
     9    10     8    2
    10     6     8    1
    11     6     5    1
    12     5     1    1
    13     1     2    1
    14     2     3    1
    15     2     4    2
