MODEL 1
REMARK VINA RESULT:      -7.6      0.000      0.000
REMARK SMILES CC(=O)CCc1ccc2c(c1)OCO2
REMARK SMILES IDX 4 1 2 2 1 3 3 4 5 5 6 6 7 7 11 8 8 9 10 10 9 11 12 12 14 13
REMARK SMILES IDX 13 14
REMARK H PARENT
REMARK Flexibility Score: inf
ROOT
ATOM      1  C   UNL     1       5.561   1.870   1.214  1.00  0.00     0.080 C 
ENDROOT
BRANCH   1   2
ATOM      2  C   UNL     1       5.010   0.746   1.992  1.00  0.00     0.130 C 
ATOM      3  C   UNL     1       5.926  -0.457   2.135  1.00  0.00     0.087 C 
ATOM      4  O   UNL     1       3.936   0.674   2.520  1.00  0.00    -0.300 OA
ENDBRANCH   1   2
BRANCH   1   5
ATOM      5  C   UNL     1       5.542   1.716  -0.256  1.00  0.00     0.043 C 
BRANCH   5   6
ATOM      6  C   UNL     1       6.646   0.971  -0.866  1.00  0.00    -0.044 A 
ATOM      7  C   UNL     1       7.980   1.347  -0.699  1.00  0.00     0.008 A 
ATOM      8  C   UNL     1       6.387  -0.157  -1.610  1.00  0.00     0.054 A 
ATOM      9  C   UNL     1       8.964   0.587  -1.277  1.00  0.00     0.051 A 
ATOM     10  C   UNL     1       7.414  -0.917  -2.190  1.00  0.00     0.166 A 
ATOM     11  C   UNL     1       8.730  -0.545  -2.026  1.00  0.00     0.165 A 
ATOM     12  O   UNL     1       7.451  -2.067  -2.969  1.00  0.00    -0.454 OA
ATOM     13  O   UNL     1       9.545  -1.464  -2.699  1.00  0.00    -0.454 OA
ATOM     14  C   UNL     1       8.752  -2.624  -2.852  1.00  0.00     0.468 C 
ENDBRANCH   5   6
ENDBRANCH   1   5
TORSDOF 3
ENDMDL
MODEL 2
REMARK VINA RESULT:      -7.1      1.812      2.266
REMARK SMILES CC(=O)CCc1ccc2c(c1)OCO2
REMARK SMILES IDX 4 1 2 2 1 3 3 4 5 5 6 6 7 7 11 8 8 9 10 10 9 11 12 12 14 13
REMARK SMILES IDX 13 14
REMARK H PARENT
REMARK Flexibility Score: inf
ROOT
ATOM      1  C   UNL     1       5.704   1.300  -0.330  1.00  0.00     0.080 C 
ENDROOT
BRANCH   1   2
ATOM      2  C   UNL     1       5.082   1.322   1.006  1.00  0.00     0.130 C 
ATOM      3  C   UNL     1       5.473   0.177   1.925  1.00  0.00     0.087 C 
ATOM      4  O   UNL     1       4.313   2.130   1.446  1.00  0.00    -0.300 OA
ENDBRANCH   1   2
BRANCH   1   5
ATOM      5  C   UNL     1       7.152   1.005  -0.369  1.00  0.00     0.043 C 
BRANCH   5   6
ATOM      6  C   UNL     1       7.559  -0.279  -0.947  1.00  0.00    -0.044 A 
ATOM      7  C   UNL     1       7.751  -0.449  -2.319  1.00  0.00     0.008 A 
ATOM      8  C   UNL     1       7.792  -1.359  -0.129  1.00  0.00     0.054 A 
ATOM      9  C   UNL     1       8.159  -1.671  -2.788  1.00  0.00     0.051 A 
ATOM     10  C   UNL     1       8.209  -2.599  -0.636  1.00  0.00     0.166 A 
ATOM     11  C   UNL     1       8.398  -2.768  -1.990  1.00  0.00     0.165 A 
ATOM     12  O   UNL     1       8.512  -3.830  -0.066  1.00  0.00    -0.454 OA
ATOM     13  O   UNL     1       8.811  -4.086  -2.226  1.00  0.00    -0.454 OA
ATOM     14  C   UNL     1       9.318  -4.545  -0.991  1.00  0.00     0.468 C 
ENDBRANCH   5   6
ENDBRANCH   1   5
TORSDOF 3
ENDMDL
MODEL 3
REMARK VINA RESULT:      -7.0      1.084      1.169
REMARK SMILES CC(=O)CCc1ccc2c(c1)OCO2
REMARK SMILES IDX 4 1 2 2 1 3 3 4 5 5 6 6 7 7 11 8 8 9 10 10 9 11 12 12 14 13
REMARK SMILES IDX 13 14
REMARK H PARENT
REMARK Flexibility Score: inf
ROOT
ATOM      1  C   UNL     1       6.234   1.178   0.926  1.00  0.00     0.080 C 
ENDROOT
BRANCH   1   2
ATOM      2  C   UNL     1       5.551   0.354   1.940  1.00  0.00     0.130 C 
ATOM      3  C   UNL     1       6.319  -0.869   2.409  1.00  0.00     0.087 C 
ATOM      4  O   UNL     1       4.473   0.536   2.431  1.00  0.00    -0.300 OA
ENDBRANCH   1   2
BRANCH   1   5
ATOM      5  C   UNL     1       5.898   0.886  -0.484  1.00  0.00     0.043 C 
BRANCH   5   6
ATOM      6  C   UNL     1       6.875   0.116  -1.260  1.00  0.00    -0.044 A 
ATOM      7  C   UNL     1       7.826   0.729  -2.077  1.00  0.00     0.008 A 
ATOM      8  C   UNL     1       6.893  -1.257  -1.175  1.00  0.00     0.054 A 
ATOM      9  C   UNL     1       8.726  -0.052  -2.753  1.00  0.00     0.051 A 
ATOM     10  C   UNL     1       7.827  -2.032  -1.878  1.00  0.00     0.166 A 
ATOM     11  C   UNL     1       8.765  -1.427  -2.686  1.00  0.00     0.165 A 
ATOM     12  O   UNL     1       8.077  -3.395  -1.983  1.00  0.00    -0.454 OA
ATOM     13  O   UNL     1       9.567  -2.419  -3.266  1.00  0.00    -0.454 OA
ATOM     14  C   UNL     1       9.412  -3.554  -2.440  1.00  0.00     0.468 C 
ENDBRANCH   5   6
ENDBRANCH   1   5
TORSDOF 3
ENDMDL
MODEL 4
REMARK VINA RESULT:      -6.8      1.832      2.359
REMARK SMILES CC(=O)CCc1ccc2c(c1)OCO2
REMARK SMILES IDX 4 1 2 2 1 3 3 4 5 5 6 6 7 7 11 8 8 9 10 10 9 11 12 12 14 13
REMARK SMILES IDX 13 14
REMARK H PARENT
REMARK Flexibility Score: inf
ROOT
ATOM      1  C   UNL     1       6.859   1.030   1.439  1.00  0.00     0.080 C 
ENDROOT
BRANCH   1   2
ATOM      2  C   UNL     1       5.395   1.189   1.490  1.00  0.00     0.130 C 
ATOM      3  C   UNL     1       4.809   2.150   0.469  1.00  0.00     0.087 C 
ATOM      4  O   UNL     1       4.622   0.654   2.233  1.00  0.00    -0.300 OA
ENDBRANCH   1   2
BRANCH   1   5
ATOM      5  C   UNL     1       7.475   1.091   0.097  1.00  0.00     0.043 C 
BRANCH   5   6
ATOM      6  C   UNL     1       7.696  -0.181  -0.598  1.00  0.00    -0.044 A 
ATOM      7  C   UNL     1       7.648  -0.287  -1.989  1.00  0.00     0.008 A 
ATOM      8  C   UNL     1       7.990  -1.316   0.121  1.00  0.00     0.054 A 
ATOM      9  C   UNL     1       7.891  -1.503  -2.573  1.00  0.00     0.051 A 
ATOM     10  C   UNL     1       8.235  -2.548  -0.503  1.00  0.00     0.166 A 
ATOM     11  C   UNL     1       8.187  -2.653  -1.876  1.00  0.00     0.165 A 
ATOM     12  O   UNL     1       8.547  -3.823  -0.047  1.00  0.00    -0.454 OA
ATOM     13  O   UNL     1       8.467  -3.977  -2.236  1.00  0.00    -0.454 OA
ATOM     14  C   UNL     1       9.140  -4.532  -1.125  1.00  0.00     0.468 C 
ENDBRANCH   5   6
ENDBRANCH   1   5
TORSDOF 3
ENDMDL
MODEL 5
REMARK VINA RESULT:      -6.7      1.147      1.636
REMARK SMILES CC(=O)CCc1ccc2c(c1)OCO2
REMARK SMILES IDX 4 1 2 2 1 3 3 4 5 5 6 6 7 7 11 8 8 9 10 10 9 11 12 12 14 13
REMARK SMILES IDX 13 14
REMARK H PARENT
REMARK Flexibility Score: inf
ROOT
ATOM      1  C   UNL     1       5.383  -0.073   1.911  1.00  0.00     0.080 C 
ENDROOT
BRANCH   1   2
ATOM      2  C   UNL     1       4.446   1.063   1.847  1.00  0.00     0.130 C 
ATOM      3  C   UNL     1       4.777   2.121   0.809  1.00  0.00     0.087 C 
ATOM      4  O   UNL     1       3.465   1.246   2.511  1.00  0.00    -0.300 OA
ENDBRANCH   1   2
BRANCH   1   5
ATOM      5  C   UNL     1       6.807   0.243   1.675  1.00  0.00     0.043 C 
BRANCH   5   6
ATOM      6  C   UNL     1       7.358  -0.091   0.358  1.00  0.00    -0.044 A 
ATOM      7  C   UNL     1       7.807   0.887  -0.530  1.00  0.00     0.008 A 
ATOM      8  C   UNL     1       7.473  -1.407  -0.026  1.00  0.00     0.054 A 
ATOM      9  C   UNL     1       8.337   0.501  -1.735  1.00  0.00     0.051 A 
ATOM     10  C   UNL     1       8.019  -1.774  -1.265  1.00  0.00     0.166 A 
ATOM     11  C   UNL     1       8.462  -0.809  -2.143  1.00  0.00     0.165 A 
ATOM     12  O   UNL     1       8.254  -2.986  -1.903  1.00  0.00    -0.454 OA
ATOM     13  O   UNL     1       8.956  -1.438  -3.293  1.00  0.00    -0.454 OA
ATOM     14  C   UNL     1       9.241  -2.764  -2.899  1.00  0.00     0.468 C 
ENDBRANCH   5   6
ENDBRANCH   1   5
TORSDOF 3
ENDMDL
