MODEL 1
REMARK VINA RESULT:      -7.7      0.000      0.000
REMARK SMILES CC(=O)CCc1ccc2c(c1)OCO2
REMARK SMILES IDX 4 1 2 2 1 3 3 4 5 5 6 6 7 7 11 8 8 9 10 10 9 11 12 12 14 13
REMARK SMILES IDX 13 14
REMARK H PARENT
REMARK Flexibility Score: inf
ROOT
ATOM      1  C   UNL     1       5.643   1.910   1.276  1.00  0.00     0.080 C 
ENDROOT
BRANCH   1   2
ATOM      2  C   UNL     1       5.075   0.762   2.005  1.00  0.00     0.130 C 
ATOM      3  C   UNL     1       6.015  -0.417   2.197  1.00  0.00     0.087 C 
ATOM      4  O   UNL     1       3.972   0.652   2.459  1.00  0.00    -0.300 OA
ENDBRANCH   1   2
BRANCH   1   5
ATOM      5  C   UNL     1       5.637   1.812  -0.199  1.00  0.00     0.043 C 
BRANCH   5   6
ATOM      6  C   UNL     1       6.713   1.038  -0.824  1.00  0.00    -0.044 A 
ATOM      7  C   UNL     1       8.056   1.393  -0.696  1.00  0.00     0.008 A 
ATOM      8  C   UNL     1       6.416  -0.096  -1.543  1.00  0.00     0.054 A 
ATOM      9  C   UNL     1       9.013   0.607  -1.285  1.00  0.00     0.051 A 
ATOM     10  C   UNL     1       7.416  -0.883  -2.136  1.00  0.00     0.166 A 
ATOM     11  C   UNL     1       8.742  -0.532  -2.010  1.00  0.00     0.165 A 
ATOM     12  O   UNL     1       7.414  -2.046  -2.897  1.00  0.00    -0.454 OA
ATOM     13  O   UNL     1       9.524  -1.475  -2.689  1.00  0.00    -0.454 OA
ATOM     14  C   UNL     1       8.708  -2.623  -2.804  1.00  0.00     0.468 C 
ENDBRANCH   5   6
ENDBRANCH   1   5
TORSDOF 3
ENDMDL
MODEL 2
REMARK VINA RESULT:      -7.0      1.126      1.235
REMARK SMILES CC(=O)CCc1ccc2c(c1)OCO2
REMARK SMILES IDX 4 1 2 2 1 3 3 4 5 5 6 6 7 7 11 8 8 9 10 10 9 11 12 12 14 13
REMARK SMILES IDX 13 14
REMARK H PARENT
REMARK Flexibility Score: inf
ROOT
ATOM      1  C   UNL     1       6.288   1.178   0.905  1.00  0.00     0.080 C 
ENDROOT
BRANCH   1   2
ATOM      2  C   UNL     1       5.560   0.397   1.922  1.00  0.00     0.130 C 
ATOM      3  C   UNL     1       6.262  -0.861   2.401  1.00  0.00     0.087 C 
ATOM      4  O   UNL     1       4.491   0.638   2.407  1.00  0.00    -0.300 OA
ENDBRANCH   1   2
BRANCH   1   5
ATOM      5  C   UNL     1       5.937   0.902  -0.503  1.00  0.00     0.043 C 
BRANCH   5   6
ATOM      6  C   UNL     1       6.888   0.111  -1.289  1.00  0.00    -0.044 A 
ATOM      7  C   UNL     1       7.773   0.697  -2.195  1.00  0.00     0.008 A 
ATOM      8  C   UNL     1       6.949  -1.253  -1.126  1.00  0.00     0.054 A 
ATOM      9  C   UNL     1       8.655  -0.101  -2.877  1.00  0.00     0.051 A 
ATOM     10  C   UNL     1       7.862  -2.047  -1.837  1.00  0.00     0.166 A 
ATOM     11  C   UNL     1       8.735  -1.468  -2.732  1.00  0.00     0.165 A 
ATOM     12  O   UNL     1       8.143  -3.407  -1.876  1.00  0.00    -0.454 OA
ATOM     13  O   UNL     1       9.530  -2.473  -3.299  1.00  0.00    -0.454 OA
ATOM     14  C   UNL     1       9.453  -3.561  -2.402  1.00  0.00     0.468 C 
ENDBRANCH   5   6
ENDBRANCH   1   5
TORSDOF 3
ENDMDL
MODEL 3
REMARK VINA RESULT:      -7.0      1.765      2.211
REMARK SMILES CC(=O)CCc1ccc2c(c1)OCO2
REMARK SMILES IDX 4 1 2 2 1 3 3 4 5 5 6 6 7 7 11 8 8 9 10 10 9 11 12 12 14 13
REMARK SMILES IDX 13 14
REMARK H PARENT
REMARK Flexibility Score: inf
ROOT
ATOM      1  C   UNL     1       5.846   1.556  -0.391  1.00  0.00     0.080 C 
ENDROOT
BRANCH   1   2
ATOM      2  C   UNL     1       5.215   1.526   0.941  1.00  0.00     0.130 C 
ATOM      3  C   UNL     1       5.860   0.585   1.944  1.00  0.00     0.087 C 
ATOM      4  O   UNL     1       4.264   2.150   1.319  1.00  0.00    -0.300 OA
ENDBRANCH   1   2
BRANCH   1   5
ATOM      5  C   UNL     1       7.281   1.207  -0.440  1.00  0.00     0.043 C 
BRANCH   5   6
ATOM      6  C   UNL     1       7.633  -0.102  -0.995  1.00  0.00    -0.044 A 
ATOM      7  C   UNL     1       7.873  -0.293  -2.357  1.00  0.00     0.008 A 
ATOM      8  C   UNL     1       7.766  -1.190  -0.164  1.00  0.00     0.054 A 
ATOM      9  C   UNL     1       8.225  -1.540  -2.804  1.00  0.00     0.051 A 
ATOM     10  C   UNL     1       8.129  -2.456  -0.648  1.00  0.00     0.166 A 
ATOM     11  C   UNL     1       8.364  -2.644  -1.992  1.00  0.00     0.165 A 
ATOM     12  O   UNL     1       8.332  -3.699  -0.061  1.00  0.00    -0.454 OA
ATOM     13  O   UNL     1       8.705  -3.986  -2.206  1.00  0.00    -0.454 OA
ATOM     14  C   UNL     1       9.132  -4.467  -0.949  1.00  0.00     0.468 C 
ENDBRANCH   5   6
ENDBRANCH   1   5
TORSDOF 3
ENDMDL
MODEL 4
REMARK VINA RESULT:      -6.9      1.168      1.652
REMARK SMILES CC(=O)CCc1ccc2c(c1)OCO2
REMARK SMILES IDX 4 1 2 2 1 3 3 4 5 5 6 6 7 7 11 8 8 9 10 10 9 11 12 12 14 13
REMARK SMILES IDX 13 14
REMARK H PARENT
REMARK Flexibility Score: inf
ROOT
ATOM      1  C   UNL     1       5.381  -0.069   1.953  1.00  0.00     0.080 C 
ENDROOT
BRANCH   1   2
ATOM      2  C   UNL     1       4.436   1.057   1.851  1.00  0.00     0.130 C 
ATOM      3  C   UNL     1       4.771   2.093   0.792  1.00  0.00     0.087 C 
ATOM      4  O   UNL     1       3.446   1.247   2.498  1.00  0.00    -0.300 OA
ENDBRANCH   1   2
BRANCH   1   5
ATOM      5  C   UNL     1       6.802   0.247   1.697  1.00  0.00     0.043 C 
BRANCH   5   6
ATOM      6  C   UNL     1       7.337  -0.094   0.376  1.00  0.00    -0.044 A 
ATOM      7  C   UNL     1       7.754   0.881  -0.532  1.00  0.00     0.008 A 
ATOM      8  C   UNL     1       7.470  -1.412   0.006  1.00  0.00     0.054 A 
ATOM      9  C   UNL     1       8.270   0.490  -1.740  1.00  0.00     0.051 A 
ATOM     10  C   UNL     1       8.002  -1.785  -1.238  1.00  0.00     0.166 A 
ATOM     11  C   UNL     1       8.412  -0.823  -2.134  1.00  0.00     0.165 A 
ATOM     12  O   UNL     1       8.248  -3.000  -1.864  1.00  0.00    -0.454 OA
ATOM     13  O   UNL     1       8.899  -1.457  -3.284  1.00  0.00    -0.454 OA
ATOM     14  C   UNL     1       9.215  -2.773  -2.879  1.00  0.00     0.468 C 
ENDBRANCH   5   6
ENDBRANCH   1   5
TORSDOF 3
ENDMDL
MODEL 5
REMARK VINA RESULT:      -6.8      1.939      2.459
REMARK SMILES CC(=O)CCc1ccc2c(c1)OCO2
REMARK SMILES IDX 4 1 2 2 1 3 3 4 5 5 6 6 7 7 11 8 8 9 10 10 9 11 12 12 14 13
REMARK SMILES IDX 13 14
REMARK H PARENT
REMARK Flexibility Score: inf
ROOT
ATOM      1  C   UNL     1       5.789   0.203   1.934  1.00  0.00     0.080 C 
ENDROOT
BRANCH   1   2
ATOM      2  C   UNL     1       4.733   1.190   1.644  1.00  0.00     0.130 C 
ATOM      3  C   UNL     1       4.998   2.093   0.452  1.00  0.00     0.087 C 
ATOM      4  O   UNL     1       3.704   1.360   2.233  1.00  0.00    -0.300 OA
ENDBRANCH   1   2
BRANCH   1   5
ATOM      5  C   UNL     1       7.067   0.385   1.214  1.00  0.00     0.043 C 
BRANCH   5   6
ATOM      6  C   UNL     1       7.433  -0.637   0.230  1.00  0.00    -0.044 A 
ATOM      7  C   UNL     1       7.402  -0.392  -1.144  1.00  0.00     0.008 A 
ATOM      8  C   UNL     1       7.851  -1.879   0.650  1.00  0.00     0.054 A 
ATOM      9  C   UNL     1       7.785  -1.386  -2.007  1.00  0.00     0.051 A 
ATOM     10  C   UNL     1       8.237  -2.878  -0.256  1.00  0.00     0.166 A 
ATOM     11  C   UNL     1       8.206  -2.637  -1.612  1.00  0.00     0.165 A 
ATOM     12  O   UNL     1       8.690  -4.186  -0.125  1.00  0.00    -0.454 OA
ATOM     13  O   UNL     1       8.636  -3.788  -2.284  1.00  0.00    -0.454 OA
ATOM     14  C   UNL     1       9.364  -4.529  -1.327  1.00  0.00     0.468 C 
ENDBRANCH   5   6
ENDBRANCH   1   5
TORSDOF 3
ENDMDL
