@<TRIPOS>MOLECULE
/home/cewinharhar/GITHUB/reincatalyze/data/processed/docking_pred/2023-May-31-1727_sub9_nm5_bs15_s42_ex16_mel10_mts10000_k50_ec075_g099_lra3e-4_lrc3e-3/42234a6127519c7502e2f6bf4b16ee47cf11c698_ligand_9.pdbqt
 14 15 0 0 0
SMALL
GASTEIGER

@<TRIPOS>ATOM
      1  C          5.6430    1.9100    1.2760 C.3     1  UNL1        0.0800
      2  C          5.0750    0.7620    2.0050 C.2     1  UNL1        0.1300
      3  C          6.0150   -0.4170    2.1970 C.3     1  UNL1        0.0870
      4  O          3.9720    0.6520    2.4590 O.2     1  UNL1       -0.3000
      5  C          5.6370    1.8120   -0.1990 C.3     1  UNL1        0.0430
      6  C          6.7130    1.0380   -0.8240 C.2     1  UNL1       -0.0440
      7  C          8.0560    1.3930   -0.6960 C.2     1  UNL1        0.0080
      8  C          6.4160   -0.0960   -1.5430 C.2     1  UNL1        0.0540
      9  C          9.0130    0.6070   -1.2850 C.2     1  UNL1        0.0510
     10  C          7.4160   -0.8830   -2.1360 C.2     1  UNL1        0.1660
     11  C          8.7420   -0.5320   -2.0100 C.2     1  UNL1        0.1650
     12  O          7.4140   -2.0460   -2.8970 O.2     1  UNL1       -0.4540
     13  O          9.5240   -1.4750   -2.6890 O.2     1  UNL1       -0.4540
     14  C          8.7080   -2.6230   -2.8040 C.3     1  UNL1        0.4680
@<TRIPOS>BOND
     1    12    14    1
     2    12    10    1
     3    14    13    1
     4    13    11    1
     5    10    11    2
     6    10     8    1
     7    11     9    1
     8     8     6    2
     9     9     7    2
    10     6     7    1
    11     6     5    1
    12     5     1    1
    13     1     2    1
    14     2     3    1
    15     2     4    2
