@<TRIPOS>MOLECULE
/home/cewinharhar/GITHUB/reincatalyze/data/processed/docking_pred/2023-May-31-1727_sub9_nm5_bs15_s42_ex16_mel10_mts10000_k50_ec075_g099_lra3e-4_lrc3e-3/42234a6127519c7502e2f6bf4b16ee47cf11c698_ligand_9.pdbqt
 14 15 0 0 0
SMALL
GASTEIGER

@<TRIPOS>ATOM
      1  C          5.8460    1.5560   -0.3910 C.3     1  UNL1        0.0800
      2  C          5.2150    1.5260    0.9410 C.2     1  UNL1        0.1300
      3  C          5.8600    0.5850    1.9440 C.3     1  UNL1        0.0870
      4  O          4.2640    2.1500    1.3190 O.2     1  UNL1       -0.3000
      5  C          7.2810    1.2070   -0.4400 C.3     1  UNL1        0.0430
      6  C          7.6330   -0.1020   -0.9950 C.2     1  UNL1       -0.0440
      7  C          7.8730   -0.2930   -2.3570 C.2     1  UNL1        0.0080
      8  C          7.7660   -1.1900   -0.1640 C.2     1  UNL1        0.0540
      9  C          8.2250   -1.5400   -2.8040 C.2     1  UNL1        0.0510
     10  C          8.1290   -2.4560   -0.6480 C.2     1  UNL1        0.1660
     11  C          8.3640   -2.6440   -1.9920 C.2     1  UNL1        0.1650
     12  O          8.3320   -3.6990   -0.0610 O.2     1  UNL1       -0.4540
     13  O          8.7050   -3.9860   -2.2060 O.2     1  UNL1       -0.4540
     14  C          9.1320   -4.4670   -0.9490 C.3     1  UNL1        0.4680
@<TRIPOS>BOND
     1     9     7    1
     2     9    11    2
     3     7     6    2
     4    13    11    1
     5    13    14    1
     6    11    10    1
     7     6     5    1
     8     6     8    1
     9    14    12    1
    10    10     8    2
    11    10    12    1
    12     5     1    1
    13     1     2    1
    14     2     4    2
    15     2     3    1
