@<TRIPOS>MOLECULE
/home/cewinharhar/GITHUB/reincatalyze/data/processed/docking_pred/2023-May-31-1727_sub9_nm5_bs15_s42_ex16_mel10_mts10000_k50_ec075_g099_lra3e-4_lrc3e-3/4295960a5818388fac6ce93a10a8a6662c8ec52f_ligand_9.pdbqt
 14 15 0 0 0
SMALL
GASTEIGER

@<TRIPOS>ATOM
      1  C          5.8360    0.2280    1.8930 C.3     1  UNL1        0.0800
      2  C          4.7570    1.1970    1.6300 C.2     1  UNL1        0.1300
      3  C          4.9770    2.1040    0.4300 C.3     1  UNL1        0.0870
      4  O          3.7400    1.3510    2.2440 O.2     1  UNL1       -0.3000
      5  C          7.0870    0.4220    1.1310 C.3     1  UNL1        0.0430
      6  C          7.4500   -0.6150    0.1620 C.2     1  UNL1       -0.0440
      7  C          7.4220   -0.3900   -1.2150 C.2     1  UNL1        0.0080
      8  C          7.8620   -1.8530    0.6000 C.2     1  UNL1        0.0540
      9  C          7.8010   -1.3970   -2.0640 C.2     1  UNL1        0.0510
     10  C          8.2450   -2.8670   -0.2910 C.2     1  UNL1        0.1660
     11  C          8.2160   -2.6440   -1.6510 C.2     1  UNL1        0.1650
     12  O          8.6910   -4.1740   -0.1420 O.2     1  UNL1       -0.4540
     13  O          8.6420   -3.8060   -2.3060 O.2     1  UNL1       -0.4540
     14  C          9.3650   -4.5370   -1.3380 C.3     1  UNL1        0.4680
@<TRIPOS>BOND
     1    13    11    1
     2    13    14    1
     3     9    11    2
     4     9     7    1
     5    11    10    1
     6    14    12    1
     7     7     6    2
     8    10    12    1
     9    10     8    2
    10     6     8    1
    11     6     5    1
    12     3     2    1
    13     5     1    1
    14     2     1    1
    15     2     4    2
