MODEL 1
REMARK VINA RESULT:      -7.6      0.000      0.000
REMARK SMILES CC(=O)CCc1ccc2c(c1)OCO2
REMARK SMILES IDX 4 1 2 2 1 3 3 4 5 5 6 6 7 7 11 8 8 9 10 10 9 11 12 12 14 13
REMARK SMILES IDX 13 14
REMARK H PARENT
REMARK Flexibility Score: inf
ROOT
ATOM      1  C   UNL     1       5.586   1.863   1.241  1.00  0.00     0.080 C 
ENDROOT
BRANCH   1   2
ATOM      2  C   UNL     1       5.036   0.732   2.011  1.00  0.00     0.130 C 
ATOM      3  C   UNL     1       5.960  -0.465   2.158  1.00  0.00     0.087 C 
ATOM      4  O   UNL     1       3.958   0.649   2.527  1.00  0.00    -0.300 OA
ENDBRANCH   1   2
BRANCH   1   5
ATOM      5  C   UNL     1       5.565   1.721  -0.230  1.00  0.00     0.043 C 
BRANCH   5   6
ATOM      6  C   UNL     1       6.665   0.976  -0.848  1.00  0.00    -0.044 A 
ATOM      7  C   UNL     1       8.000   1.347  -0.683  1.00  0.00     0.008 A 
ATOM      8  C   UNL     1       6.400  -0.147  -1.597  1.00  0.00     0.054 A 
ATOM      9  C   UNL     1       8.980   0.587  -1.268  1.00  0.00     0.051 A 
ATOM     10  C   UNL     1       7.423  -0.907  -2.184  1.00  0.00     0.166 A 
ATOM     11  C   UNL     1       8.741  -0.540  -2.022  1.00  0.00     0.165 A 
ATOM     12  O   UNL     1       7.454  -2.053  -2.969  1.00  0.00    -0.454 OA
ATOM     13  O   UNL     1       9.551  -1.458  -2.703  1.00  0.00    -0.454 OA
ATOM     14  C   UNL     1       8.754  -2.614  -2.860  1.00  0.00     0.468 C 
ENDBRANCH   5   6
ENDBRANCH   1   5
TORSDOF 3
ENDMDL
MODEL 2
REMARK VINA RESULT:      -7.0      1.811      2.261
REMARK SMILES CC(=O)CCc1ccc2c(c1)OCO2
REMARK SMILES IDX 4 1 2 2 1 3 3 4 5 5 6 6 7 7 11 8 8 9 10 10 9 11 12 12 14 13
REMARK SMILES IDX 13 14
REMARK H PARENT
REMARK Flexibility Score: inf
ROOT
ATOM      1  C   UNL     1       5.724   1.308  -0.338  1.00  0.00     0.080 C 
ENDROOT
BRANCH   1   2
ATOM      2  C   UNL     1       5.130   1.352   1.011  1.00  0.00     0.130 C 
ATOM      3  C   UNL     1       5.573   0.244   1.952  1.00  0.00     0.087 C 
ATOM      4  O   UNL     1       4.350   2.150   1.445  1.00  0.00    -0.300 OA
ENDBRANCH   1   2
BRANCH   1   5
ATOM      5  C   UNL     1       7.174   1.032  -0.403  1.00  0.00     0.043 C 
BRANCH   5   6
ATOM      6  C   UNL     1       7.587  -0.254  -0.972  1.00  0.00    -0.044 A 
ATOM      7  C   UNL     1       7.826  -0.422  -2.337  1.00  0.00     0.008 A 
ATOM      8  C   UNL     1       7.777  -1.341  -0.150  1.00  0.00     0.054 A 
ATOM      9  C   UNL     1       8.236  -1.646  -2.796  1.00  0.00     0.051 A 
ATOM     10  C   UNL     1       8.198  -2.584  -0.648  1.00  0.00     0.166 A 
ATOM     11  C   UNL     1       8.434  -2.749  -1.995  1.00  0.00     0.165 A 
ATOM     12  O   UNL     1       8.466  -3.820  -0.073  1.00  0.00    -0.454 OA
ATOM     13  O   UNL     1       8.839  -4.071  -2.222  1.00  0.00    -0.454 OA
ATOM     14  C   UNL     1       9.296  -4.541  -0.972  1.00  0.00     0.468 C 
ENDBRANCH   5   6
ENDBRANCH   1   5
TORSDOF 3
ENDMDL
MODEL 3
REMARK VINA RESULT:      -7.0      1.010      1.073
REMARK SMILES CC(=O)CCc1ccc2c(c1)OCO2
REMARK SMILES IDX 4 1 2 2 1 3 3 4 5 5 6 6 7 7 11 8 8 9 10 10 9 11 12 12 14 13
REMARK SMILES IDX 13 14
REMARK H PARENT
REMARK Flexibility Score: inf
ROOT
ATOM      1  C   UNL     1       6.194   1.277   0.919  1.00  0.00     0.080 C 
ENDROOT
BRANCH   1   2
ATOM      2  C   UNL     1       5.524   0.443   1.934  1.00  0.00     0.130 C 
ATOM      3  C   UNL     1       6.306  -0.776   2.393  1.00  0.00     0.087 C 
ATOM      4  O   UNL     1       4.448   0.614   2.433  1.00  0.00    -0.300 OA
ENDBRANCH   1   2
BRANCH   1   5
ATOM      5  C   UNL     1       5.879   0.964  -0.491  1.00  0.00     0.043 C 
BRANCH   5   6
ATOM      6  C   UNL     1       6.871   0.192  -1.244  1.00  0.00    -0.044 A 
ATOM      7  C   UNL     1       7.901   0.803  -1.962  1.00  0.00     0.008 A 
ATOM      8  C   UNL     1       6.825  -1.183  -1.236  1.00  0.00     0.054 A 
ATOM      9  C   UNL     1       8.810   0.018  -2.621  1.00  0.00     0.051 A 
ATOM     10  C   UNL     1       7.770  -1.962  -1.919  1.00  0.00     0.166 A 
ATOM     11  C   UNL     1       8.785  -1.359  -2.629  1.00  0.00     0.165 A 
ATOM     12  O   UNL     1       7.967  -3.328  -2.084  1.00  0.00    -0.454 OA
ATOM     13  O   UNL     1       9.581  -2.355  -3.210  1.00  0.00    -0.454 OA
ATOM     14  C   UNL     1       9.321  -3.525  -2.462  1.00  0.00     0.468 C 
ENDBRANCH   5   6
ENDBRANCH   1   5
TORSDOF 3
ENDMDL
MODEL 4
REMARK VINA RESULT:      -6.7      1.093      1.594
REMARK SMILES CC(=O)CCc1ccc2c(c1)OCO2
REMARK SMILES IDX 4 1 2 2 1 3 3 4 5 5 6 6 7 7 11 8 8 9 10 10 9 11 12 12 14 13
REMARK SMILES IDX 13 14
REMARK H PARENT
REMARK Flexibility Score: inf
ROOT
ATOM      1  C   UNL     1       5.351  -0.040   1.998  1.00  0.00     0.080 C 
ENDROOT
BRANCH   1   2
ATOM      2  C   UNL     1       4.405   1.085   1.883  1.00  0.00     0.130 C 
ATOM      3  C   UNL     1       4.748   2.116   0.820  1.00  0.00     0.087 C 
ATOM      4  O   UNL     1       3.410   1.278   2.521  1.00  0.00    -0.300 OA
ENDBRANCH   1   2
BRANCH   1   5
ATOM      5  C   UNL     1       6.776   0.283   1.780  1.00  0.00     0.043 C 
BRANCH   5   6
ATOM      6  C   UNL     1       7.334  -0.008   0.456  1.00  0.00    -0.044 A 
ATOM      7  C   UNL     1       7.917   0.981  -0.339  1.00  0.00     0.008 A 
ATOM      8  C   UNL     1       7.319  -1.294  -0.030  1.00  0.00     0.054 A 
ATOM      9  C   UNL     1       8.443   0.633  -1.556  1.00  0.00     0.051 A 
ATOM     10  C   UNL     1       7.866  -1.623  -1.280  1.00  0.00     0.166 A 
ATOM     11  C   UNL     1       8.440  -0.647  -2.065  1.00  0.00     0.165 A 
ATOM     12  O   UNL     1       7.990  -2.800  -2.007  1.00  0.00    -0.454 OA
ATOM     13  O   UNL     1       8.903  -1.236  -3.249  1.00  0.00    -0.454 OA
ATOM     14  C   UNL     1       9.030  -2.612  -2.956  1.00  0.00     0.468 C 
ENDBRANCH   5   6
ENDBRANCH   1   5
TORSDOF 3
ENDMDL
MODEL 5
REMARK VINA RESULT:      -6.7      1.953      2.451
REMARK SMILES CC(=O)CCc1ccc2c(c1)OCO2
REMARK SMILES IDX 4 1 2 2 1 3 3 4 5 5 6 6 7 7 11 8 8 9 10 10 9 11 12 12 14 13
REMARK SMILES IDX 13 14
REMARK H PARENT
REMARK Flexibility Score: inf
ROOT
ATOM      1  C   UNL     1       5.836   0.228   1.893  1.00  0.00     0.080 C 
ENDROOT
BRANCH   1   2
ATOM      2  C   UNL     1       4.757   1.197   1.630  1.00  0.00     0.130 C 
ATOM      3  C   UNL     1       4.977   2.104   0.430  1.00  0.00     0.087 C 
ATOM      4  O   UNL     1       3.740   1.351   2.244  1.00  0.00    -0.300 OA
ENDBRANCH   1   2
BRANCH   1   5
ATOM      5  C   UNL     1       7.087   0.422   1.131  1.00  0.00     0.043 C 
BRANCH   5   6
ATOM      6  C   UNL     1       7.450  -0.615   0.162  1.00  0.00    -0.044 A 
ATOM      7  C   UNL     1       7.422  -0.390  -1.215  1.00  0.00     0.008 A 
ATOM      8  C   UNL     1       7.862  -1.853   0.600  1.00  0.00     0.054 A 
ATOM      9  C   UNL     1       7.801  -1.397  -2.064  1.00  0.00     0.051 A 
ATOM     10  C   UNL     1       8.245  -2.867  -0.291  1.00  0.00     0.166 A 
ATOM     11  C   UNL     1       8.216  -2.644  -1.651  1.00  0.00     0.165 A 
ATOM     12  O   UNL     1       8.691  -4.174  -0.142  1.00  0.00    -0.454 OA
ATOM     13  O   UNL     1       8.642  -3.806  -2.306  1.00  0.00    -0.454 OA
ATOM     14  C   UNL     1       9.365  -4.537  -1.338  1.00  0.00     0.468 C 
ENDBRANCH   5   6
ENDBRANCH   1   5
TORSDOF 3
ENDMDL
