@<TRIPOS>MOLECULE
/home/cewinharhar/GITHUB/reincatalyze/data/processed/docking_pred/2023-May-31-1727_sub9_nm5_bs15_s42_ex16_mel10_mts10000_k50_ec075_g099_lra3e-4_lrc3e-3/4295960a5818388fac6ce93a10a8a6662c8ec52f_ligand_9.pdbqt
 14 15 0 0 0
SMALL
GASTEIGER

@<TRIPOS>ATOM
      1  C          5.3510   -0.0400    1.9980 C.3     1  UNL1        0.0800
      2  C          4.4050    1.0850    1.8830 C.2     1  UNL1        0.1300
      3  C          4.7480    2.1160    0.8200 C.3     1  UNL1        0.0870
      4  O          3.4100    1.2780    2.5210 O.2     1  UNL1       -0.3000
      5  C          6.7760    0.2830    1.7800 C.3     1  UNL1        0.0430
      6  C          7.3340   -0.0080    0.4560 C.2     1  UNL1       -0.0440
      7  C          7.9170    0.9810   -0.3390 C.2     1  UNL1        0.0080
      8  C          7.3190   -1.2940   -0.0300 C.2     1  UNL1        0.0540
      9  C          8.4430    0.6330   -1.5560 C.2     1  UNL1        0.0510
     10  C          7.8660   -1.6230   -1.2800 C.2     1  UNL1        0.1660
     11  C          8.4400   -0.6470   -2.0650 C.2     1  UNL1        0.1650
     12  O          7.9900   -2.8000   -2.0070 O.2     1  UNL1       -0.4540
     13  O          8.9030   -1.2360   -3.2490 O.2     1  UNL1       -0.4540
     14  C          9.0300   -2.6120   -2.9560 C.3     1  UNL1        0.4680
@<TRIPOS>BOND
     1    13    14    1
     2    13    11    1
     3    14    12    1
     4    11     9    2
     5    11    10    1
     6    12    10    1
     7     9     7    1
     8    10     8    2
     9     7     6    2
    10     8     6    1
    11     6     5    1
    12     3     2    1
    13     5     1    1
    14     2     1    1
    15     2     4    2
