MODEL 1
REMARK VINA RESULT:      -7.6      0.000      0.000
REMARK SMILES CC(=O)CCc1ccc2c(c1)OCO2
REMARK SMILES IDX 4 1 2 2 1 3 3 4 5 5 6 6 7 7 11 8 8 9 10 10 9 11 12 12 14 13
REMARK SMILES IDX 13 14
REMARK H PARENT
REMARK Flexibility Score: inf
ROOT
ATOM      1  C   UNL     1       5.520   1.902   1.212  1.00  0.00     0.080 C 
ENDROOT
BRANCH   1   2
ATOM      2  C   UNL     1       5.023   0.765   2.006  1.00  0.00     0.130 C 
ATOM      3  C   UNL     1       5.994  -0.393   2.165  1.00  0.00     0.087 C 
ATOM      4  O   UNL     1       3.954   0.649   2.536  1.00  0.00    -0.300 OA
ENDBRANCH   1   2
BRANCH   1   5
ATOM      5  C   UNL     1       5.502   1.728  -0.256  1.00  0.00     0.043 C 
BRANCH   5   6
ATOM      6  C   UNL     1       6.617   0.990  -0.857  1.00  0.00    -0.044 A 
ATOM      7  C   UNL     1       7.948   1.362  -0.660  1.00  0.00     0.008 A 
ATOM      8  C   UNL     1       6.371  -0.126  -1.622  1.00  0.00     0.054 A 
ATOM      9  C   UNL     1       8.942   0.610  -1.231  1.00  0.00     0.051 A 
ATOM     10  C   UNL     1       7.408  -0.878  -2.194  1.00  0.00     0.166 A 
ATOM     11  C   UNL     1       8.721  -0.511  -2.001  1.00  0.00     0.165 A 
ATOM     12  O   UNL     1       7.458  -2.017  -2.989  1.00  0.00    -0.454 OA
ATOM     13  O   UNL     1       9.547  -1.421  -2.673  1.00  0.00    -0.454 OA
ATOM     14  C   UNL     1       8.756  -2.577  -2.857  1.00  0.00     0.468 C 
ENDBRANCH   5   6
ENDBRANCH   1   5
TORSDOF 3
ENDMDL
MODEL 2
REMARK VINA RESULT:      -7.0      1.137      1.257
REMARK SMILES CC(=O)CCc1ccc2c(c1)OCO2
REMARK SMILES IDX 4 1 2 2 1 3 3 4 5 5 6 6 7 7 11 8 8 9 10 10 9 11 12 12 14 13
REMARK SMILES IDX 13 14
REMARK H PARENT
REMARK Flexibility Score: inf
ROOT
ATOM      1  C   UNL     1       6.277   1.164   0.907  1.00  0.00     0.080 C 
ENDROOT
BRANCH   1   2
ATOM      2  C   UNL     1       5.561   0.377   1.927  1.00  0.00     0.130 C 
ATOM      3  C   UNL     1       6.293  -0.857   2.428  1.00  0.00     0.087 C 
ATOM      4  O   UNL     1       4.482   0.594   2.401  1.00  0.00    -0.300 OA
ENDBRANCH   1   2
BRANCH   1   5
ATOM      5  C   UNL     1       5.924   0.882  -0.500  1.00  0.00     0.043 C 
BRANCH   5   6
ATOM      6  C   UNL     1       6.880   0.098  -1.286  1.00  0.00    -0.044 A 
ATOM      7  C   UNL     1       7.774   0.692  -2.178  1.00  0.00     0.008 A 
ATOM      8  C   UNL     1       6.936  -1.269  -1.138  1.00  0.00     0.054 A 
ATOM      9  C   UNL     1       8.660  -0.101  -2.861  1.00  0.00     0.051 A 
ATOM     10  C   UNL     1       7.854  -2.056  -1.850  1.00  0.00     0.166 A 
ATOM     11  C   UNL     1       8.736  -1.470  -2.731  1.00  0.00     0.165 A 
ATOM     12  O   UNL     1       8.131  -3.417  -1.902  1.00  0.00    -0.454 OA
ATOM     13  O   UNL     1       9.533  -2.470  -3.303  1.00  0.00    -0.454 OA
ATOM     14  C   UNL     1       9.446  -3.568  -2.418  1.00  0.00     0.468 C 
ENDBRANCH   5   6
ENDBRANCH   1   5
TORSDOF 3
ENDMDL
MODEL 3
REMARK VINA RESULT:      -7.0      1.841      2.325
REMARK SMILES CC(=O)CCc1ccc2c(c1)OCO2
REMARK SMILES IDX 4 1 2 2 1 3 3 4 5 5 6 6 7 7 11 8 8 9 10 10 9 11 12 12 14 13
REMARK SMILES IDX 13 14
REMARK H PARENT
REMARK Flexibility Score: inf
ROOT
ATOM      1  C   UNL     1       5.688   1.326  -0.417  1.00  0.00     0.080 C 
ENDROOT
BRANCH   1   2
ATOM      2  C   UNL     1       5.114   1.427   0.937  1.00  0.00     0.130 C 
ATOM      3  C   UNL     1       5.722   0.496   1.972  1.00  0.00     0.087 C 
ATOM      4  O   UNL     1       4.234   2.150   1.310  1.00  0.00    -0.300 OA
ENDBRANCH   1   2
BRANCH   1   5
ATOM      5  C   UNL     1       7.138   1.050  -0.491  1.00  0.00     0.043 C 
BRANCH   5   6
ATOM      6  C   UNL     1       7.546  -0.256  -1.017  1.00  0.00    -0.044 A 
ATOM      7  C   UNL     1       7.752  -0.477  -2.380  1.00  0.00     0.008 A 
ATOM      8  C   UNL     1       7.768  -1.306  -0.157  1.00  0.00     0.054 A 
ATOM      9  C   UNL     1       8.160  -1.717  -2.799  1.00  0.00     0.051 A 
ATOM     10  C   UNL     1       8.185  -2.565  -0.614  1.00  0.00     0.166 A 
ATOM     11  C   UNL     1       8.388  -2.784  -1.959  1.00  0.00     0.165 A 
ATOM     12  O   UNL     1       8.478  -3.775   0.004  1.00  0.00    -0.454 OA
ATOM     13  O   UNL     1       8.797  -4.111  -2.142  1.00  0.00    -0.454 OA
ATOM     14  C   UNL     1       9.291  -4.526  -0.885  1.00  0.00     0.468 C 
ENDBRANCH   5   6
ENDBRANCH   1   5
TORSDOF 3
ENDMDL
MODEL 4
REMARK VINA RESULT:      -6.8      1.835      2.349
REMARK SMILES CC(=O)CCc1ccc2c(c1)OCO2
REMARK SMILES IDX 4 1 2 2 1 3 3 4 5 5 6 6 7 7 11 8 8 9 10 10 9 11 12 12 14 13
REMARK SMILES IDX 13 14
REMARK H PARENT
REMARK Flexibility Score: inf
ROOT
ATOM      1  C   UNL     1       6.803   1.068   1.407  1.00  0.00     0.080 C 
ENDROOT
BRANCH   1   2
ATOM      2  C   UNL     1       5.338   1.180   1.535  1.00  0.00     0.130 C 
ATOM      3  C   UNL     1       4.674   2.150   0.572  1.00  0.00     0.087 C 
ATOM      4  O   UNL     1       4.621   0.602   2.300  1.00  0.00    -0.300 OA
ENDBRANCH   1   2
BRANCH   1   5
ATOM      5  C   UNL     1       7.343   1.131   0.033  1.00  0.00     0.043 C 
BRANCH   5   6
ATOM      6  C   UNL     1       7.616  -0.143  -0.640  1.00  0.00    -0.044 A 
ATOM      7  C   UNL     1       7.612  -0.266  -2.030  1.00  0.00     0.008 A 
ATOM      8  C   UNL     1       7.915  -1.262   0.102  1.00  0.00     0.054 A 
ATOM      9  C   UNL     1       7.902  -1.482  -2.592  1.00  0.00     0.051 A 
ATOM     10  C   UNL     1       8.210  -2.495  -0.500  1.00  0.00     0.166 A 
ATOM     11  C   UNL     1       8.205  -2.617  -1.872  1.00  0.00     0.165 A 
ATOM     12  O   UNL     1       8.538  -3.757  -0.020  1.00  0.00    -0.454 OA
ATOM     13  O   UNL     1       8.528  -3.938  -2.208  1.00  0.00    -0.454 OA
ATOM     14  C   UNL     1       9.181  -4.463  -1.071  1.00  0.00     0.468 C 
ENDBRANCH   5   6
ENDBRANCH   1   5
TORSDOF 3
ENDMDL
MODEL 5
REMARK VINA RESULT:      -6.7      1.106      1.610
REMARK SMILES CC(=O)CCc1ccc2c(c1)OCO2
REMARK SMILES IDX 4 1 2 2 1 3 3 4 5 5 6 6 7 7 11 8 8 9 10 10 9 11 12 12 14 13
REMARK SMILES IDX 13 14
REMARK H PARENT
REMARK Flexibility Score: inf
ROOT
ATOM      1  C   UNL     1       5.335  -0.022   1.989  1.00  0.00     0.080 C 
ENDROOT
BRANCH   1   2
ATOM      2  C   UNL     1       4.388   1.101   1.869  1.00  0.00     0.130 C 
ATOM      3  C   UNL     1       4.733   2.132   0.807  1.00  0.00     0.087 C 
ATOM      4  O   UNL     1       3.390   1.293   2.504  1.00  0.00    -0.300 OA
ENDBRANCH   1   2
BRANCH   1   5
ATOM      5  C   UNL     1       6.760   0.300   1.762  1.00  0.00     0.043 C 
BRANCH   5   6
ATOM      6  C   UNL     1       7.312  -0.000   0.438  1.00  0.00    -0.044 A 
ATOM      7  C   UNL     1       7.870   0.987  -0.377  1.00  0.00     0.008 A 
ATOM      8  C   UNL     1       7.317  -1.294  -0.029  1.00  0.00     0.054 A 
ATOM      9  C   UNL     1       8.393   0.630  -1.592  1.00  0.00     0.051 A 
ATOM     10  C   UNL     1       7.859  -1.631  -1.278  1.00  0.00     0.166 A 
ATOM     11  C   UNL     1       8.410  -0.657  -2.082  1.00  0.00     0.165 A 
ATOM     12  O   UNL     1       7.999  -2.817  -1.989  1.00  0.00    -0.454 OA
ATOM     13  O   UNL     1       8.874  -1.256  -3.261  1.00  0.00    -0.454 OA
ATOM     14  C   UNL     1       9.028  -2.625  -2.948  1.00  0.00     0.468 C 
ENDBRANCH   5   6
ENDBRANCH   1   5
TORSDOF 3
ENDMDL
