@<TRIPOS>MOLECULE
/home/cewinharhar/GITHUB/reincatalyze/data/processed/docking_pred/2023-May-31-1727_sub9_nm5_bs15_s42_ex16_mel10_mts10000_k50_ec075_g099_lra3e-4_lrc3e-3/437598aa9d4ddbb457dda5082e5f4820e6dbe55d_ligand_9.pdbqt
 14 15 0 0 0
SMALL
GASTEIGER

@<TRIPOS>ATOM
      1  C          5.5200    1.9020    1.2120 C.3     1  UNL1        0.0800
      2  C          5.0230    0.7650    2.0060 C.2     1  UNL1        0.1300
      3  C          5.9940   -0.3930    2.1650 C.3     1  UNL1        0.0870
      4  O          3.9540    0.6490    2.5360 O.2     1  UNL1       -0.3000
      5  C          5.5020    1.7280   -0.2560 C.3     1  UNL1        0.0430
      6  C          6.6170    0.9900   -0.8570 C.2     1  UNL1       -0.0440
      7  C          7.9480    1.3620   -0.6600 C.2     1  UNL1        0.0080
      8  C          6.3710   -0.1260   -1.6220 C.2     1  UNL1        0.0540
      9  C          8.9420    0.6100   -1.2310 C.2     1  UNL1        0.0510
     10  C          7.4080   -0.8780   -2.1940 C.2     1  UNL1        0.1660
     11  C          8.7210   -0.5110   -2.0010 C.2     1  UNL1        0.1650
     12  O          7.4580   -2.0170   -2.9890 O.2     1  UNL1       -0.4540
     13  O          9.5470   -1.4210   -2.6730 O.2     1  UNL1       -0.4540
     14  C          8.7560   -2.5770   -2.8570 C.3     1  UNL1        0.4680
@<TRIPOS>BOND
     1    12    14    1
     2    12    10    1
     3    14    13    1
     4    13    11    1
     5    10    11    2
     6    10     8    1
     7    11     9    1
     8     8     6    2
     9     9     7    2
    10     6     7    1
    11     6     5    1
    12     5     1    1
    13     1     2    1
    14     2     3    1
    15     2     4    2
