@<TRIPOS>MOLECULE
/home/cewinharhar/GITHUB/reincatalyze/data/processed/docking_pred/2023-May-31-1727_sub9_nm5_bs15_s42_ex16_mel10_mts10000_k50_ec075_g099_lra3e-4_lrc3e-3/43f74fb3996e866f8c2ebaeff785616509de483e_ligand_9.pdbqt
 14 15 0 0 0
SMALL
GASTEIGER

@<TRIPOS>ATOM
      1  C          5.6850    1.8120    1.3080 C.3     1  UNL1        0.0800
      2  C          5.0540    0.6840    2.0170 C.2     1  UNL1        0.1300
      3  C          5.9010   -0.5730    2.1220 C.3     1  UNL1        0.0870
      4  O          3.9650    0.6450    2.5140 O.2     1  UNL1       -0.3000
      5  C          5.6760    1.7410   -0.1680 C.3     1  UNL1        0.0430
      6  C          6.7480    0.9750   -0.8090 C.2     1  UNL1       -0.0440
      7  C          8.0930    1.3200   -0.6740 C.2     1  UNL1        0.0080
      8  C          6.4460   -0.1430   -1.5520 C.2     1  UNL1        0.0540
      9  C          9.0460    0.5420   -1.2790 C.2     1  UNL1        0.0510
     10  C          7.4410   -0.9220   -2.1610 C.2     1  UNL1        0.1660
     11  C          8.7690   -0.5800   -2.0280 C.2     1  UNL1        0.1650
     12  O          7.4330   -2.0690   -2.9460 O.2     1  UNL1       -0.4540
     13  O          9.5460   -1.5130   -2.7260 O.2     1  UNL1       -0.4540
     14  C          8.7250   -2.6540   -2.8650 C.3     1  UNL1        0.4680
@<TRIPOS>BOND
     1    12    14    1
     2    12    10    1
     3    14    13    1
     4    13    11    1
     5    10    11    2
     6    10     8    1
     7    11     9    1
     8     8     6    2
     9     9     7    2
    10     6     7    1
    11     6     5    1
    12     5     1    1
    13     1     2    1
    14     2     3    1
    15     2     4    2
