MODEL 1
REMARK VINA RESULT:      -7.6      0.000      0.000
REMARK SMILES CC(=O)CCc1ccc2c(c1)OCO2
REMARK SMILES IDX 4 1 2 2 1 3 3 4 5 5 6 6 7 7 11 8 8 9 10 10 9 11 12 12 14 13
REMARK SMILES IDX 13 14
REMARK H PARENT
REMARK Flexibility Score: inf
ROOT
ATOM      1  C   UNL     1       5.685   1.812   1.308  1.00  0.00     0.080 C 
ENDROOT
BRANCH   1   2
ATOM      2  C   UNL     1       5.054   0.684   2.017  1.00  0.00     0.130 C 
ATOM      3  C   UNL     1       5.901  -0.573   2.122  1.00  0.00     0.087 C 
ATOM      4  O   UNL     1       3.965   0.645   2.514  1.00  0.00    -0.300 OA
ENDBRANCH   1   2
BRANCH   1   5
ATOM      5  C   UNL     1       5.676   1.741  -0.168  1.00  0.00     0.043 C 
BRANCH   5   6
ATOM      6  C   UNL     1       6.748   0.975  -0.809  1.00  0.00    -0.044 A 
ATOM      7  C   UNL     1       8.093   1.320  -0.674  1.00  0.00     0.008 A 
ATOM      8  C   UNL     1       6.446  -0.143  -1.552  1.00  0.00     0.054 A 
ATOM      9  C   UNL     1       9.046   0.542  -1.279  1.00  0.00     0.051 A 
ATOM     10  C   UNL     1       7.441  -0.922  -2.161  1.00  0.00     0.166 A 
ATOM     11  C   UNL     1       8.769  -0.580  -2.028  1.00  0.00     0.165 A 
ATOM     12  O   UNL     1       7.433  -2.069  -2.946  1.00  0.00    -0.454 OA
ATOM     13  O   UNL     1       9.546  -1.513  -2.726  1.00  0.00    -0.454 OA
ATOM     14  C   UNL     1       8.725  -2.654  -2.865  1.00  0.00     0.468 C 
ENDBRANCH   5   6
ENDBRANCH   1   5
TORSDOF 3
ENDMDL
MODEL 2
REMARK VINA RESULT:      -7.0      1.798      2.226
REMARK SMILES CC(=O)CCc1ccc2c(c1)OCO2
REMARK SMILES IDX 4 1 2 2 1 3 3 4 5 5 6 6 7 7 11 8 8 9 10 10 9 11 12 12 14 13
REMARK SMILES IDX 13 14
REMARK H PARENT
REMARK Flexibility Score: inf
ROOT
ATOM      1  C   UNL     1       5.724   1.316  -0.283  1.00  0.00     0.080 C 
ENDROOT
BRANCH   1   2
ATOM      2  C   UNL     1       5.131   1.319   1.067  1.00  0.00     0.130 C 
ATOM      3  C   UNL     1       5.473   0.117   1.930  1.00  0.00     0.087 C 
ATOM      4  O   UNL     1       4.419   2.150   1.555  1.00  0.00    -0.300 OA
ENDBRANCH   1   2
BRANCH   1   5
ATOM      5  C   UNL     1       7.174   1.039  -0.356  1.00  0.00     0.043 C 
BRANCH   5   6
ATOM      6  C   UNL     1       7.582  -0.243  -0.938  1.00  0.00    -0.044 A 
ATOM      7  C   UNL     1       7.770  -0.411  -2.311  1.00  0.00     0.008 A 
ATOM      8  C   UNL     1       7.822  -1.324  -0.122  1.00  0.00     0.054 A 
ATOM      9  C   UNL     1       8.179  -1.630  -2.784  1.00  0.00     0.051 A 
ATOM     10  C   UNL     1       8.242  -2.562  -0.633  1.00  0.00     0.166 A 
ATOM     11  C   UNL     1       8.426  -2.728  -1.988  1.00  0.00     0.165 A 
ATOM     12  O   UNL     1       8.551  -3.793  -0.067  1.00  0.00    -0.454 OA
ATOM     13  O   UNL     1       8.841  -4.044  -2.229  1.00  0.00    -0.454 OA
ATOM     14  C   UNL     1       9.355  -4.504  -0.996  1.00  0.00     0.468 C 
ENDBRANCH   5   6
ENDBRANCH   1   5
TORSDOF 3
ENDMDL
MODEL 3
REMARK VINA RESULT:      -7.0      1.097      1.171
REMARK SMILES CC(=O)CCc1ccc2c(c1)OCO2
REMARK SMILES IDX 4 1 2 2 1 3 3 4 5 5 6 6 7 7 11 8 8 9 10 10 9 11 12 12 14 13
REMARK SMILES IDX 13 14
REMARK H PARENT
REMARK Flexibility Score: inf
ROOT
ATOM      1  C   UNL     1       6.237   1.185   0.900  1.00  0.00     0.080 C 
ENDROOT
BRANCH   1   2
ATOM      2  C   UNL     1       5.559   0.369   1.924  1.00  0.00     0.130 C 
ATOM      3  C   UNL     1       6.333  -0.849   2.401  1.00  0.00     0.087 C 
ATOM      4  O   UNL     1       4.483   0.552   2.417  1.00  0.00    -0.300 OA
ENDBRANCH   1   2
BRANCH   1   5
ATOM      5  C   UNL     1       5.892   0.884  -0.505  1.00  0.00     0.043 C 
BRANCH   5   6
ATOM      6  C   UNL     1       6.865   0.111  -1.283  1.00  0.00    -0.044 A 
ATOM      7  C   UNL     1       7.794   0.720  -2.128  1.00  0.00     0.008 A 
ATOM      8  C   UNL     1       6.901  -1.260  -1.173  1.00  0.00     0.054 A 
ATOM      9  C   UNL     1       8.693  -0.064  -2.805  1.00  0.00     0.051 A 
ATOM     10  C   UNL     1       7.833  -2.037  -1.877  1.00  0.00     0.166 A 
ATOM     11  C   UNL     1       8.749  -1.437  -2.712  1.00  0.00     0.165 A 
ATOM     12  O   UNL     1       8.097  -3.399  -1.960  1.00  0.00    -0.454 OA
ATOM     13  O   UNL     1       9.553  -2.429  -3.287  1.00  0.00    -0.454 OA
ATOM     14  C   UNL     1       9.426  -3.551  -2.438  1.00  0.00     0.468 C 
ENDBRANCH   5   6
ENDBRANCH   1   5
TORSDOF 3
ENDMDL
MODEL 4
REMARK VINA RESULT:      -6.7      1.810      2.311
REMARK SMILES CC(=O)CCc1ccc2c(c1)OCO2
REMARK SMILES IDX 4 1 2 2 1 3 3 4 5 5 6 6 7 7 11 8 8 9 10 10 9 11 12 12 14 13
REMARK SMILES IDX 13 14
REMARK H PARENT
REMARK Flexibility Score: inf
ROOT
ATOM      1  C   UNL     1       6.991   1.212   1.255  1.00  0.00     0.080 C 
ENDROOT
BRANCH   1   2
ATOM      2  C   UNL     1       5.525   1.293   1.390  1.00  0.00     0.130 C 
ATOM      3  C   UNL     1       4.823   2.150   0.350  1.00  0.00     0.087 C 
ATOM      4  O   UNL     1       4.832   0.768   2.214  1.00  0.00    -0.300 OA
ENDBRANCH   1   2
BRANCH   1   5
ATOM      5  C   UNL     1       7.520   1.223  -0.125  1.00  0.00     0.043 C 
BRANCH   5   6
ATOM      6  C   UNL     1       7.788  -0.075  -0.750  1.00  0.00    -0.044 A 
ATOM      7  C   UNL     1       7.948  -0.218  -2.130  1.00  0.00     0.008 A 
ATOM      8  C   UNL     1       7.920  -1.201   0.029  1.00  0.00     0.054 A 
ATOM      9  C   UNL     1       8.225  -1.458  -2.644  1.00  0.00     0.051 A 
ATOM     10  C   UNL     1       8.204  -2.458  -0.524  1.00  0.00     0.166 A 
ATOM     11  C   UNL     1       8.360  -2.599  -1.885  1.00  0.00     0.165 A 
ATOM     12  O   UNL     1       8.387  -3.732   0.001  1.00  0.00    -0.454 OA
ATOM     13  O   UNL     1       8.634  -3.943  -2.170  1.00  0.00    -0.454 OA
ATOM     14  C   UNL     1       9.106  -4.493  -0.957  1.00  0.00     0.468 C 
ENDBRANCH   5   6
ENDBRANCH   1   5
TORSDOF 3
ENDMDL
MODEL 5
REMARK VINA RESULT:      -6.7      1.107      1.582
REMARK SMILES CC(=O)CCc1ccc2c(c1)OCO2
REMARK SMILES IDX 4 1 2 2 1 3 3 4 5 5 6 6 7 7 11 8 8 9 10 10 9 11 12 12 14 13
REMARK SMILES IDX 13 14
REMARK H PARENT
REMARK Flexibility Score: inf
ROOT
ATOM      1  C   UNL     1       5.335  -0.022   1.989  1.00  0.00     0.080 C 
ENDROOT
BRANCH   1   2
ATOM      2  C   UNL     1       4.388   1.101   1.869  1.00  0.00     0.130 C 
ATOM      3  C   UNL     1       4.733   2.132   0.807  1.00  0.00     0.087 C 
ATOM      4  O   UNL     1       3.390   1.293   2.504  1.00  0.00    -0.300 OA
ENDBRANCH   1   2
BRANCH   1   5
ATOM      5  C   UNL     1       6.760   0.300   1.762  1.00  0.00     0.043 C 
BRANCH   5   6
ATOM      6  C   UNL     1       7.312  -0.000   0.438  1.00  0.00    -0.044 A 
ATOM      7  C   UNL     1       7.870   0.987  -0.377  1.00  0.00     0.008 A 
ATOM      8  C   UNL     1       7.317  -1.294  -0.029  1.00  0.00     0.054 A 
ATOM      9  C   UNL     1       8.393   0.630  -1.592  1.00  0.00     0.051 A 
ATOM     10  C   UNL     1       7.859  -1.631  -1.278  1.00  0.00     0.166 A 
ATOM     11  C   UNL     1       8.410  -0.657  -2.082  1.00  0.00     0.165 A 
ATOM     12  O   UNL     1       7.999  -2.817  -1.989  1.00  0.00    -0.454 OA
ATOM     13  O   UNL     1       8.874  -1.256  -3.261  1.00  0.00    -0.454 OA
ATOM     14  C   UNL     1       9.028  -2.625  -2.948  1.00  0.00     0.468 C 
ENDBRANCH   5   6
ENDBRANCH   1   5
TORSDOF 3
ENDMDL
