@<TRIPOS>MOLECULE
/home/cewinharhar/GITHUB/reincatalyze/data/processed/docking_pred/2023-May-31-1727_sub9_nm5_bs15_s42_ex16_mel10_mts10000_k50_ec075_g099_lra3e-4_lrc3e-3/43f74fb3996e866f8c2ebaeff785616509de483e_ligand_9.pdbqt
 14 15 0 0 0
SMALL
GASTEIGER

@<TRIPOS>ATOM
      1  C          6.9910    1.2120    1.2550 C.3     1  UNL1        0.0800
      2  C          5.5250    1.2930    1.3900 C.2     1  UNL1        0.1300
      3  C          4.8230    2.1500    0.3500 C.3     1  UNL1        0.0870
      4  O          4.8320    0.7680    2.2140 O.2     1  UNL1       -0.3000
      5  C          7.5200    1.2230   -0.1250 C.3     1  UNL1        0.0430
      6  C          7.7880   -0.0750   -0.7500 C.2     1  UNL1       -0.0440
      7  C          7.9480   -0.2180   -2.1300 C.2     1  UNL1        0.0080
      8  C          7.9200   -1.2010    0.0290 C.2     1  UNL1        0.0540
      9  C          8.2250   -1.4580   -2.6440 C.2     1  UNL1        0.0510
     10  C          8.2040   -2.4580   -0.5240 C.2     1  UNL1        0.1660
     11  C          8.3600   -2.5990   -1.8850 C.2     1  UNL1        0.1650
     12  O          8.3870   -3.7320    0.0010 O.2     1  UNL1       -0.4540
     13  O          8.6340   -3.9430   -2.1700 O.2     1  UNL1       -0.4540
     14  C          9.1060   -4.4930   -0.9570 C.3     1  UNL1        0.4680
@<TRIPOS>BOND
     1     9     7    1
     2     9    11    2
     3    13    11    1
     4    13    14    1
     5     7     6    2
     6    11    10    1
     7    14    12    1
     8     6     5    1
     9     6     8    1
    10    10    12    1
    11    10     8    2
    12     5     1    1
    13     3     2    1
    14     1     2    1
    15     2     4    2
