MODEL 1
REMARK VINA RESULT:      -7.5      0.000      0.000
REMARK SMILES CC(=O)CCc1ccc2c(c1)OCO2
REMARK SMILES IDX 4 1 2 2 1 3 3 4 5 5 6 6 7 7 11 8 8 9 10 10 9 11 12 12 14 13
REMARK SMILES IDX 13 14
REMARK H PARENT
REMARK Flexibility Score: inf
ROOT
ATOM      1  C   UNL     1       5.844   1.763   1.320  1.00  0.00     0.080 C 
ENDROOT
BRANCH   1   2
ATOM      2  C   UNL     1       5.232   0.633   2.042  1.00  0.00     0.130 C 
ATOM      3  C   UNL     1       6.128  -0.578   2.234  1.00  0.00     0.087 C 
ATOM      4  O   UNL     1       4.123   0.561   2.490  1.00  0.00    -0.300 OA
ENDBRANCH   1   2
BRANCH   1   5
ATOM      5  C   UNL     1       5.798   1.693  -0.156  1.00  0.00     0.043 C 
BRANCH   5   6
ATOM      6  C   UNL     1       6.843   0.910  -0.822  1.00  0.00    -0.044 A 
ATOM      7  C   UNL     1       8.190   1.270  -0.770  1.00  0.00     0.008 A 
ATOM      8  C   UNL     1       6.513  -0.238  -1.505  1.00  0.00     0.054 A 
ATOM      9  C   UNL     1       9.117   0.476  -1.394  1.00  0.00     0.051 A 
ATOM     10  C   UNL     1       7.482  -1.033  -2.135  1.00  0.00     0.166 A 
ATOM     11  C   UNL     1       8.812  -0.677  -2.084  1.00  0.00     0.165 A 
ATOM     12  O   UNL     1       7.444  -2.209  -2.874  1.00  0.00    -0.454 OA
ATOM     13  O   UNL     1       9.561  -1.631  -2.785  1.00  0.00    -0.454 OA
ATOM     14  C   UNL     1       8.743  -2.781  -2.837  1.00  0.00     0.468 C 
ENDBRANCH   5   6
ENDBRANCH   1   5
TORSDOF 3
ENDMDL
MODEL 2
REMARK VINA RESULT:      -7.0      1.718      2.145
REMARK SMILES CC(=O)CCc1ccc2c(c1)OCO2
REMARK SMILES IDX 4 1 2 2 1 3 3 4 5 5 6 6 7 7 11 8 8 9 10 10 9 11 12 12 14 13
REMARK SMILES IDX 13 14
REMARK H PARENT
REMARK Flexibility Score: inf
ROOT
ATOM      1  C   UNL     1       5.660   1.375  -0.305  1.00  0.00     0.080 C 
ENDROOT
BRANCH   1   2
ATOM      2  C   UNL     1       5.094   1.364   1.057  1.00  0.00     0.130 C 
ATOM      3  C   UNL     1       5.545   0.212   1.939  1.00  0.00     0.087 C 
ATOM      4  O   UNL     1       4.331   2.149   1.542  1.00  0.00    -0.300 OA
ENDBRANCH   1   2
BRANCH   1   5
ATOM      5  C   UNL     1       7.107   1.096  -0.411  1.00  0.00     0.043 C 
BRANCH   5   6
ATOM      6  C   UNL     1       7.500  -0.201  -0.970  1.00  0.00    -0.044 A 
ATOM      7  C   UNL     1       7.671  -0.399  -2.341  1.00  0.00     0.008 A 
ATOM      8  C   UNL     1       7.742  -1.266  -0.134  1.00  0.00     0.054 A 
ATOM      9  C   UNL     1       8.066  -1.632  -2.792  1.00  0.00     0.051 A 
ATOM     10  C   UNL     1       8.147  -2.518  -0.623  1.00  0.00     0.166 A 
ATOM     11  C   UNL     1       8.314  -2.714  -1.976  1.00  0.00     0.165 A 
ATOM     12  O   UNL     1       8.454  -3.738  -0.033  1.00  0.00    -0.454 OA
ATOM     13  O   UNL     1       8.718  -4.037  -2.192  1.00  0.00    -0.454 OA
ATOM     14  C   UNL     1       9.243  -4.475  -0.956  1.00  0.00     0.468 C 
ENDBRANCH   5   6
ENDBRANCH   1   5
TORSDOF 3
ENDMDL
MODEL 3
REMARK VINA RESULT:      -6.9      1.022      1.062
REMARK SMILES CC(=O)CCc1ccc2c(c1)OCO2
REMARK SMILES IDX 4 1 2 2 1 3 3 4 5 5 6 6 7 7 11 8 8 9 10 10 9 11 12 12 14 13
REMARK SMILES IDX 13 14
REMARK H PARENT
REMARK Flexibility Score: inf
ROOT
ATOM      1  C   UNL     1       6.237   1.185   0.900  1.00  0.00     0.080 C 
ENDROOT
BRANCH   1   2
ATOM      2  C   UNL     1       5.559   0.369   1.924  1.00  0.00     0.130 C 
ATOM      3  C   UNL     1       6.333  -0.849   2.401  1.00  0.00     0.087 C 
ATOM      4  O   UNL     1       4.483   0.552   2.417  1.00  0.00    -0.300 OA
ENDBRANCH   1   2
BRANCH   1   5
ATOM      5  C   UNL     1       5.892   0.884  -0.505  1.00  0.00     0.043 C 
BRANCH   5   6
ATOM      6  C   UNL     1       6.865   0.111  -1.283  1.00  0.00    -0.044 A 
ATOM      7  C   UNL     1       7.794   0.720  -2.128  1.00  0.00     0.008 A 
ATOM      8  C   UNL     1       6.901  -1.260  -1.173  1.00  0.00     0.054 A 
ATOM      9  C   UNL     1       8.693  -0.064  -2.805  1.00  0.00     0.051 A 
ATOM     10  C   UNL     1       7.833  -2.037  -1.877  1.00  0.00     0.166 A 
ATOM     11  C   UNL     1       8.749  -1.437  -2.712  1.00  0.00     0.165 A 
ATOM     12  O   UNL     1       8.097  -3.399  -1.960  1.00  0.00    -0.454 OA
ATOM     13  O   UNL     1       9.553  -2.429  -3.287  1.00  0.00    -0.454 OA
ATOM     14  C   UNL     1       9.426  -3.551  -2.438  1.00  0.00     0.468 C 
ENDBRANCH   5   6
ENDBRANCH   1   5
TORSDOF 3
ENDMDL
MODEL 4
REMARK VINA RESULT:      -6.8      1.739      2.262
REMARK SMILES CC(=O)CCc1ccc2c(c1)OCO2
REMARK SMILES IDX 4 1 2 2 1 3 3 4 5 5 6 6 7 7 11 8 8 9 10 10 9 11 12 12 14 13
REMARK SMILES IDX 13 14
REMARK H PARENT
REMARK Flexibility Score: inf
ROOT
ATOM      1  C   UNL     1       6.864   1.129   1.300  1.00  0.00     0.080 C 
ENDROOT
BRANCH   1   2
ATOM      2  C   UNL     1       5.399   1.247   1.419  1.00  0.00     0.130 C 
ATOM      3  C   UNL     1       4.734   2.149   0.394  1.00  0.00     0.087 C 
ATOM      4  O   UNL     1       4.682   0.720   2.222  1.00  0.00    -0.300 OA
ENDBRANCH   1   2
BRANCH   1   5
ATOM      5  C   UNL     1       7.409   1.151  -0.074  1.00  0.00     0.043 C 
BRANCH   5   6
ATOM      6  C   UNL     1       7.662  -0.141  -0.716  1.00  0.00    -0.044 A 
ATOM      7  C   UNL     1       7.676  -0.293  -2.104  1.00  0.00     0.008 A 
ATOM      8  C   UNL     1       7.924  -1.252   0.052  1.00  0.00     0.054 A 
ATOM      9  C   UNL     1       7.947  -1.526  -2.637  1.00  0.00     0.051 A 
ATOM     10  C   UNL     1       8.199  -2.503  -0.521  1.00  0.00     0.166 A 
ATOM     11  C   UNL     1       8.212  -2.653  -1.890  1.00  0.00     0.165 A 
ATOM     12  O   UNL     1       8.491  -3.762  -0.011  1.00  0.00    -0.454 OA
ATOM     13  O   UNL     1       8.510  -3.987  -2.195  1.00  0.00    -0.454 OA
ATOM     14  C   UNL     1       9.133  -4.504  -1.037  1.00  0.00     0.468 C 
ENDBRANCH   5   6
ENDBRANCH   1   5
TORSDOF 3
ENDMDL
MODEL 5
REMARK VINA RESULT:      -6.7      1.155      1.622
REMARK SMILES CC(=O)CCc1ccc2c(c1)OCO2
REMARK SMILES IDX 4 1 2 2 1 3 3 4 5 5 6 6 7 7 11 8 8 9 10 10 9 11 12 12 14 13
REMARK SMILES IDX 13 14
REMARK H PARENT
REMARK Flexibility Score: inf
ROOT
ATOM      1  C   UNL     1       5.358  -0.066   1.956  1.00  0.00     0.080 C 
ENDROOT
BRANCH   1   2
ATOM      2  C   UNL     1       4.415   1.063   1.864  1.00  0.00     0.130 C 
ATOM      3  C   UNL     1       4.744   2.099   0.803  1.00  0.00     0.087 C 
ATOM      4  O   UNL     1       3.432   1.256   2.522  1.00  0.00    -0.300 OA
ENDBRANCH   1   2
BRANCH   1   5
ATOM      5  C   UNL     1       6.780   0.250   1.706  1.00  0.00     0.043 C 
BRANCH   5   6
ATOM      6  C   UNL     1       7.316  -0.074   0.381  1.00  0.00    -0.044 A 
ATOM      7  C   UNL     1       7.723   0.912  -0.519  1.00  0.00     0.008 A 
ATOM      8  C   UNL     1       7.459  -1.388  -0.001  1.00  0.00     0.054 A 
ATOM      9  C   UNL     1       8.240   0.536  -1.731  1.00  0.00     0.051 A 
ATOM     10  C   UNL     1       7.992  -1.745  -1.249  1.00  0.00     0.166 A 
ATOM     11  C   UNL     1       8.392  -0.772  -2.137  1.00  0.00     0.165 A 
ATOM     12  O   UNL     1       8.247  -2.953  -1.887  1.00  0.00    -0.454 OA
ATOM     13  O   UNL     1       8.882  -1.392  -3.294  1.00  0.00    -0.454 OA
ATOM     14  C   UNL     1       9.210  -2.708  -2.901  1.00  0.00     0.468 C 
ENDBRANCH   5   6
ENDBRANCH   1   5
TORSDOF 3
ENDMDL
