@<TRIPOS>MOLECULE
/home/cewinharhar/GITHUB/reincatalyze/data/processed/docking_pred/2023-May-31-1727_sub9_nm5_bs15_s42_ex16_mel10_mts10000_k50_ec075_g099_lra3e-4_lrc3e-3/440c71a9d87327452c2c76e2e73f057a38f6e63a_ligand_9.pdbqt
 14 15 0 0 0
SMALL
GASTEIGER

@<TRIPOS>ATOM
      1  C          5.6600    1.3750   -0.3050 C.3     1  UNL1        0.0800
      2  C          5.0940    1.3640    1.0570 C.2     1  UNL1        0.1300
      3  C          5.5450    0.2120    1.9390 C.3     1  UNL1        0.0870
      4  O          4.3310    2.1490    1.5420 O.2     1  UNL1       -0.3000
      5  C          7.1070    1.0960   -0.4110 C.3     1  UNL1        0.0430
      6  C          7.5000   -0.2010   -0.9700 C.2     1  UNL1       -0.0440
      7  C          7.6710   -0.3990   -2.3410 C.2     1  UNL1        0.0080
      8  C          7.7420   -1.2660   -0.1340 C.2     1  UNL1        0.0540
      9  C          8.0660   -1.6320   -2.7920 C.2     1  UNL1        0.0510
     10  C          8.1470   -2.5180   -0.6230 C.2     1  UNL1        0.1660
     11  C          8.3140   -2.7140   -1.9760 C.2     1  UNL1        0.1650
     12  O          8.4540   -3.7380   -0.0330 O.2     1  UNL1       -0.4540
     13  O          8.7180   -4.0370   -2.1920 O.2     1  UNL1       -0.4540
     14  C          9.2430   -4.4750   -0.9560 C.3     1  UNL1        0.4680
@<TRIPOS>BOND
     1     9     7    1
     2     9    11    2
     3     7     6    2
     4    13    11    1
     5    13    14    1
     6    11    10    1
     7     6     5    1
     8     6     8    1
     9    14    12    1
    10    10     8    2
    11    10    12    1
    12     5     1    1
    13     1     2    1
    14     2     4    2
    15     2     3    1
