@<TRIPOS>MOLECULE
/home/cewinharhar/GITHUB/reincatalyze/data/processed/docking_pred/2023-May-31-1727_sub9_nm5_bs15_s42_ex16_mel10_mts10000_k50_ec075_g099_lra3e-4_lrc3e-3/440c71a9d87327452c2c76e2e73f057a38f6e63a_ligand_9.pdbqt
 14 15 0 0 0
SMALL
GASTEIGER

@<TRIPOS>ATOM
      1  C          5.3580   -0.0660    1.9560 C.3     1  UNL1        0.0800
      2  C          4.4150    1.0630    1.8640 C.2     1  UNL1        0.1300
      3  C          4.7440    2.0990    0.8030 C.3     1  UNL1        0.0870
      4  O          3.4320    1.2560    2.5220 O.2     1  UNL1       -0.3000
      5  C          6.7800    0.2500    1.7060 C.3     1  UNL1        0.0430
      6  C          7.3160   -0.0740    0.3810 C.2     1  UNL1       -0.0440
      7  C          7.7230    0.9120   -0.5190 C.2     1  UNL1        0.0080
      8  C          7.4590   -1.3880   -0.0010 C.2     1  UNL1        0.0540
      9  C          8.2400    0.5360   -1.7310 C.2     1  UNL1        0.0510
     10  C          7.9920   -1.7450   -1.2490 C.2     1  UNL1        0.1660
     11  C          8.3920   -0.7720   -2.1370 C.2     1  UNL1        0.1650
     12  O          8.2470   -2.9530   -1.8870 O.2     1  UNL1       -0.4540
     13  O          8.8820   -1.3920   -3.2940 O.2     1  UNL1       -0.4540
     14  C          9.2100   -2.7080   -2.9010 C.3     1  UNL1        0.4680
@<TRIPOS>BOND
     1    13    14    1
     2    13    11    1
     3    14    12    1
     4    11     9    2
     5    11    10    1
     6    12    10    1
     7     9     7    1
     8    10     8    2
     9     7     6    2
    10     8     6    1
    11     6     5    1
    12     3     2    1
    13     5     1    1
    14     2     1    1
    15     2     4    2
