@<TRIPOS>MOLECULE
/home/cewinharhar/GITHUB/reincatalyze/data/processed/docking_pred/2023-May-31-1727_sub9_nm5_bs15_s42_ex16_mel10_mts10000_k50_ec075_g099_lra3e-4_lrc3e-3/440c71a9d87327452c2c76e2e73f057a38f6e63a_ligand_9.pdbqt
 14 15 0 0 0
SMALL
GASTEIGER

@<TRIPOS>ATOM
      1  C          6.8640    1.1290    1.3000 C.3     1  UNL1        0.0800
      2  C          5.3990    1.2470    1.4190 C.2     1  UNL1        0.1300
      3  C          4.7340    2.1490    0.3940 C.3     1  UNL1        0.0870
      4  O          4.6820    0.7200    2.2220 O.2     1  UNL1       -0.3000
      5  C          7.4090    1.1510   -0.0740 C.3     1  UNL1        0.0430
      6  C          7.6620   -0.1410   -0.7160 C.2     1  UNL1       -0.0440
      7  C          7.6760   -0.2930   -2.1040 C.2     1  UNL1        0.0080
      8  C          7.9240   -1.2520    0.0520 C.2     1  UNL1        0.0540
      9  C          7.9470   -1.5260   -2.6370 C.2     1  UNL1        0.0510
     10  C          8.1990   -2.5030   -0.5210 C.2     1  UNL1        0.1660
     11  C          8.2120   -2.6530   -1.8900 C.2     1  UNL1        0.1650
     12  O          8.4910   -3.7620   -0.0110 O.2     1  UNL1       -0.4540
     13  O          8.5100   -3.9870   -2.1950 O.2     1  UNL1       -0.4540
     14  C          9.1330   -4.5040   -1.0370 C.3     1  UNL1        0.4680
@<TRIPOS>BOND
     1     9     7    1
     2     9    11    2
     3    13    11    1
     4    13    14    1
     5     7     6    2
     6    11    10    1
     7    14    12    1
     8     6     5    1
     9     6     8    1
    10    10    12    1
    11    10     8    2
    12     5     1    1
    13     3     2    1
    14     1     2    1
    15     2     4    2
