@<TRIPOS>MOLECULE
/home/cewinharhar/GITHUB/reincatalyze/data/processed/docking_pred/2023-May-31-1727_sub9_nm5_bs15_s42_ex16_mel10_mts10000_k50_ec075_g099_lra3e-4_lrc3e-3/440c71a9d87327452c2c76e2e73f057a38f6e63a_ligand_9.pdbqt
 14 15 0 0 0
SMALL
GASTEIGER

@<TRIPOS>ATOM
      1  C          5.8440    1.7630    1.3200 C.3     1  UNL1        0.0800
      2  C          5.2320    0.6330    2.0420 C.2     1  UNL1        0.1300
      3  C          6.1280   -0.5780    2.2340 C.3     1  UNL1        0.0870
      4  O          4.1230    0.5610    2.4900 O.2     1  UNL1       -0.3000
      5  C          5.7980    1.6930   -0.1560 C.3     1  UNL1        0.0430
      6  C          6.8430    0.9100   -0.8220 C.2     1  UNL1       -0.0440
      7  C          8.1900    1.2700   -0.7700 C.2     1  UNL1        0.0080
      8  C          6.5130   -0.2380   -1.5050 C.2     1  UNL1        0.0540
      9  C          9.1170    0.4760   -1.3940 C.2     1  UNL1        0.0510
     10  C          7.4820   -1.0330   -2.1350 C.2     1  UNL1        0.1660
     11  C          8.8120   -0.6770   -2.0840 C.2     1  UNL1        0.1650
     12  O          7.4440   -2.2090   -2.8740 O.2     1  UNL1       -0.4540
     13  O          9.5610   -1.6310   -2.7850 O.2     1  UNL1       -0.4540
     14  C          8.7430   -2.7810   -2.8370 C.3     1  UNL1        0.4680
@<TRIPOS>BOND
     1    12    14    1
     2    12    10    1
     3    14    13    1
     4    13    11    1
     5    10    11    2
     6    10     8    1
     7    11     9    1
     8     8     6    2
     9     9     7    2
    10     6     7    1
    11     6     5    1
    12     5     1    1
    13     1     2    1
    14     2     3    1
    15     2     4    2
