@<TRIPOS>MOLECULE
/home/cewinharhar/GITHUB/reincatalyze/data/processed/docking_pred/2023-May-31-1727_sub9_nm5_bs15_s42_ex16_mel10_mts10000_k50_ec075_g099_lra3e-4_lrc3e-3/44bf36be1ccee3462d679cf400989bbed31f99fd_ligand_9.pdbqt
 14 15 0 0 0
SMALL
GASTEIGER

@<TRIPOS>ATOM
      1  C          5.8260    1.7780    1.3360 C.3     1  UNL1        0.0800
      2  C          5.2280    0.6310    2.0440 C.2     1  UNL1        0.1300
      3  C          6.1400   -0.5710    2.2210 C.3     1  UNL1        0.0870
      4  O          4.1200    0.5390    2.4910 O.2     1  UNL1       -0.3000
      5  C          5.7920    1.7210   -0.1410 C.3     1  UNL1        0.0430
      6  C          6.8360    0.9360   -0.8050 C.2     1  UNL1       -0.0440
      7  C          8.1850    1.2880   -0.7410 C.2     1  UNL1        0.0080
      8  C          6.5040   -0.2040   -1.4990 C.2     1  UNL1        0.0540
      9  C          9.1120    0.4930   -1.3650 C.2     1  UNL1        0.0510
     10  C          7.4730   -1.0010   -2.1280 C.2     1  UNL1        0.1660
     11  C          8.8050   -0.6530   -2.0650 C.2     1  UNL1        0.1650
     12  O          7.4330   -2.1710   -2.8750 O.2     1  UNL1       -0.4540
     13  O          9.5520   -1.6060   -2.7680 O.2     1  UNL1       -0.4540
     14  C          8.7290   -2.7520   -2.8350 C.3     1  UNL1        0.4680
@<TRIPOS>BOND
     1    12    14    1
     2    12    10    1
     3    14    13    1
     4    13    11    1
     5    10    11    2
     6    10     8    1
     7    11     9    1
     8     8     6    2
     9     9     7    2
    10     6     7    1
    11     6     5    1
    12     5     1    1
    13     1     2    1
    14     2     3    1
    15     2     4    2
