@<TRIPOS>MOLECULE
/home/cewinharhar/GITHUB/reincatalyze/data/processed/docking_pred/2023-May-31-1727_sub9_nm5_bs15_s42_ex16_mel10_mts10000_k50_ec075_g099_lra3e-4_lrc3e-3/44bf36be1ccee3462d679cf400989bbed31f99fd_ligand_9.pdbqt
 14 15 0 0 0
SMALL
GASTEIGER

@<TRIPOS>ATOM
      1  C          5.3830   -0.0770    1.9610 C.3     1  UNL1        0.0800
      2  C          4.4380    1.0510    1.8730 C.2     1  UNL1        0.1300
      3  C          4.7530    2.0810    0.8010 C.3     1  UNL1        0.0870
      4  O          3.4620    1.2470    2.5400 O.2     1  UNL1       -0.3000
      5  C          6.8050    0.2450    1.7180 C.3     1  UNL1        0.0430
      6  C          7.3520   -0.0910    0.4010 C.2     1  UNL1       -0.0440
      7  C          7.8100    0.8850   -0.4860 C.2     1  UNL1        0.0080
      8  C          7.4550   -1.4070    0.0130 C.2     1  UNL1        0.0540
      9  C          8.3350    0.4970   -1.6910 C.2     1  UNL1        0.0510
     10  C          7.9980   -1.7760   -1.2270 C.2     1  UNL1        0.1660
     11  C          8.4480   -0.8130   -2.1020 C.2     1  UNL1        0.1650
     12  O          8.2210   -2.9890   -1.8680 O.2     1  UNL1       -0.4540
     13  O          8.9360   -1.4440   -3.2540 O.2     1  UNL1       -0.4540
     14  C          9.2110   -2.7730   -2.8640 C.3     1  UNL1        0.4680
@<TRIPOS>BOND
     1    13    14    1
     2    13    11    1
     3    14    12    1
     4    11     9    2
     5    11    10    1
     6    12    10    1
     7     9     7    1
     8    10     8    2
     9     7     6    2
    10     8     6    1
    11     6     5    1
    12     3     2    1
    13     5     1    1
    14     2     1    1
    15     2     4    2
