MODEL 1
REMARK VINA RESULT:      -7.5      0.000      0.000
REMARK SMILES CC(=O)CCc1ccc2c(c1)OCO2
REMARK SMILES IDX 4 1 2 2 1 3 3 4 5 5 6 6 7 7 11 8 8 9 10 10 9 11 12 12 14 13
REMARK SMILES IDX 13 14
REMARK H PARENT
REMARK Flexibility Score: inf
ROOT
ATOM      1  C   UNL     1       5.511   1.901   1.212  1.00  0.00     0.080 C 
ENDROOT
BRANCH   1   2
ATOM      2  C   UNL     1       4.987   0.767   1.994  1.00  0.00     0.130 C 
ATOM      3  C   UNL     1       5.929  -0.417   2.135  1.00  0.00     0.087 C 
ATOM      4  O   UNL     1       3.917   0.672   2.526  1.00  0.00    -0.300 OA
ENDBRANCH   1   2
BRANCH   1   5
ATOM      5  C   UNL     1       5.499   1.739  -0.257  1.00  0.00     0.043 C 
BRANCH   5   6
ATOM      6  C   UNL     1       6.612   0.999  -0.859  1.00  0.00    -0.044 A 
ATOM      7  C   UNL     1       7.943   1.383  -0.683  1.00  0.00     0.008 A 
ATOM      8  C   UNL     1       6.365  -0.130  -1.604  1.00  0.00     0.054 A 
ATOM      9  C   UNL     1       8.935   0.628  -1.252  1.00  0.00     0.051 A 
ATOM     10  C   UNL     1       7.401  -0.885  -2.176  1.00  0.00     0.166 A 
ATOM     11  C   UNL     1       8.714  -0.506  -2.003  1.00  0.00     0.165 A 
ATOM     12  O   UNL     1       7.450  -2.035  -2.954  1.00  0.00    -0.454 OA
ATOM     13  O   UNL     1       9.538  -1.421  -2.669  1.00  0.00    -0.454 OA
ATOM     14  C   UNL     1       8.753  -2.584  -2.828  1.00  0.00     0.468 C 
ENDBRANCH   5   6
ENDBRANCH   1   5
TORSDOF 3
ENDMDL
MODEL 2
REMARK VINA RESULT:      -6.9      1.107      1.209
REMARK SMILES CC(=O)CCc1ccc2c(c1)OCO2
REMARK SMILES IDX 4 1 2 2 1 3 3 4 5 5 6 6 7 7 11 8 8 9 10 10 9 11 12 12 14 13
REMARK SMILES IDX 13 14
REMARK H PARENT
REMARK Flexibility Score: inf
ROOT
ATOM      1  C   UNL     1       6.235   1.215   0.886  1.00  0.00     0.080 C 
ENDROOT
BRANCH   1   2
ATOM      2  C   UNL     1       5.560   0.407   1.918  1.00  0.00     0.130 C 
ATOM      3  C   UNL     1       6.334  -0.807   2.402  1.00  0.00     0.087 C 
ATOM      4  O   UNL     1       4.486   0.596   2.414  1.00  0.00    -0.300 OA
ENDBRANCH   1   2
BRANCH   1   5
ATOM      5  C   UNL     1       5.886   0.903  -0.516  1.00  0.00     0.043 C 
BRANCH   5   6
ATOM      6  C   UNL     1       6.859   0.129  -1.293  1.00  0.00    -0.044 A 
ATOM      7  C   UNL     1       7.786   0.736  -2.141  1.00  0.00     0.008 A 
ATOM      8  C   UNL     1       6.897  -1.241  -1.178  1.00  0.00     0.054 A 
ATOM      9  C   UNL     1       8.685  -0.048  -2.817  1.00  0.00     0.051 A 
ATOM     10  C   UNL     1       7.829  -2.020  -1.881  1.00  0.00     0.166 A 
ATOM     11  C   UNL     1       8.743  -1.421  -2.719  1.00  0.00     0.165 A 
ATOM     12  O   UNL     1       8.095  -3.381  -1.959  1.00  0.00    -0.454 OA
ATOM     13  O   UNL     1       9.548  -2.414  -3.291  1.00  0.00    -0.454 OA
ATOM     14  C   UNL     1       9.423  -3.533  -2.438  1.00  0.00     0.468 C 
ENDBRANCH   5   6
ENDBRANCH   1   5
TORSDOF 3
ENDMDL
MODEL 3
REMARK VINA RESULT:      -6.8      1.726      2.150
REMARK SMILES CC(=O)CCc1ccc2c(c1)OCO2
REMARK SMILES IDX 4 1 2 2 1 3 3 4 5 5 6 6 7 7 11 8 8 9 10 10 9 11 12 12 14 13
REMARK SMILES IDX 13 14
REMARK H PARENT
REMARK Flexibility Score: inf
ROOT
ATOM      1  C   UNL     1       5.760   1.633  -0.142  1.00  0.00     0.080 C 
ENDROOT
BRANCH   1   2
ATOM      2  C   UNL     1       5.033   1.384   1.116  1.00  0.00     0.130 C 
ATOM      3  C   UNL     1       5.566   0.238   1.958  1.00  0.00     0.087 C 
ATOM      4  O   UNL     1       4.083   1.974   1.546  1.00  0.00    -0.300 OA
ENDBRANCH   1   2
BRANCH   1   5
ATOM      5  C   UNL     1       7.177   1.214  -0.170  1.00  0.00     0.043 C 
BRANCH   5   6
ATOM      6  C   UNL     1       7.484  -0.067  -0.813  1.00  0.00    -0.044 A 
ATOM      7  C   UNL     1       7.479  -0.223  -2.200  1.00  0.00     0.008 A 
ATOM      8  C   UNL     1       7.820  -1.159  -0.047  1.00  0.00     0.054 A 
ATOM      9  C   UNL     1       7.803  -1.443  -2.735  1.00  0.00     0.051 A 
ATOM     10  C   UNL     1       8.148  -2.397  -0.621  1.00  0.00     0.166 A 
ATOM     11  C   UNL     1       8.142  -2.551  -1.990  1.00  0.00     0.165 A 
ATOM     12  O   UNL     1       8.516  -3.636  -0.113  1.00  0.00    -0.454 OA
ATOM     13  O   UNL     1       8.502  -3.869  -2.296  1.00  0.00    -0.454 OA
ATOM     14  C   UNL     1       9.175  -4.348  -1.150  1.00  0.00     0.468 C 
ENDBRANCH   5   6
ENDBRANCH   1   5
TORSDOF 3
ENDMDL
MODEL 4
REMARK VINA RESULT:      -6.7      1.165      1.650
REMARK SMILES CC(=O)CCc1ccc2c(c1)OCO2
REMARK SMILES IDX 4 1 2 2 1 3 3 4 5 5 6 6 7 7 11 8 8 9 10 10 9 11 12 12 14 13
REMARK SMILES IDX 13 14
REMARK H PARENT
REMARK Flexibility Score: inf
ROOT
ATOM      1  C   UNL     1       5.384  -0.036   1.963  1.00  0.00     0.080 C 
ENDROOT
BRANCH   1   2
ATOM      2  C   UNL     1       4.425   1.079   1.865  1.00  0.00     0.130 C 
ATOM      3  C   UNL     1       4.744   2.119   0.804  1.00  0.00     0.087 C 
ATOM      4  O   UNL     1       3.435   1.258   2.516  1.00  0.00    -0.300 OA
ENDBRANCH   1   2
BRANCH   1   5
ATOM      5  C   UNL     1       6.798   0.295   1.692  1.00  0.00     0.043 C 
BRANCH   5   6
ATOM      6  C   UNL     1       7.328  -0.059   0.372  1.00  0.00    -0.044 A 
ATOM      7  C   UNL     1       7.740   0.907  -0.547  1.00  0.00     0.008 A 
ATOM      8  C   UNL     1       7.460  -1.381   0.015  1.00  0.00     0.054 A 
ATOM      9  C   UNL     1       8.252   0.503  -1.753  1.00  0.00     0.051 A 
ATOM     10  C   UNL     1       7.988  -1.766  -1.226  1.00  0.00     0.166 A 
ATOM     11  C   UNL     1       8.394  -0.813  -2.134  1.00  0.00     0.165 A 
ATOM     12  O   UNL     1       8.233  -2.988  -1.842  1.00  0.00    -0.454 OA
ATOM     13  O   UNL     1       8.876  -1.458  -3.280  1.00  0.00    -0.454 OA
ATOM     14  C   UNL     1       9.195  -2.770  -2.863  1.00  0.00     0.468 C 
ENDBRANCH   5   6
ENDBRANCH   1   5
TORSDOF 3
ENDMDL
MODEL 5
REMARK VINA RESULT:      -6.5      1.920      2.500
REMARK SMILES CC(=O)CCc1ccc2c(c1)OCO2
REMARK SMILES IDX 4 1 2 2 1 3 3 4 5 5 6 6 7 7 11 8 8 9 10 10 9 11 12 12 14 13
REMARK SMILES IDX 13 14
REMARK H PARENT
REMARK Flexibility Score: inf
ROOT
ATOM      1  C   UNL     1       5.628  -0.050   2.060  1.00  0.00     0.080 C 
ENDROOT
BRANCH   1   2
ATOM      2  C   UNL     1       4.639   1.021   1.842  1.00  0.00     0.130 C 
ATOM      3  C   UNL     1       4.943   1.962   0.689  1.00  0.00     0.087 C 
ATOM      4  O   UNL     1       3.635   1.232   2.461  1.00  0.00    -0.300 OA
ENDBRANCH   1   2
BRANCH   1   5
ATOM      5  C   UNL     1       6.952   0.149   1.433  1.00  0.00     0.043 C 
BRANCH   5   6
ATOM      6  C   UNL     1       7.341  -0.790   0.378  1.00  0.00    -0.044 A 
ATOM      7  C   UNL     1       7.238  -0.470  -0.977  1.00  0.00     0.008 A 
ATOM      8  C   UNL     1       7.854  -2.023   0.707  1.00  0.00     0.054 A 
ATOM      9  C   UNL     1       7.647  -1.387  -1.911  1.00  0.00     0.051 A 
ATOM     10  C   UNL     1       8.265  -2.942  -0.270  1.00  0.00     0.166 A 
ATOM     11  C   UNL     1       8.163  -2.627  -1.607  1.00  0.00     0.165 A 
ATOM     12  O   UNL     1       8.804  -4.222  -0.234  1.00  0.00    -0.454 OA
ATOM     13  O   UNL     1       8.637  -3.708  -2.361  1.00  0.00    -0.454 OA
ATOM     14  C   UNL     1       9.449  -4.453  -1.478  1.00  0.00     0.468 C 
ENDBRANCH   5   6
ENDBRANCH   1   5
TORSDOF 3
ENDMDL
