@<TRIPOS>MOLECULE
/home/cewinharhar/GITHUB/reincatalyze/data/processed/docking_pred/2023-May-31-1727_sub9_nm5_bs15_s42_ex16_mel10_mts10000_k50_ec075_g099_lra3e-4_lrc3e-3/46861e00ed193d15618049a480e2ca269f83ce14_ligand_9.pdbqt
 14 15 0 0 0
SMALL
GASTEIGER

@<TRIPOS>ATOM
      1  C          6.2350    1.2150    0.8860 C.3     1  UNL1        0.0800
      2  C          5.5600    0.4070    1.9180 C.2     1  UNL1        0.1300
      3  C          6.3340   -0.8070    2.4020 C.3     1  UNL1        0.0870
      4  O          4.4860    0.5960    2.4140 O.2     1  UNL1       -0.3000
      5  C          5.8860    0.9030   -0.5160 C.3     1  UNL1        0.0430
      6  C          6.8590    0.1290   -1.2930 C.2     1  UNL1       -0.0440
      7  C          7.7860    0.7360   -2.1410 C.2     1  UNL1        0.0080
      8  C          6.8970   -1.2410   -1.1780 C.2     1  UNL1        0.0540
      9  C          8.6850   -0.0480   -2.8170 C.2     1  UNL1        0.0510
     10  C          7.8290   -2.0200   -1.8810 C.2     1  UNL1        0.1660
     11  C          8.7430   -1.4210   -2.7190 C.2     1  UNL1        0.1650
     12  O          8.0950   -3.3810   -1.9590 O.2     1  UNL1       -0.4540
     13  O          9.5480   -2.4140   -3.2910 O.2     1  UNL1       -0.4540
     14  C          9.4230   -3.5330   -2.4380 C.3     1  UNL1        0.4680
@<TRIPOS>BOND
     1    13    11    1
     2    13    14    1
     3     9    11    2
     4     9     7    1
     5    11    10    1
     6    14    12    1
     7     7     6    2
     8    12    10    1
     9    10     8    2
    10     6     8    1
    11     6     5    1
    12     5     1    1
    13     1     2    1
    14     2     3    1
    15     2     4    2
