@<TRIPOS>MOLECULE
/home/cewinharhar/GITHUB/reincatalyze/data/processed/docking_pred/2023-May-31-1727_sub9_nm5_bs15_s42_ex16_mel10_mts10000_k50_ec075_g099_lra3e-4_lrc3e-3/46861e00ed193d15618049a480e2ca269f83ce14_ligand_9.pdbqt
 14 15 0 0 0
SMALL
GASTEIGER

@<TRIPOS>ATOM
      1  C          5.6280   -0.0500    2.0600 C.3     1  UNL1        0.0800
      2  C          4.6390    1.0210    1.8420 C.2     1  UNL1        0.1300
      3  C          4.9430    1.9620    0.6890 C.3     1  UNL1        0.0870
      4  O          3.6350    1.2320    2.4610 O.2     1  UNL1       -0.3000
      5  C          6.9520    0.1490    1.4330 C.3     1  UNL1        0.0430
      6  C          7.3410   -0.7900    0.3780 C.2     1  UNL1       -0.0440
      7  C          7.2380   -0.4700   -0.9770 C.2     1  UNL1        0.0080
      8  C          7.8540   -2.0230    0.7070 C.2     1  UNL1        0.0540
      9  C          7.6470   -1.3870   -1.9110 C.2     1  UNL1        0.0510
     10  C          8.2650   -2.9420   -0.2700 C.2     1  UNL1        0.1660
     11  C          8.1630   -2.6270   -1.6070 C.2     1  UNL1        0.1650
     12  O          8.8040   -4.2220   -0.2340 O.2     1  UNL1       -0.4540
     13  O          8.6370   -3.7080   -2.3610 O.2     1  UNL1       -0.4540
     14  C          9.4490   -4.4530   -1.4780 C.3     1  UNL1        0.4680
@<TRIPOS>BOND
     1    13    11    1
     2    13    14    1
     3     9    11    2
     4     9     7    1
     5    11    10    1
     6    14    12    1
     7     7     6    2
     8    10    12    1
     9    10     8    2
    10     6     8    1
    11     6     5    1
    12     3     2    1
    13     5     1    1
    14     2     1    1
    15     2     4    2
