MODEL 1
REMARK VINA RESULT:      -7.6      0.000      0.000
REMARK SMILES CC(=O)CCc1ccc2c(c1)OCO2
REMARK SMILES IDX 4 1 2 2 1 3 3 4 5 5 6 6 7 7 11 8 8 9 10 10 9 11 12 12 14 13
REMARK SMILES IDX 13 14
REMARK H PARENT
REMARK Flexibility Score: inf
ROOT
ATOM      1  C   UNL     1       5.531   1.945   1.213  1.00  0.00     0.080 C 
ENDROOT
BRANCH   1   2
ATOM      2  C   UNL     1       5.043   0.792   1.991  1.00  0.00     0.130 C 
ATOM      3  C   UNL     1       6.037  -0.343   2.165  1.00  0.00     0.087 C 
ATOM      4  O   UNL     1       3.965   0.649   2.496  1.00  0.00    -0.300 OA
ENDBRANCH   1   2
BRANCH   1   5
ATOM      5  C   UNL     1       5.523   1.790  -0.257  1.00  0.00     0.043 C 
BRANCH   5   6
ATOM      6  C   UNL     1       6.620   1.025  -0.856  1.00  0.00    -0.044 A 
ATOM      7  C   UNL     1       7.958   1.384  -0.686  1.00  0.00     0.008 A 
ATOM      8  C   UNL     1       6.349  -0.105  -1.592  1.00  0.00     0.054 A 
ATOM      9  C   UNL     1       8.934   0.606  -1.252  1.00  0.00     0.051 A 
ATOM     10  C   UNL     1       7.369  -0.884  -2.161  1.00  0.00     0.166 A 
ATOM     11  C   UNL     1       8.689  -0.529  -1.993  1.00  0.00     0.165 A 
ATOM     12  O   UNL     1       7.393  -2.041  -2.930  1.00  0.00    -0.454 OA
ATOM     13  O   UNL     1       9.494  -1.465  -2.655  1.00  0.00    -0.454 OA
ATOM     14  C   UNL     1       8.686  -2.614  -2.803  1.00  0.00     0.468 C 
ENDBRANCH   5   6
ENDBRANCH   1   5
TORSDOF 3
ENDMDL
MODEL 2
REMARK VINA RESULT:      -7.0      1.809      2.278
REMARK SMILES CC(=O)CCc1ccc2c(c1)OCO2
REMARK SMILES IDX 4 1 2 2 1 3 3 4 5 5 6 6 7 7 11 8 8 9 10 10 9 11 12 12 14 13
REMARK SMILES IDX 13 14
REMARK H PARENT
REMARK Flexibility Score: inf
ROOT
ATOM      1  C   UNL     1       5.796   1.476  -0.263  1.00  0.00     0.080 C 
ENDROOT
BRANCH   1   2
ATOM      2  C   UNL     1       5.078   1.381   1.021  1.00  0.00     0.130 C 
ATOM      3  C   UNL     1       5.486   0.218   1.910  1.00  0.00     0.087 C 
ATOM      4  O   UNL     1       4.221   2.107   1.440  1.00  0.00    -0.300 OA
ENDBRANCH   1   2
BRANCH   1   5
ATOM      5  C   UNL     1       7.214   1.060  -0.248  1.00  0.00     0.043 C 
BRANCH   5   6
ATOM      6  C   UNL     1       7.539  -0.237  -0.849  1.00  0.00    -0.044 A 
ATOM      7  C   UNL     1       7.580  -0.426  -2.232  1.00  0.00     0.008 A 
ATOM      8  C   UNL     1       7.843  -1.311  -0.047  1.00  0.00     0.054 A 
ATOM      9  C   UNL     1       7.918  -1.659  -2.726  1.00  0.00     0.051 A 
ATOM     10  C   UNL     1       8.186  -2.563  -0.579  1.00  0.00     0.166 A 
ATOM     11  C   UNL     1       8.226  -2.750  -1.943  1.00  0.00     0.165 A 
ATOM     12  O   UNL     1       8.531  -3.792  -0.029  1.00  0.00    -0.454 OA
ATOM     13  O   UNL     1       8.592  -4.077  -2.205  1.00  0.00    -0.454 OA
ATOM     14  C   UNL     1       9.223  -4.530  -1.026  1.00  0.00     0.468 C 
ENDBRANCH   5   6
ENDBRANCH   1   5
TORSDOF 3
ENDMDL
MODEL 3
REMARK VINA RESULT:      -7.0      1.133      1.255
REMARK SMILES CC(=O)CCc1ccc2c(c1)OCO2
REMARK SMILES IDX 4 1 2 2 1 3 3 4 5 5 6 6 7 7 11 8 8 9 10 10 9 11 12 12 14 13
REMARK SMILES IDX 13 14
REMARK H PARENT
REMARK Flexibility Score: inf
ROOT
ATOM      1  C   UNL     1       6.277   1.164   0.907  1.00  0.00     0.080 C 
ENDROOT
BRANCH   1   2
ATOM      2  C   UNL     1       5.561   0.377   1.927  1.00  0.00     0.130 C 
ATOM      3  C   UNL     1       6.293  -0.857   2.428  1.00  0.00     0.087 C 
ATOM      4  O   UNL     1       4.482   0.594   2.401  1.00  0.00    -0.300 OA
ENDBRANCH   1   2
BRANCH   1   5
ATOM      5  C   UNL     1       5.924   0.882  -0.500  1.00  0.00     0.043 C 
BRANCH   5   6
ATOM      6  C   UNL     1       6.880   0.098  -1.286  1.00  0.00    -0.044 A 
ATOM      7  C   UNL     1       7.774   0.692  -2.178  1.00  0.00     0.008 A 
ATOM      8  C   UNL     1       6.936  -1.269  -1.138  1.00  0.00     0.054 A 
ATOM      9  C   UNL     1       8.660  -0.101  -2.861  1.00  0.00     0.051 A 
ATOM     10  C   UNL     1       7.854  -2.056  -1.850  1.00  0.00     0.166 A 
ATOM     11  C   UNL     1       8.736  -1.470  -2.731  1.00  0.00     0.165 A 
ATOM     12  O   UNL     1       8.131  -3.417  -1.902  1.00  0.00    -0.454 OA
ATOM     13  O   UNL     1       9.533  -2.470  -3.303  1.00  0.00    -0.454 OA
ATOM     14  C   UNL     1       9.446  -3.568  -2.418  1.00  0.00     0.468 C 
ENDBRANCH   5   6
ENDBRANCH   1   5
TORSDOF 3
ENDMDL
MODEL 4
REMARK VINA RESULT:      -6.8      1.815      2.330
REMARK SMILES CC(=O)CCc1ccc2c(c1)OCO2
REMARK SMILES IDX 4 1 2 2 1 3 3 4 5 5 6 6 7 7 11 8 8 9 10 10 9 11 12 12 14 13
REMARK SMILES IDX 13 14
REMARK H PARENT
REMARK Flexibility Score: inf
ROOT
ATOM      1  C   UNL     1       6.803   1.068   1.407  1.00  0.00     0.080 C 
ENDROOT
BRANCH   1   2
ATOM      2  C   UNL     1       5.338   1.180   1.535  1.00  0.00     0.130 C 
ATOM      3  C   UNL     1       4.674   2.150   0.572  1.00  0.00     0.087 C 
ATOM      4  O   UNL     1       4.621   0.602   2.300  1.00  0.00    -0.300 OA
ENDBRANCH   1   2
BRANCH   1   5
ATOM      5  C   UNL     1       7.343   1.131   0.033  1.00  0.00     0.043 C 
BRANCH   5   6
ATOM      6  C   UNL     1       7.616  -0.143  -0.640  1.00  0.00    -0.044 A 
ATOM      7  C   UNL     1       7.612  -0.266  -2.030  1.00  0.00     0.008 A 
ATOM      8  C   UNL     1       7.915  -1.262   0.102  1.00  0.00     0.054 A 
ATOM      9  C   UNL     1       7.902  -1.482  -2.592  1.00  0.00     0.051 A 
ATOM     10  C   UNL     1       8.210  -2.495  -0.500  1.00  0.00     0.166 A 
ATOM     11  C   UNL     1       8.205  -2.617  -1.872  1.00  0.00     0.165 A 
ATOM     12  O   UNL     1       8.538  -3.757  -0.020  1.00  0.00    -0.454 OA
ATOM     13  O   UNL     1       8.528  -3.938  -2.208  1.00  0.00    -0.454 OA
ATOM     14  C   UNL     1       9.181  -4.463  -1.071  1.00  0.00     0.468 C 
ENDBRANCH   5   6
ENDBRANCH   1   5
TORSDOF 3
ENDMDL
MODEL 5
REMARK VINA RESULT:      -6.7      1.099      1.613
REMARK SMILES CC(=O)CCc1ccc2c(c1)OCO2
REMARK SMILES IDX 4 1 2 2 1 3 3 4 5 5 6 6 7 7 11 8 8 9 10 10 9 11 12 12 14 13
REMARK SMILES IDX 13 14
REMARK H PARENT
REMARK Flexibility Score: inf
ROOT
ATOM      1  C   UNL     1       5.335  -0.022   1.989  1.00  0.00     0.080 C 
ENDROOT
BRANCH   1   2
ATOM      2  C   UNL     1       4.388   1.101   1.869  1.00  0.00     0.130 C 
ATOM      3  C   UNL     1       4.733   2.132   0.807  1.00  0.00     0.087 C 
ATOM      4  O   UNL     1       3.390   1.293   2.504  1.00  0.00    -0.300 OA
ENDBRANCH   1   2
BRANCH   1   5
ATOM      5  C   UNL     1       6.760   0.300   1.762  1.00  0.00     0.043 C 
BRANCH   5   6
ATOM      6  C   UNL     1       7.312  -0.000   0.438  1.00  0.00    -0.044 A 
ATOM      7  C   UNL     1       7.870   0.987  -0.377  1.00  0.00     0.008 A 
ATOM      8  C   UNL     1       7.317  -1.294  -0.029  1.00  0.00     0.054 A 
ATOM      9  C   UNL     1       8.393   0.630  -1.592  1.00  0.00     0.051 A 
ATOM     10  C   UNL     1       7.859  -1.631  -1.278  1.00  0.00     0.166 A 
ATOM     11  C   UNL     1       8.410  -0.657  -2.082  1.00  0.00     0.165 A 
ATOM     12  O   UNL     1       7.999  -2.817  -1.989  1.00  0.00    -0.454 OA
ATOM     13  O   UNL     1       8.874  -1.256  -3.261  1.00  0.00    -0.454 OA
ATOM     14  C   UNL     1       9.028  -2.625  -2.948  1.00  0.00     0.468 C 
ENDBRANCH   5   6
ENDBRANCH   1   5
TORSDOF 3
ENDMDL
