@<TRIPOS>MOLECULE
/home/cewinharhar/GITHUB/reincatalyze/data/processed/docking_pred/2023-May-31-1727_sub9_nm5_bs15_s42_ex16_mel10_mts10000_k50_ec075_g099_lra3e-4_lrc3e-3/46aa5159a95d0d08c04f597503a56ad94e9ef6ed_ligand_9.pdbqt
 14 15 0 0 0
SMALL
GASTEIGER

@<TRIPOS>ATOM
      1  C          5.5310    1.9450    1.2130 C.3     1  UNL1        0.0800
      2  C          5.0430    0.7920    1.9910 C.2     1  UNL1        0.1300
      3  C          6.0370   -0.3430    2.1650 C.3     1  UNL1        0.0870
      4  O          3.9650    0.6490    2.4960 O.2     1  UNL1       -0.3000
      5  C          5.5230    1.7900   -0.2570 C.3     1  UNL1        0.0430
      6  C          6.6200    1.0250   -0.8560 C.2     1  UNL1       -0.0440
      7  C          7.9580    1.3840   -0.6860 C.2     1  UNL1        0.0080
      8  C          6.3490   -0.1050   -1.5920 C.2     1  UNL1        0.0540
      9  C          8.9340    0.6060   -1.2520 C.2     1  UNL1        0.0510
     10  C          7.3690   -0.8840   -2.1610 C.2     1  UNL1        0.1660
     11  C          8.6890   -0.5290   -1.9930 C.2     1  UNL1        0.1650
     12  O          7.3930   -2.0410   -2.9300 O.2     1  UNL1       -0.4540
     13  O          9.4940   -1.4650   -2.6550 O.2     1  UNL1       -0.4540
     14  C          8.6860   -2.6140   -2.8030 C.3     1  UNL1        0.4680
@<TRIPOS>BOND
     1    12    14    1
     2    12    10    1
     3    14    13    1
     4    13    11    1
     5    10    11    2
     6    10     8    1
     7    11     9    1
     8     8     6    2
     9     9     7    2
    10     6     7    1
    11     6     5    1
    12     5     1    1
    13     1     2    1
    14     2     3    1
    15     2     4    2
