@<TRIPOS>MOLECULE
/home/cewinharhar/GITHUB/reincatalyze/data/processed/docking_pred/2023-May-31-1727_sub9_nm5_bs15_s42_ex16_mel10_mts10000_k50_ec075_g099_lra3e-4_lrc3e-3/49b3117837231080fe644fe44c00424f4b8d2b91_ligand_9.pdbqt
 14 15 0 0 0
SMALL
GASTEIGER

@<TRIPOS>ATOM
      1  C          5.3300   -0.0810    2.2120 C.3     1  UNL1        0.0800
      2  C          4.4480    1.0620    1.9130 C.2     1  UNL1        0.1300
      3  C          4.9210    1.9730    0.7930 C.3     1  UNL1        0.0870
      4  O          3.4140    1.3510    2.4450 O.2     1  UNL1       -0.3000
      5  C          6.7650    0.1090    1.9140 C.3     1  UNL1        0.0430
      6  C          7.3300   -0.6750    0.8120 C.2     1  UNL1       -0.0440
      7  C          7.6390   -2.0300    0.9440 C.2     1  UNL1        0.0080
      8  C          7.5470   -0.0860   -0.4120 C.2     1  UNL1        0.0540
      9  C          8.1390   -2.7080   -0.1370 C.2     1  UNL1        0.0510
     10  C          8.0600   -0.8050   -1.5020 C.2     1  UNL1        0.1660
     11  C          8.3660   -2.1420   -1.3710 C.2     1  UNL1        0.1650
     12  O          8.3740   -0.4830   -2.8170 O.2     1  UNL1       -0.4540
     13  O          8.8560   -2.6140   -2.5960 O.2     1  UNL1       -0.4540
     14  C          8.3960   -1.6920   -3.5620 C.3     1  UNL1        0.4680
@<TRIPOS>BOND
     1    14    12    1
     2    14    13    1
     3    12    10    1
     4    13    11    1
     5    10    11    2
     6    10     8    1
     7    11     9    1
     8     8     6    2
     9     9     7    2
    10     3     2    1
    11     6     7    1
    12     6     5    1
    13     2     1    1
    14     2     4    2
    15     5     1    1
