@<TRIPOS>MOLECULE
/home/cewinharhar/GITHUB/reincatalyze/data/processed/docking_pred/2023-May-31-1727_sub9_nm5_bs15_s42_ex16_mel10_mts10000_k50_ec075_g099_lra3e-4_lrc3e-3/49b3117837231080fe644fe44c00424f4b8d2b91_ligand_9.pdbqt
 14 15 0 0 0
SMALL
GASTEIGER

@<TRIPOS>ATOM
      1  C          5.3460   -0.0300    2.0050 C.3     1  UNL1        0.0800
      2  C          4.3960    1.0890    1.8750 C.2     1  UNL1        0.1300
      3  C          4.7410    2.1140    0.8080 C.3     1  UNL1        0.0870
      4  O          3.3950    1.2810    2.5050 O.2     1  UNL1       -0.3000
      5  C          6.7700    0.2950    1.7810 C.3     1  UNL1        0.0430
      6  C          7.3290   -0.0140    0.4620 C.2     1  UNL1       -0.0440
      7  C          7.8970    0.9660   -0.3540 C.2     1  UNL1        0.0080
      8  C          7.3320   -1.3100    0.0020 C.2     1  UNL1        0.0540
      9  C          8.4260    0.6010   -1.5650 C.2     1  UNL1        0.0510
     10  C          7.8810   -1.6560   -1.2420 C.2     1  UNL1        0.1660
     11  C          8.4400   -0.6890   -2.0480 C.2     1  UNL1        0.1650
     12  O          8.0210   -2.8470   -1.9450 O.2     1  UNL1       -0.4540
     13  O          8.9100   -1.2950   -3.2200 O.2     1  UNL1       -0.4540
     14  C          9.0560   -2.6630   -2.9000 C.3     1  UNL1        0.4680
@<TRIPOS>BOND
     1    13    14    1
     2    13    11    1
     3    14    12    1
     4    11     9    2
     5    11    10    1
     6    12    10    1
     7     9     7    1
     8    10     8    2
     9     7     6    2
    10     8     6    1
    11     6     5    1
    12     3     2    1
    13     5     1    1
    14     2     1    1
    15     2     4    2
