@<TRIPOS>MOLECULE
/home/cewinharhar/GITHUB/reincatalyze/data/processed/docking_pred/2023-May-31-1727_sub9_nm5_bs15_s42_ex16_mel10_mts10000_k50_ec075_g099_lra3e-4_lrc3e-3/49b3117837231080fe644fe44c00424f4b8d2b91_ligand_9.pdbqt
 14 15 0 0 0
SMALL
GASTEIGER

@<TRIPOS>ATOM
      1  C          5.6990    1.3760   -0.3000 C.3     1  UNL1        0.0800
      2  C          5.0700    1.3310    1.0330 C.2     1  UNL1        0.1300
      3  C          5.5120    0.1820    1.9220 C.3     1  UNL1        0.0870
      4  O          4.2610    2.0880    1.4900 O.2     1  UNL1       -0.3000
      5  C          7.1420    1.0620   -0.3500 C.3     1  UNL1        0.0430
      6  C          7.5280   -0.2300   -0.9230 C.2     1  UNL1       -0.0440
      7  C          7.6690   -0.4210   -2.2990 C.2     1  UNL1        0.0080
      8  C          7.7910   -1.2990   -0.0980 C.2     1  UNL1        0.0540
      9  C          8.0590   -1.6500   -2.7640 C.2     1  UNL1        0.0510
     10  C          8.1890   -2.5460   -0.6020 C.2     1  UNL1        0.1660
     11  C          8.3280   -2.7350   -1.9590 C.2     1  UNL1        0.1650
     12  O          8.5130   -3.7690   -0.0260 O.2     1  UNL1       -0.4540
     13  O          8.7310   -4.0560   -2.1910 O.2     1  UNL1       -0.4540
     14  C          9.2840   -4.4980   -0.9690 C.3     1  UNL1        0.4680
@<TRIPOS>BOND
     1     9     7    1
     2     9    11    2
     3     7     6    2
     4    13    11    1
     5    13    14    1
     6    11    10    1
     7    14    12    1
     8     6     5    1
     9     6     8    1
    10    10     8    2
    11    10    12    1
    12     5     1    1
    13     1     2    1
    14     2     4    2
    15     2     3    1
