@<TRIPOS>MOLECULE
/home/cewinharhar/GITHUB/reincatalyze/data/processed/docking_pred/2023-May-31-1727_sub9_nm5_bs15_s42_ex16_mel10_mts10000_k50_ec075_g099_lra3e-4_lrc3e-3/4a3a178b6a4326eb13634b12f3ce9c4ec26f8538_ligand_9.pdbqt
 14 15 0 0 0
SMALL
GASTEIGER

@<TRIPOS>ATOM
      1  C          5.9050    0.2670    1.9380 C.3     1  UNL1        0.0800
      2  C          4.8010    1.1930    1.6240 C.2     1  UNL1        0.1300
      3  C          5.0170    2.0720    0.4040 C.3     1  UNL1        0.0870
      4  O          3.7670    1.3310    2.2130 O.2     1  UNL1       -0.3000
      5  C          7.1400    0.4340    1.1430 C.3     1  UNL1        0.0430
      6  C          7.4620   -0.6190    0.1760 C.2     1  UNL1       -0.0440
      7  C          7.3590   -0.4200   -1.2020 C.2     1  UNL1        0.0080
      8  C          7.9100   -1.8440    0.6150 C.2     1  UNL1        0.0540
      9  C          7.7030   -1.4410   -2.0500 C.2     1  UNL1        0.0510
     10  C          8.2550   -2.8710   -0.2760 C.2     1  UNL1        0.1660
     11  C          8.1530   -2.6750   -1.6360 C.2     1  UNL1        0.1650
     12  O          8.7230   -4.1710   -0.1260 O.2     1  UNL1       -0.4540
     13  O          8.5550   -3.8460   -2.2910 O.2     1  UNL1       -0.4540
     14  C          9.3370   -4.5510   -1.3480 C.3     1  UNL1        0.4680
@<TRIPOS>BOND
     1    13    11    1
     2    13    14    1
     3     9    11    2
     4     9     7    1
     5    11    10    1
     6    14    12    1
     7     7     6    2
     8    10    12    1
     9    10     8    2
    10     6     8    1
    11     6     5    1
    12     3     2    1
    13     5     1    1
    14     2     1    1
    15     2     4    2
