@<TRIPOS>MOLECULE
/home/cewinharhar/GITHUB/reincatalyze/data/processed/docking_pred/2023-May-31-1727_sub9_nm5_bs15_s42_ex16_mel10_mts10000_k50_ec075_g099_lra3e-4_lrc3e-3/4b767e909134d43d8234de75a260ff2da56f2d30_ligand_9.pdbqt
 14 15 0 0 0
SMALL
GASTEIGER

@<TRIPOS>ATOM
      1  C          5.3700   -0.0870    1.9370 C.3     1  UNL1        0.0800
      2  C          4.4420    1.0550    1.8620 C.2     1  UNL1        0.1300
      3  C          4.7780    2.0980    0.8090 C.3     1  UNL1        0.0870
      4  O          3.4640    1.2530    2.5260 O.2     1  UNL1       -0.3000
      5  C          6.7980    0.2180    1.7050 C.3     1  UNL1        0.0430
      6  C          7.3470   -0.1060    0.3850 C.2     1  UNL1       -0.0440
      7  C          7.7880    0.8790   -0.4990 C.2     1  UNL1        0.0080
      8  C          7.4670   -1.4190   -0.0070 C.2     1  UNL1        0.0540
      9  C          8.3150    0.5020   -1.7070 C.2     1  UNL1        0.0510
     10  C          8.0120   -1.7770   -1.2490 C.2     1  UNL1        0.1660
     11  C          8.4460   -0.8040   -2.1230 C.2     1  UNL1        0.1650
     12  O          8.2510   -2.9840   -1.8950 O.2     1  UNL1       -0.4540
     13  O          8.9400   -1.4250   -3.2780 O.2     1  UNL1       -0.4540
     14  C          9.2340   -2.7510   -2.8920 C.3     1  UNL1        0.4680
@<TRIPOS>BOND
     1    13    14    1
     2    13    11    1
     3    14    12    1
     4    11     9    2
     5    11    10    1
     6    12    10    1
     7     9     7    1
     8    10     8    2
     9     7     6    2
    10     8     6    1
    11     6     5    1
    12     3     2    1
    13     5     1    1
    14     2     1    1
    15     2     4    2
