@<TRIPOS>MOLECULE
/home/cewinharhar/GITHUB/reincatalyze/data/processed/docking_pred/2023-May-31-1727_sub9_nm5_bs15_s42_ex16_mel10_mts10000_k50_ec075_g099_lra3e-4_lrc3e-3/4b767e909134d43d8234de75a260ff2da56f2d30_ligand_9.pdbqt
 14 15 0 0 0
SMALL
GASTEIGER

@<TRIPOS>ATOM
      1  C          5.7330    1.3150   -0.3550 C.3     1  UNL1        0.0800
      2  C          5.1140    1.3420    0.9820 C.2     1  UNL1        0.1300
      3  C          5.5230    0.2120    1.9110 C.3     1  UNL1        0.0870
      4  O          4.3350    2.1430    1.4160 O.2     1  UNL1       -0.3000
      5  C          7.1790    1.0120   -0.3980 C.3     1  UNL1        0.0430
      6  C          7.5770   -0.2810   -0.9610 C.2     1  UNL1       -0.0440
      7  C          7.7560   -0.4720   -2.3320 C.2     1  UNL1        0.0080
      8  C          7.8140   -1.3510   -0.1290 C.2     1  UNL1        0.0540
      9  C          8.1560   -1.7020   -2.7870 C.2     1  UNL1        0.0510
     10  C          8.2220   -2.5990   -0.6220 C.2     1  UNL1        0.1660
     11  C          8.3990   -2.7880   -1.9750 C.2     1  UNL1        0.1650
     12  O          8.5260   -3.8230   -0.0370 O.2     1  UNL1       -0.4540
     13  O          8.8050   -4.1100   -2.1960 O.2     1  UNL1       -0.4540
     14  C          9.3220   -4.5540   -0.9590 C.3     1  UNL1        0.4680
@<TRIPOS>BOND
     1     9     7    1
     2     9    11    2
     3     7     6    2
     4    13    11    1
     5    13    14    1
     6    11    10    1
     7     6     5    1
     8     6     8    1
     9    14    12    1
    10    10     8    2
    11    10    12    1
    12     5     1    1
    13     1     2    1
    14     2     4    2
    15     2     3    1
