@<TRIPOS>MOLECULE
/home/cewinharhar/GITHUB/reincatalyze/data/processed/docking_pred/2023-May-31-1727_sub9_nm5_bs15_s42_ex16_mel10_mts10000_k50_ec075_g099_lra3e-4_lrc3e-3/4b767e909134d43d8234de75a260ff2da56f2d30_ligand_9.pdbqt
 14 15 0 0 0
SMALL
GASTEIGER

@<TRIPOS>ATOM
      1  C          6.7510    0.7460    1.4120 C.3     1  UNL1        0.0800
      2  C          5.3350    1.1430    1.5190 C.2     1  UNL1        0.1300
      3  C          4.8620    2.1500    0.4840 C.3     1  UNL1        0.0870
      4  O          4.5240    0.7670    2.3170 O.2     1  UNL1       -0.3000
      5  C          7.3520    0.8350    0.0650 C.3     1  UNL1        0.0430
      6  C          7.6540   -0.4260   -0.6190 C.2     1  UNL1       -0.0440
      7  C          7.6650   -0.5340   -2.0110 C.2     1  UNL1        0.0080
      8  C          7.9670   -1.5480    0.1120 C.2     1  UNL1        0.0540
      9  C          7.9820   -1.7380   -2.5840 C.2     1  UNL1        0.0510
     10  C          8.2890   -2.7690   -0.5010 C.2     1  UNL1        0.1660
     11  C          8.2990   -2.8750   -1.8740 C.2     1  UNL1        0.1650
     12  O          8.6360   -4.0300   -0.0320 O.2     1  UNL1       -0.4540
     13  O          8.6480   -4.1860   -2.2220 O.2     1  UNL1       -0.4540
     14  C          9.3010   -4.7120   -1.0850 C.3     1  UNL1        0.4680
@<TRIPOS>BOND
     1     9     7    1
     2     9    11    2
     3    13    11    1
     4    13    14    1
     5     7     6    2
     6    11    10    1
     7    14    12    1
     8     6     5    1
     9     6     8    1
    10    10    12    1
    11    10     8    2
    12     5     1    1
    13     3     2    1
    14     1     2    1
    15     2     4    2
