@<TRIPOS>MOLECULE
/home/cewinharhar/GITHUB/reincatalyze/data/processed/docking_pred/2023-May-31-1727_sub9_nm5_bs15_s42_ex16_mel10_mts10000_k50_ec075_g099_lra3e-4_lrc3e-3/4b767e909134d43d8234de75a260ff2da56f2d30_ligand_9.pdbqt
 14 15 0 0 0
SMALL
GASTEIGER

@<TRIPOS>ATOM
      1  C          5.5450    1.8990    1.2120 C.3     1  UNL1        0.0800
      2  C          5.0450    0.7580    2.0010 C.2     1  UNL1        0.1300
      3  C          6.0210   -0.3930    2.1700 C.3     1  UNL1        0.0870
      4  O          3.9710    0.6370    2.5170 O.2     1  UNL1       -0.3000
      5  C          5.5270    1.7330   -0.2570 C.3     1  UNL1        0.0430
      6  C          6.6350    0.9880   -0.8610 C.2     1  UNL1       -0.0440
      7  C          7.9680    1.3530   -0.6700 C.2     1  UNL1        0.0080
      8  C          6.3790   -0.1280   -1.6240 C.2     1  UNL1        0.0540
      9  C          8.9560    0.5940   -1.2440 C.2     1  UNL1        0.0510
     10  C          7.4100   -0.8870   -2.1990 C.2     1  UNL1        0.1660
     11  C          8.7260   -0.5260   -2.0110 C.2     1  UNL1        0.1650
     12  O          7.4510   -2.0270   -2.9920 O.2     1  UNL1       -0.4540
     13  O          9.5440   -1.4420   -2.6850 O.2     1  UNL1       -0.4540
     14  C          8.7470   -2.5940   -2.8650 C.3     1  UNL1        0.4680
@<TRIPOS>BOND
     1    12    14    1
     2    12    10    1
     3    14    13    1
     4    13    11    1
     5    10    11    2
     6    10     8    1
     7    11     9    1
     8     8     6    2
     9     9     7    2
    10     6     7    1
    11     6     5    1
    12     5     1    1
    13     1     2    1
    14     2     3    1
    15     2     4    2
