@<TRIPOS>MOLECULE
/home/cewinharhar/GITHUB/reincatalyze/data/processed/docking_pred/2023-May-31-1727_sub9_nm5_bs15_s42_ex16_mel10_mts10000_k50_ec075_g099_lra3e-4_lrc3e-3/4c3a486d5bbb1ad3c8ce5b6da142191fd088767a_ligand_9.pdbqt
 14 15 0 0 0
SMALL
GASTEIGER

@<TRIPOS>ATOM
      1  C          5.3840   -0.0360    1.9630 C.3     1  UNL1        0.0800
      2  C          4.4250    1.0790    1.8650 C.2     1  UNL1        0.1300
      3  C          4.7440    2.1190    0.8040 C.3     1  UNL1        0.0870
      4  O          3.4350    1.2580    2.5160 O.2     1  UNL1       -0.3000
      5  C          6.7980    0.2950    1.6920 C.3     1  UNL1        0.0430
      6  C          7.3280   -0.0590    0.3720 C.2     1  UNL1       -0.0440
      7  C          7.7400    0.9070   -0.5470 C.2     1  UNL1        0.0080
      8  C          7.4600   -1.3810    0.0150 C.2     1  UNL1        0.0540
      9  C          8.2520    0.5030   -1.7530 C.2     1  UNL1        0.0510
     10  C          7.9880   -1.7660   -1.2260 C.2     1  UNL1        0.1660
     11  C          8.3940   -0.8130   -2.1340 C.2     1  UNL1        0.1650
     12  O          8.2330   -2.9880   -1.8420 O.2     1  UNL1       -0.4540
     13  O          8.8760   -1.4580   -3.2800 O.2     1  UNL1       -0.4540
     14  C          9.1950   -2.7700   -2.8630 C.3     1  UNL1        0.4680
@<TRIPOS>BOND
     1    13    14    1
     2    13    11    1
     3    14    12    1
     4    11     9    2
     5    11    10    1
     6    12    10    1
     7     9     7    1
     8    10     8    2
     9     7     6    2
    10     8     6    1
    11     6     5    1
    12     3     2    1
    13     5     1    1
    14     2     1    1
    15     2     4    2
