@<TRIPOS>MOLECULE
/home/cewinharhar/GITHUB/reincatalyze/data/processed/docking_pred/2023-May-31-1727_sub9_nm5_bs15_s42_ex16_mel10_mts10000_k50_ec075_g099_lra3e-4_lrc3e-3/4d620996829bdf69d2437cdb6940cc233521eaf3_ligand_9.pdbqt
 14 15 0 0 0
SMALL
GASTEIGER

@<TRIPOS>ATOM
      1  C          5.3840    0.0390    2.0630 C.3     1  UNL1        0.0800
      2  C          4.4750    1.1940    1.9460 C.2     1  UNL1        0.1300
      3  C          4.7830    2.1500    0.8060 C.3     1  UNL1        0.0870
      4  O          3.5330    1.4620    2.6360 O.2     1  UNL1       -0.3000
      5  C          6.8180    0.3120    1.8310 C.3     1  UNL1        0.0430
      6  C          7.3490    0.0150    0.4980 C.2     1  UNL1       -0.0440
      7  C          7.9110    1.0000   -0.3150 C.2     1  UNL1        0.0080
      8  C          7.3310   -1.2750    0.0210 C.2     1  UNL1        0.0540
      9  C          8.4140    0.6460   -1.5410 C.2     1  UNL1        0.0510
     10  C          7.8530   -1.6100   -1.2380 C.2     1  UNL1        0.1660
     11  C          8.4070   -0.6370   -2.0410 C.2     1  UNL1        0.1650
     12  O          7.9680   -2.7920   -1.9590 O.2     1  UNL1       -0.4540
     13  O          8.8480   -1.2320   -3.2290 O.2     1  UNL1       -0.4540
     14  C          8.9870   -2.6060   -2.9300 C.3     1  UNL1        0.4680
@<TRIPOS>BOND
     1    13    14    1
     2    13    11    1
     3    14    12    1
     4    11     9    2
     5    11    10    1
     6    12    10    1
     7     9     7    1
     8    10     8    2
     9     7     6    2
    10     8     6    1
    11     6     5    1
    12     3     2    1
    13     5     1    1
    14     2     1    1
    15     2     4    2
