MODEL 1
REMARK VINA RESULT:      -7.8      0.000      0.000
REMARK SMILES CC(=O)CCc1ccc2c(c1)OCO2
REMARK SMILES IDX 4 1 2 2 1 3 3 4 5 5 6 6 7 7 11 8 8 9 10 10 9 11 12 12 14 13
REMARK SMILES IDX 13 14
REMARK H PARENT
REMARK Flexibility Score: inf
ROOT
ATOM      1  C   UNL     1       4.979   1.755   0.557  1.00  0.00     0.080 C 
ENDROOT
BRANCH   1   2
ATOM      2  C   UNL     1       4.695   1.213   1.898  1.00  0.00     0.130 C 
ATOM      3  C   UNL     1       5.734   0.247   2.442  1.00  0.00     0.087 C 
ATOM      4  O   UNL     1       3.751   1.443   2.600  1.00  0.00    -0.300 OA
ENDBRANCH   1   2
BRANCH   1   5
ATOM      5  C   UNL     1       6.380   2.150   0.298  1.00  0.00     0.043 C 
BRANCH   5   6
ATOM      6  C   UNL     1       7.197   1.235  -0.505  1.00  0.00    -0.044 A 
ATOM      7  C   UNL     1       8.575   1.400  -0.648  1.00  0.00     0.008 A 
ATOM      8  C   UNL     1       6.613   0.155  -1.125  1.00  0.00     0.054 A 
ATOM      9  C   UNL     1       9.281   0.490  -1.392  1.00  0.00     0.051 A 
ATOM     10  C   UNL     1       7.360  -0.762  -1.880  1.00  0.00     0.166 A 
ATOM     11  C   UNL     1       8.720  -0.599  -2.022  1.00  0.00     0.165 A 
ATOM     12  O   UNL     1       7.050  -1.911  -2.597  1.00  0.00    -0.454 OA
ATOM     13  O   UNL     1       9.218  -1.640  -2.816  1.00  0.00    -0.454 OA
ATOM     14  C   UNL     1       8.246  -2.663  -2.742  1.00  0.00     0.468 C 
ENDBRANCH   5   6
ENDBRANCH   1   5
TORSDOF 3
ENDMDL
MODEL 2
REMARK VINA RESULT:      -7.5      1.096      1.266
REMARK SMILES CC(=O)CCc1ccc2c(c1)OCO2
REMARK SMILES IDX 4 1 2 2 1 3 3 4 5 5 6 6 7 7 11 8 8 9 10 10 9 11 12 12 14 13
REMARK SMILES IDX 13 14
REMARK H PARENT
REMARK Flexibility Score: inf
ROOT
ATOM      1  C   UNL     1       5.137   0.753   1.622  1.00  0.00     0.080 C 
ENDROOT
BRANCH   1   2
ATOM      2  C   UNL     1       6.164   0.129   2.477  1.00  0.00     0.130 C 
ATOM      3  C   UNL     1       6.391  -1.354   2.243  1.00  0.00     0.087 C 
ATOM      4  O   UNL     1       6.831   0.651   3.324  1.00  0.00    -0.300 OA
ENDBRANCH   1   2
BRANCH   1   5
ATOM      5  C   UNL     1       5.635   1.533   0.470  1.00  0.00     0.043 C 
BRANCH   5   6
ATOM      6  C   UNL     1       6.672   0.915  -0.360  1.00  0.00    -0.044 A 
ATOM      7  C   UNL     1       7.984   1.393  -0.391  1.00  0.00     0.008 A 
ATOM      8  C   UNL     1       6.376  -0.190  -1.123  1.00  0.00     0.054 A 
ATOM      9  C   UNL     1       8.910   0.749  -1.170  1.00  0.00     0.051 A 
ATOM     10  C   UNL     1       7.344  -0.831  -1.911  1.00  0.00     0.166 A 
ATOM     11  C   UNL     1       8.638  -0.359  -1.942  1.00  0.00     0.165 A 
ATOM     12  O   UNL     1       7.334  -1.932  -2.758  1.00  0.00    -0.454 OA
ATOM     13  O   UNL     1       9.393  -1.171  -2.798  1.00  0.00    -0.454 OA
ATOM     14  C   UNL     1       8.674  -2.383  -2.894  1.00  0.00     0.468 C 
ENDBRANCH   5   6
ENDBRANCH   1   5
TORSDOF 3
ENDMDL
MODEL 3
REMARK VINA RESULT:      -7.1      1.020      1.490
REMARK SMILES CC(=O)CCc1ccc2c(c1)OCO2
REMARK SMILES IDX 4 1 2 2 1 3 3 4 5 5 6 6 7 7 11 8 8 9 10 10 9 11 12 12 14 13
REMARK SMILES IDX 13 14
REMARK H PARENT
REMARK Flexibility Score: inf
ROOT
ATOM      1  C   UNL     1       5.384   0.039   2.063  1.00  0.00     0.080 C 
ENDROOT
BRANCH   1   2
ATOM      2  C   UNL     1       4.475   1.194   1.946  1.00  0.00     0.130 C 
ATOM      3  C   UNL     1       4.783   2.150   0.806  1.00  0.00     0.087 C 
ATOM      4  O   UNL     1       3.533   1.462   2.636  1.00  0.00    -0.300 OA
ENDBRANCH   1   2
BRANCH   1   5
ATOM      5  C   UNL     1       6.818   0.312   1.831  1.00  0.00     0.043 C 
BRANCH   5   6
ATOM      6  C   UNL     1       7.349   0.015   0.498  1.00  0.00    -0.044 A 
ATOM      7  C   UNL     1       7.911   1.000  -0.315  1.00  0.00     0.008 A 
ATOM      8  C   UNL     1       7.331  -1.275   0.021  1.00  0.00     0.054 A 
ATOM      9  C   UNL     1       8.414   0.646  -1.541  1.00  0.00     0.051 A 
ATOM     10  C   UNL     1       7.853  -1.610  -1.238  1.00  0.00     0.166 A 
ATOM     11  C   UNL     1       8.407  -0.637  -2.041  1.00  0.00     0.165 A 
ATOM     12  O   UNL     1       7.968  -2.792  -1.959  1.00  0.00    -0.454 OA
ATOM     13  O   UNL     1       8.848  -1.232  -3.229  1.00  0.00    -0.454 OA
ATOM     14  C   UNL     1       8.987  -2.606  -2.930  1.00  0.00     0.468 C 
ENDBRANCH   5   6
ENDBRANCH   1   5
TORSDOF 3
ENDMDL
MODEL 4
REMARK VINA RESULT:      -7.1      1.641      1.959
REMARK SMILES CC(=O)CCc1ccc2c(c1)OCO2
REMARK SMILES IDX 4 1 2 2 1 3 3 4 5 5 6 6 7 7 11 8 8 9 10 10 9 11 12 12 14 13
REMARK SMILES IDX 13 14
REMARK H PARENT
REMARK Flexibility Score: inf
ROOT
ATOM      1  C   UNL     1       5.383   1.414   0.262  1.00  0.00     0.080 C 
ENDROOT
BRANCH   1   2
ATOM      2  C   UNL     1       5.127   1.403   1.714  1.00  0.00     0.130 C 
ATOM      3  C   UNL     1       6.362   1.295   2.591  1.00  0.00     0.087 C 
ATOM      4  O   UNL     1       4.070   1.469   2.275  1.00  0.00    -0.300 OA
ENDBRANCH   1   2
BRANCH   1   5
ATOM      5  C   UNL     1       6.798   1.304  -0.151  1.00  0.00     0.043 C 
BRANCH   5   6
ATOM      6  C   UNL     1       7.227   0.031  -0.738  1.00  0.00    -0.044 A 
ATOM      7  C   UNL     1       7.378  -0.139  -2.115  1.00  0.00     0.008 A 
ATOM      8  C   UNL     1       7.524  -1.037   0.076  1.00  0.00     0.054 A 
ATOM      9  C   UNL     1       7.810  -1.349  -2.593  1.00  0.00     0.051 A 
ATOM     10  C   UNL     1       7.965  -2.265  -0.441  1.00  0.00     0.166 A 
ATOM     11  C   UNL     1       8.113  -2.433  -1.800  1.00  0.00     0.165 A 
ATOM     12  O   UNL     1       8.328  -3.482   0.122  1.00  0.00    -0.454 OA
ATOM     13  O   UNL     1       8.561  -3.738  -2.046  1.00  0.00    -0.454 OA
ATOM     14  C   UNL     1       9.126  -4.174  -0.827  1.00  0.00     0.468 C 
ENDBRANCH   5   6
ENDBRANCH   1   5
TORSDOF 3
ENDMDL
MODEL 5
REMARK VINA RESULT:      -7.0      1.870      2.389
REMARK SMILES CC(=O)CCc1ccc2c(c1)OCO2
REMARK SMILES IDX 4 1 2 2 1 3 3 4 5 5 6 6 7 7 11 8 8 9 10 10 9 11 12 12 14 13
REMARK SMILES IDX 13 14
REMARK H PARENT
REMARK Flexibility Score: inf
ROOT
ATOM      1  C   UNL     1       5.759   0.229   2.184  1.00  0.00     0.080 C 
ENDROOT
BRANCH   1   2
ATOM      2  C   UNL     1       4.730   1.247   1.904  1.00  0.00     0.130 C 
ATOM      3  C   UNL     1       4.979   2.102   0.673  1.00  0.00     0.087 C 
ATOM      4  O   UNL     1       3.732   1.474   2.527  1.00  0.00    -0.300 OA
ENDBRANCH   1   2
BRANCH   1   5
ATOM      5  C   UNL     1       7.040   0.383   1.463  1.00  0.00     0.043 C 
BRANCH   5   6
ATOM      6  C   UNL     1       7.352  -0.610   0.431  1.00  0.00    -0.044 A 
ATOM      7  C   UNL     1       7.188  -0.346  -0.930  1.00  0.00     0.008 A 
ATOM      8  C   UNL     1       7.850  -1.842   0.788  1.00  0.00     0.054 A 
ATOM      9  C   UNL     1       7.526  -1.312  -1.842  1.00  0.00     0.051 A 
ATOM     10  C   UNL     1       8.187  -2.813  -0.167  1.00  0.00     0.166 A 
ATOM     11  C   UNL     1       8.025  -2.552  -1.509  1.00  0.00     0.165 A 
ATOM     12  O   UNL     1       8.696  -4.104  -0.101  1.00  0.00    -0.454 OA
ATOM     13  O   UNL     1       8.433  -3.676  -2.239  1.00  0.00    -0.454 OA
ATOM     14  C   UNL     1       9.270  -4.405  -1.365  1.00  0.00     0.468 C 
ENDBRANCH   5   6
ENDBRANCH   1   5
TORSDOF 3
ENDMDL
