@<TRIPOS>MOLECULE
/home/cewinharhar/GITHUB/reincatalyze/data/processed/docking_pred/2023-May-31-1727_sub9_nm5_bs15_s42_ex16_mel10_mts10000_k50_ec075_g099_lra3e-4_lrc3e-3/4d620996829bdf69d2437cdb6940cc233521eaf3_ligand_9.pdbqt
 14 15 0 0 0
SMALL
GASTEIGER

@<TRIPOS>ATOM
      1  C          5.7590    0.2290    2.1840 C.3     1  UNL1        0.0800
      2  C          4.7300    1.2470    1.9040 C.2     1  UNL1        0.1300
      3  C          4.9790    2.1020    0.6730 C.3     1  UNL1        0.0870
      4  O          3.7320    1.4740    2.5270 O.2     1  UNL1       -0.3000
      5  C          7.0400    0.3830    1.4630 C.3     1  UNL1        0.0430
      6  C          7.3520   -0.6100    0.4310 C.2     1  UNL1       -0.0440
      7  C          7.1880   -0.3460   -0.9300 C.2     1  UNL1        0.0080
      8  C          7.8500   -1.8420    0.7880 C.2     1  UNL1        0.0540
      9  C          7.5260   -1.3120   -1.8420 C.2     1  UNL1        0.0510
     10  C          8.1870   -2.8130   -0.1670 C.2     1  UNL1        0.1660
     11  C          8.0250   -2.5520   -1.5090 C.2     1  UNL1        0.1650
     12  O          8.6960   -4.1040   -0.1010 O.2     1  UNL1       -0.4540
     13  O          8.4330   -3.6760   -2.2390 O.2     1  UNL1       -0.4540
     14  C          9.2700   -4.4050   -1.3650 C.3     1  UNL1        0.4680
@<TRIPOS>BOND
     1    13    11    1
     2    13    14    1
     3     9    11    2
     4     9     7    1
     5    11    10    1
     6    14    12    1
     7     7     6    2
     8    10    12    1
     9    10     8    2
    10     6     8    1
    11     6     5    1
    12     3     2    1
    13     5     1    1
    14     2     1    1
    15     2     4    2
