@<TRIPOS>MOLECULE
/home/cewinharhar/GITHUB/reincatalyze/data/processed/docking_pred/2023-May-31-1727_sub9_nm5_bs15_s42_ex16_mel10_mts10000_k50_ec075_g099_lra3e-4_lrc3e-3/4d620996829bdf69d2437cdb6940cc233521eaf3_ligand_9.pdbqt
 14 15 0 0 0
SMALL
GASTEIGER

@<TRIPOS>ATOM
      1  C          4.9790    1.7550    0.5570 C.3     1  UNL1        0.0800
      2  C          4.6950    1.2130    1.8980 C.2     1  UNL1        0.1300
      3  C          5.7340    0.2470    2.4420 C.3     1  UNL1        0.0870
      4  O          3.7510    1.4430    2.6000 O.2     1  UNL1       -0.3000
      5  C          6.3800    2.1500    0.2980 C.3     1  UNL1        0.0430
      6  C          7.1970    1.2350   -0.5050 C.2     1  UNL1       -0.0440
      7  C          8.5750    1.4000   -0.6480 C.2     1  UNL1        0.0080
      8  C          6.6130    0.1550   -1.1250 C.2     1  UNL1        0.0540
      9  C          9.2810    0.4900   -1.3920 C.2     1  UNL1        0.0510
     10  C          7.3600   -0.7620   -1.8800 C.2     1  UNL1        0.1660
     11  C          8.7200   -0.5990   -2.0220 C.2     1  UNL1        0.1650
     12  O          7.0500   -1.9110   -2.5970 O.2     1  UNL1       -0.4540
     13  O          9.2180   -1.6400   -2.8160 O.2     1  UNL1       -0.4540
     14  C          8.2460   -2.6630   -2.7420 C.3     1  UNL1        0.4680
@<TRIPOS>BOND
     1    13    14    1
     2    13    11    1
     3    14    12    1
     4    12    10    1
     5    11    10    2
     6    11     9    1
     7    10     8    1
     8     9     7    2
     9     8     6    2
    10     7     6    1
    11     6     5    1
    12     5     1    1
    13     1     2    1
    14     2     3    1
    15     2     4    2
