@<TRIPOS>MOLECULE
/home/cewinharhar/GITHUB/reincatalyze/data/processed/docking_pred/2023-May-31-1727_sub9_nm5_bs15_s42_ex16_mel10_mts10000_k50_ec075_g099_lra3e-4_lrc3e-3/4d620996829bdf69d2437cdb6940cc233521eaf3_ligand_9.pdbqt
 14 15 0 0 0
SMALL
GASTEIGER

@<TRIPOS>ATOM
      1  C          5.3830    1.4140    0.2620 C.3     1  UNL1        0.0800
      2  C          5.1270    1.4030    1.7140 C.2     1  UNL1        0.1300
      3  C          6.3620    1.2950    2.5910 C.3     1  UNL1        0.0870
      4  O          4.0700    1.4690    2.2750 O.2     1  UNL1       -0.3000
      5  C          6.7980    1.3040   -0.1510 C.3     1  UNL1        0.0430
      6  C          7.2270    0.0310   -0.7380 C.2     1  UNL1       -0.0440
      7  C          7.3780   -0.1390   -2.1150 C.2     1  UNL1        0.0080
      8  C          7.5240   -1.0370    0.0760 C.2     1  UNL1        0.0540
      9  C          7.8100   -1.3490   -2.5930 C.2     1  UNL1        0.0510
     10  C          7.9650   -2.2650   -0.4410 C.2     1  UNL1        0.1660
     11  C          8.1130   -2.4330   -1.8000 C.2     1  UNL1        0.1650
     12  O          8.3280   -3.4820    0.1220 O.2     1  UNL1       -0.4540
     13  O          8.5610   -3.7380   -2.0460 O.2     1  UNL1       -0.4540
     14  C          9.1260   -4.1740   -0.8270 C.3     1  UNL1        0.4680
@<TRIPOS>BOND
     1     9     7    1
     2     9    11    2
     3     7     6    2
     4    13    11    1
     5    13    14    1
     6    11    10    1
     7    14    12    1
     8     6     5    1
     9     6     8    1
    10    10     8    2
    11    10    12    1
    12     5     1    1
    13     1     2    1
    14     2     4    2
    15     2     3    1
