@<TRIPOS>MOLECULE
/home/cewinharhar/GITHUB/reincatalyze/data/processed/docking_pred/2023-May-31-1727_sub9_nm5_bs15_s42_ex16_mel10_mts10000_k50_ec075_g099_lra3e-4_lrc3e-3/4d620996829bdf69d2437cdb6940cc233521eaf3_ligand_9.pdbqt
 14 15 0 0 0
SMALL
GASTEIGER

@<TRIPOS>ATOM
      1  C          5.1370    0.7530    1.6220 C.3     1  UNL1        0.0800
      2  C          6.1640    0.1290    2.4770 C.2     1  UNL1        0.1300
      3  C          6.3910   -1.3540    2.2430 C.3     1  UNL1        0.0870
      4  O          6.8310    0.6510    3.3240 O.2     1  UNL1       -0.3000
      5  C          5.6350    1.5330    0.4700 C.3     1  UNL1        0.0430
      6  C          6.6720    0.9150   -0.3600 C.2     1  UNL1       -0.0440
      7  C          7.9840    1.3930   -0.3910 C.2     1  UNL1        0.0080
      8  C          6.3760   -0.1900   -1.1230 C.2     1  UNL1        0.0540
      9  C          8.9100    0.7490   -1.1700 C.2     1  UNL1        0.0510
     10  C          7.3440   -0.8310   -1.9110 C.2     1  UNL1        0.1660
     11  C          8.6380   -0.3590   -1.9420 C.2     1  UNL1        0.1650
     12  O          7.3340   -1.9320   -2.7580 O.2     1  UNL1       -0.4540
     13  O          9.3930   -1.1710   -2.7980 O.2     1  UNL1       -0.4540
     14  C          8.6740   -2.3830   -2.8940 C.3     1  UNL1        0.4680
@<TRIPOS>BOND
     1    14    13    1
     2    14    12    1
     3    13    11    1
     4    12    10    1
     5    11    10    2
     6    11     9    1
     7    10     8    1
     8     9     7    2
     9     8     6    2
    10     7     6    1
    11     6     5    1
    12     5     1    1
    13     1     2    1
    14     3     2    1
    15     2     4    2
