@<TRIPOS>MOLECULE
/home/cewinharhar/GITHUB/reincatalyze/data/processed/docking_pred/2023-May-31-1727_sub9_nm5_bs15_s42_ex16_mel10_mts10000_k50_ec075_g099_lra3e-4_lrc3e-3/4dfe2a4ebf2cd2c58b23ebebd9c83ff91bb12173_ligand_9.pdbqt
 14 15 0 0 0
SMALL
GASTEIGER

@<TRIPOS>ATOM
      1  C          6.2270    1.2440    0.8860 C.3     1  UNL1        0.0800
      2  C          5.5510    0.4420    1.9210 C.2     1  UNL1        0.1300
      3  C          6.3210   -0.7750    2.4060 C.3     1  UNL1        0.0870
      4  O          4.4790    0.6360    2.4190 O.2     1  UNL1       -0.3000
      5  C          5.8790    0.9250   -0.5150 C.3     1  UNL1        0.0430
      6  C          6.8520    0.1470   -1.2860 C.2     1  UNL1       -0.0440
      7  C          7.7910    0.7510   -2.1260 C.2     1  UNL1        0.0080
      8  C          6.8810   -1.2240   -1.1760 C.2     1  UNL1        0.0540
      9  C          8.6890   -0.0370   -2.7970 C.2     1  UNL1        0.0510
     10  C          7.8130   -2.0060   -1.8750 C.2     1  UNL1        0.1660
     11  C          8.7380   -1.4100   -2.7030 C.2     1  UNL1        0.1650
     12  O          8.0700   -3.3690   -1.9560 O.2     1  UNL1       -0.4540
     13  O          9.5400   -2.4070   -3.2730 O.2     1  UNL1       -0.4540
     14  C          9.4010   -3.5280   -2.4250 C.3     1  UNL1        0.4680
@<TRIPOS>BOND
     1    13    11    1
     2    13    14    1
     3     9    11    2
     4     9     7    1
     5    11    10    1
     6    14    12    1
     7     7     6    2
     8    12    10    1
     9    10     8    2
    10     6     8    1
    11     6     5    1
    12     5     1    1
    13     1     2    1
    14     2     3    1
    15     2     4    2
