@<TRIPOS>MOLECULE
/home/cewinharhar/GITHUB/reincatalyze/data/processed/docking_pred/2023-May-31-1727_sub9_nm5_bs15_s42_ex16_mel10_mts10000_k50_ec075_g099_lra3e-4_lrc3e-3/4dfe2a4ebf2cd2c58b23ebebd9c83ff91bb12173_ligand_9.pdbqt
 14 15 0 0 0
SMALL
GASTEIGER

@<TRIPOS>ATOM
      1  C          5.8000    1.3540   -0.2770 C.3     1  UNL1        0.0800
      2  C          5.1550    1.3360    1.0480 C.2     1  UNL1        0.1300
      3  C          5.4860    0.1330    1.9160 C.3     1  UNL1        0.0870
      4  O          4.4090    2.1500    1.5140 O.2     1  UNL1       -0.3000
      5  C          7.2310    0.9830   -0.3100 C.3     1  UNL1        0.0430
      6  C          7.5730   -0.3180   -0.8900 C.2     1  UNL1       -0.0440
      7  C          7.6510   -0.5210   -2.2690 C.2     1  UNL1        0.0080
      8  C          7.8570   -1.3850   -0.0690 C.2     1  UNL1        0.0540
      9  C          8.0030   -1.7580   -2.7420 C.2     1  UNL1        0.0510
     10  C          8.2150   -2.6420   -0.5810 C.2     1  UNL1        0.1660
     11  C          8.2920   -2.8410   -1.9420 C.2     1  UNL1        0.1650
     12  O          8.5460   -3.8640   -0.0100 O.2     1  UNL1       -0.4540
     13  O          8.6660   -4.1700   -2.1810 O.2     1  UNL1       -0.4540
     14  C          9.2650   -4.6110   -0.9810 C.3     1  UNL1        0.4680
@<TRIPOS>BOND
     1     9     7    1
     2     9    11    2
     3     7     6    2
     4    13    11    1
     5    13    14    1
     6    11    10    1
     7    14    12    1
     8     6     5    1
     9     6     8    1
    10    10     8    2
    11    10    12    1
    12     5     1    1
    13     1     2    1
    14     2     4    2
    15     2     3    1
