@<TRIPOS>MOLECULE
/home/cewinharhar/GITHUB/reincatalyze/data/processed/docking_pred/2023-May-31-1727_sub9_nm5_bs15_s42_ex16_mel10_mts10000_k50_ec075_g099_lra3e-4_lrc3e-3/4dfe2a4ebf2cd2c58b23ebebd9c83ff91bb12173_ligand_9.pdbqt
 14 15 0 0 0
SMALL
GASTEIGER

@<TRIPOS>ATOM
      1  C          5.6000    1.8880    1.2540 C.3     1  UNL1        0.0800
      2  C          5.0350    0.7530    2.0050 C.2     1  UNL1        0.1300
      3  C          5.9610   -0.4390    2.1760 C.3     1  UNL1        0.0870
      4  O          3.9430    0.6620    2.4890 O.2     1  UNL1       -0.3000
      5  C          5.5870    1.7670   -0.2190 C.3     1  UNL1        0.0430
      6  C          6.6750    1.0050   -0.8390 C.2     1  UNL1       -0.0440
      7  C          8.0130    1.3780   -0.7070 C.2     1  UNL1        0.0080
      8  C          6.3960   -0.1340   -1.5570 C.2     1  UNL1        0.0540
      9  C          8.9820    0.6040   -1.2910 C.2     1  UNL1        0.0510
     10  C          7.4070   -0.9090   -2.1450 C.2     1  UNL1        0.1660
     11  C          8.7280   -0.5400   -2.0150 C.2     1  UNL1        0.1650
     12  O          7.4230   -2.0730   -2.9030 O.2     1  UNL1       -0.4540
     13  O          9.5250   -1.4750   -2.6880 O.2     1  UNL1       -0.4540
     14  C          8.7240   -2.6330   -2.8040 C.3     1  UNL1        0.4680
@<TRIPOS>BOND
     1    12    14    1
     2    12    10    1
     3    14    13    1
     4    13    11    1
     5    10    11    2
     6    10     8    1
     7    11     9    1
     8     8     6    2
     9     9     7    2
    10     6     7    1
    11     6     5    1
    12     5     1    1
    13     1     2    1
    14     2     3    1
    15     2     4    2
