@<TRIPOS>MOLECULE
/home/cewinharhar/GITHUB/reincatalyze/data/processed/docking_pred/2023-May-31-1727_sub9_nm5_bs15_s42_ex16_mel10_mts10000_k50_ec075_g099_lra3e-4_lrc3e-3/4dfe2a4ebf2cd2c58b23ebebd9c83ff91bb12173_ligand_9.pdbqt
 14 15 0 0 0
SMALL
GASTEIGER

@<TRIPOS>ATOM
      1  C          6.8310    1.0310    1.3420 C.3     1  UNL1        0.0800
      2  C          5.3660    1.1720    1.4210 C.2     1  UNL1        0.1300
      3  C          4.7530    2.1490    0.4320 C.3     1  UNL1        0.0870
      4  O          4.6120    0.6130    2.1660 O.2     1  UNL1       -0.3000
      5  C          7.4190    1.0840   -0.0130 C.3     1  UNL1        0.0430
      6  C          7.6820   -0.1940   -0.6800 C.2     1  UNL1       -0.0440
      7  C          7.7230   -0.3120   -2.0710 C.2     1  UNL1        0.0080
      8  C          7.9260   -1.3230    0.0660 C.2     1  UNL1        0.0540
      9  C          8.0020   -1.5330   -2.6270 C.2     1  UNL1        0.0510
     10  C          8.2090   -2.5610   -0.5300 C.2     1  UNL1        0.1660
     11  C          8.2500   -2.6780   -1.9020 C.2     1  UNL1        0.1650
     12  O          8.4880   -3.8330   -0.0440 O.2     1  UNL1       -0.4540
     13  O          8.5500   -4.0060   -2.2320 O.2     1  UNL1       -0.4540
     14  C          9.1490   -4.5520   -1.0750 C.3     1  UNL1        0.4680
@<TRIPOS>BOND
     1     9     7    1
     2     9    11    2
     3    13    11    1
     4    13    14    1
     5     7     6    2
     6    11    10    1
     7    14    12    1
     8     6     5    1
     9     6     8    1
    10    10    12    1
    11    10     8    2
    12     5     1    1
    13     3     2    1
    14     1     2    1
    15     2     4    2
