@<TRIPOS>MOLECULE
/home/cewinharhar/GITHUB/reincatalyze/data/processed/docking_pred/2023-May-31-1727_sub9_nm5_bs15_s42_ex16_mel10_mts10000_k50_ec075_g099_lra3e-4_lrc3e-3/4dfe2a4ebf2cd2c58b23ebebd9c83ff91bb12173_ligand_9.pdbqt
 14 15 0 0 0
SMALL
GASTEIGER

@<TRIPOS>ATOM
      1  C          5.3480   -0.0160    1.9950 C.3     1  UNL1        0.0800
      2  C          4.3940    1.1000    1.8690 C.2     1  UNL1        0.1300
      3  C          4.7260    2.1220    0.7950 C.3     1  UNL1        0.0870
      4  O          3.3980    1.2920    2.5070 O.2     1  UNL1       -0.3000
      5  C          6.7700    0.3130    1.7620 C.3     1  UNL1        0.0430
      6  C          7.3220    0.0020    0.4400 C.2     1  UNL1       -0.0440
      7  C          7.8760    0.9830   -0.3840 C.2     1  UNL1        0.0080
      8  C          7.3320   -1.2960   -0.0140 C.2     1  UNL1        0.0540
      9  C          8.4000    0.6170   -1.5970 C.2     1  UNL1        0.0510
     10  C          7.8750   -1.6430   -1.2610 C.2     1  UNL1        0.1660
     11  C          8.4210   -0.6750   -2.0740 C.2     1  UNL1        0.1650
     12  O          8.0190   -2.8350   -1.9600 O.2     1  UNL1       -0.4540
     13  O          8.8860   -1.2830   -3.2470 O.2     1  UNL1       -0.4540
     14  C          9.0460   -2.6480   -2.9220 C.3     1  UNL1        0.4680
@<TRIPOS>BOND
     1    13    14    1
     2    13    11    1
     3    14    12    1
     4    11     9    2
     5    11    10    1
     6    12    10    1
     7     9     7    1
     8    10     8    2
     9     7     6    2
    10     8     6    1
    11     6     5    1
    12     3     2    1
    13     5     1    1
    14     2     1    1
    15     2     4    2
