MODEL 1
REMARK VINA RESULT:      -7.5      0.000      0.000
REMARK SMILES CC(=O)CCc1ccc2c(c1)OCO2
REMARK SMILES IDX 4 1 2 2 1 3 3 4 5 5 6 6 7 7 11 8 8 9 10 10 9 11 12 12 14 13
REMARK SMILES IDX 13 14
REMARK H PARENT
REMARK Flexibility Score: inf
ROOT
ATOM      1  C   UNL     1       5.804   1.672   1.169  1.00  0.00     0.080 C 
ENDROOT
BRANCH   1   2
ATOM      2  C   UNL     1       5.239   0.592   1.999  1.00  0.00     0.130 C 
ATOM      3  C   UNL     1       6.156  -0.596   2.232  1.00  0.00     0.087 C 
ATOM      4  O   UNL     1       4.154   0.545   2.505  1.00  0.00    -0.300 OA
ENDBRANCH   1   2
BRANCH   1   5
ATOM      5  C   UNL     1       5.710   1.485  -0.294  1.00  0.00     0.043 C 
BRANCH   5   6
ATOM      6  C   UNL     1       6.790   0.739  -0.946  1.00  0.00    -0.044 A 
ATOM      7  C   UNL     1       8.118   1.169  -0.912  1.00  0.00     0.008 A 
ATOM      8  C   UNL     1       6.517  -0.443  -1.594  1.00  0.00     0.054 A 
ATOM      9  C   UNL     1       9.081   0.407  -1.520  1.00  0.00     0.051 A 
ATOM     10  C   UNL     1       7.524  -1.204  -2.208  1.00  0.00     0.166 A 
ATOM     11  C   UNL     1       8.833  -0.779  -2.175  1.00  0.00     0.165 A 
ATOM     12  O   UNL     1       7.543  -2.401  -2.914  1.00  0.00    -0.454 OA
ATOM     13  O   UNL     1       9.627  -1.712  -2.854  1.00  0.00    -0.454 OA
ATOM     14  C   UNL     1       8.870  -2.905  -2.870  1.00  0.00     0.468 C 
ENDBRANCH   5   6
ENDBRANCH   1   5
TORSDOF 3
ENDMDL
MODEL 2
REMARK VINA RESULT:      -7.0      1.701      2.092
REMARK SMILES CC(=O)CCc1ccc2c(c1)OCO2
REMARK SMILES IDX 4 1 2 2 1 3 3 4 5 5 6 6 7 7 11 8 8 9 10 10 9 11 12 12 14 13
REMARK SMILES IDX 13 14
REMARK H PARENT
REMARK Flexibility Score: inf
ROOT
ATOM      1  C   UNL     1       5.699   1.376  -0.300  1.00  0.00     0.080 C 
ENDROOT
BRANCH   1   2
ATOM      2  C   UNL     1       5.070   1.331   1.033  1.00  0.00     0.130 C 
ATOM      3  C   UNL     1       5.512   0.182   1.922  1.00  0.00     0.087 C 
ATOM      4  O   UNL     1       4.261   2.088   1.490  1.00  0.00    -0.300 OA
ENDBRANCH   1   2
BRANCH   1   5
ATOM      5  C   UNL     1       7.142   1.062  -0.350  1.00  0.00     0.043 C 
BRANCH   5   6
ATOM      6  C   UNL     1       7.528  -0.230  -0.923  1.00  0.00    -0.044 A 
ATOM      7  C   UNL     1       7.669  -0.421  -2.299  1.00  0.00     0.008 A 
ATOM      8  C   UNL     1       7.791  -1.299  -0.098  1.00  0.00     0.054 A 
ATOM      9  C   UNL     1       8.059  -1.650  -2.764  1.00  0.00     0.051 A 
ATOM     10  C   UNL     1       8.189  -2.546  -0.602  1.00  0.00     0.166 A 
ATOM     11  C   UNL     1       8.328  -2.735  -1.959  1.00  0.00     0.165 A 
ATOM     12  O   UNL     1       8.513  -3.769  -0.026  1.00  0.00    -0.454 OA
ATOM     13  O   UNL     1       8.731  -4.056  -2.191  1.00  0.00    -0.454 OA
ATOM     14  C   UNL     1       9.284  -4.498  -0.969  1.00  0.00     0.468 C 
ENDBRANCH   5   6
ENDBRANCH   1   5
TORSDOF 3
ENDMDL
MODEL 3
REMARK VINA RESULT:      -6.7      1.860      2.395
REMARK SMILES CC(=O)CCc1ccc2c(c1)OCO2
REMARK SMILES IDX 4 1 2 2 1 3 3 4 5 5 6 6 7 7 11 8 8 9 10 10 9 11 12 12 14 13
REMARK SMILES IDX 13 14
REMARK H PARENT
REMARK Flexibility Score: inf
ROOT
ATOM      1  C   UNL     1       5.538   0.007   2.060  1.00  0.00     0.080 C 
ENDROOT
BRANCH   1   2
ATOM      2  C   UNL     1       4.580   1.106   1.839  1.00  0.00     0.130 C 
ATOM      3  C   UNL     1       4.942   2.070   0.723  1.00  0.00     0.087 C 
ATOM      4  O   UNL     1       3.560   1.322   2.430  1.00  0.00    -0.300 OA
ENDBRANCH   1   2
BRANCH   1   5
ATOM      5  C   UNL     1       6.882   0.188   1.473  1.00  0.00     0.043 C 
BRANCH   5   6
ATOM      6  C   UNL     1       7.295  -0.763   0.437  1.00  0.00    -0.044 A 
ATOM      7  C   UNL     1       7.235  -0.455  -0.923  1.00  0.00     0.008 A 
ATOM      8  C   UNL     1       7.786  -1.998   0.793  1.00  0.00     0.054 A 
ATOM      9  C   UNL     1       7.663  -1.383  -1.836  1.00  0.00     0.051 A 
ATOM     10  C   UNL     1       8.218  -2.929  -0.164  1.00  0.00     0.166 A 
ATOM     11  C   UNL     1       8.159  -2.625  -1.506  1.00  0.00     0.165 A 
ATOM     12  O   UNL     1       8.745  -4.214  -0.101  1.00  0.00    -0.454 OA
ATOM     13  O   UNL     1       8.645  -3.716  -2.237  1.00  0.00    -0.454 OA
ATOM     14  C   UNL     1       9.424  -4.460  -1.323  1.00  0.00     0.468 C 
ENDBRANCH   5   6
ENDBRANCH   1   5
TORSDOF 3
ENDMDL
MODEL 4
REMARK VINA RESULT:      -6.7      1.093      1.593
REMARK SMILES CC(=O)CCc1ccc2c(c1)OCO2
REMARK SMILES IDX 4 1 2 2 1 3 3 4 5 5 6 6 7 7 11 8 8 9 10 10 9 11 12 12 14 13
REMARK SMILES IDX 13 14
REMARK H PARENT
REMARK Flexibility Score: inf
ROOT
ATOM      1  C   UNL     1       5.346  -0.030   2.005  1.00  0.00     0.080 C 
ENDROOT
BRANCH   1   2
ATOM      2  C   UNL     1       4.396   1.089   1.875  1.00  0.00     0.130 C 
ATOM      3  C   UNL     1       4.741   2.114   0.808  1.00  0.00     0.087 C 
ATOM      4  O   UNL     1       3.395   1.281   2.505  1.00  0.00    -0.300 OA
ENDBRANCH   1   2
BRANCH   1   5
ATOM      5  C   UNL     1       6.770   0.295   1.781  1.00  0.00     0.043 C 
BRANCH   5   6
ATOM      6  C   UNL     1       7.329  -0.014   0.462  1.00  0.00    -0.044 A 
ATOM      7  C   UNL     1       7.897   0.966  -0.354  1.00  0.00     0.008 A 
ATOM      8  C   UNL     1       7.332  -1.310   0.002  1.00  0.00     0.054 A 
ATOM      9  C   UNL     1       8.426   0.601  -1.565  1.00  0.00     0.051 A 
ATOM     10  C   UNL     1       7.881  -1.656  -1.242  1.00  0.00     0.166 A 
ATOM     11  C   UNL     1       8.440  -0.689  -2.048  1.00  0.00     0.165 A 
ATOM     12  O   UNL     1       8.021  -2.847  -1.945  1.00  0.00    -0.454 OA
ATOM     13  O   UNL     1       8.910  -1.295  -3.220  1.00  0.00    -0.454 OA
ATOM     14  C   UNL     1       9.056  -2.663  -2.900  1.00  0.00     0.468 C 
ENDBRANCH   5   6
ENDBRANCH   1   5
TORSDOF 3
ENDMDL
MODEL 5
REMARK VINA RESULT:      -6.5      1.519      2.246
REMARK SMILES CC(=O)CCc1ccc2c(c1)OCO2
REMARK SMILES IDX 4 1 2 2 1 3 3 4 5 5 6 6 7 7 11 8 8 9 10 10 9 11 12 12 14 13
REMARK SMILES IDX 13 14
REMARK H PARENT
REMARK Flexibility Score: inf
ROOT
ATOM      1  C   UNL     1       5.330  -0.081   2.212  1.00  0.00     0.080 C 
ENDROOT
BRANCH   1   2
ATOM      2  C   UNL     1       4.448   1.062   1.913  1.00  0.00     0.130 C 
ATOM      3  C   UNL     1       4.921   1.973   0.793  1.00  0.00     0.087 C 
ATOM      4  O   UNL     1       3.414   1.351   2.445  1.00  0.00    -0.300 OA
ENDBRANCH   1   2
BRANCH   1   5
ATOM      5  C   UNL     1       6.765   0.109   1.914  1.00  0.00     0.043 C 
BRANCH   5   6
ATOM      6  C   UNL     1       7.330  -0.675   0.812  1.00  0.00    -0.044 A 
ATOM      7  C   UNL     1       7.639  -2.030   0.944  1.00  0.00     0.008 A 
ATOM      8  C   UNL     1       7.547  -0.086  -0.412  1.00  0.00     0.054 A 
ATOM      9  C   UNL     1       8.139  -2.708  -0.137  1.00  0.00     0.051 A 
ATOM     10  C   UNL     1       8.060  -0.805  -1.502  1.00  0.00     0.166 A 
ATOM     11  C   UNL     1       8.366  -2.142  -1.371  1.00  0.00     0.165 A 
ATOM     12  O   UNL     1       8.374  -0.483  -2.817  1.00  0.00    -0.454 OA
ATOM     13  O   UNL     1       8.856  -2.614  -2.596  1.00  0.00    -0.454 OA
ATOM     14  C   UNL     1       8.396  -1.692  -3.562  1.00  0.00     0.468 C 
ENDBRANCH   5   6
ENDBRANCH   1   5
TORSDOF 3
ENDMDL
