@<TRIPOS>MOLECULE
/home/cewinharhar/GITHUB/reincatalyze/data/processed/docking_pred/2023-May-31-1727_sub9_nm5_bs15_s42_ex16_mel10_mts10000_k50_ec075_g099_lra3e-4_lrc3e-3/4f8338f1f65f27d68c3e57a6b5041c9c59ec4c55_ligand_9.pdbqt
 14 15 0 0 0
SMALL
GASTEIGER

@<TRIPOS>ATOM
      1  C          5.7220    1.3300   -0.3550 C.3     1  UNL1        0.0800
      2  C          5.1250    1.3570    0.9920 C.2     1  UNL1        0.1300
      3  C          5.5820    0.2520    1.9280 C.3     1  UNL1        0.0870
      4  O          4.3310    2.1410    1.4290 O.2     1  UNL1       -0.3000
      5  C          7.1660    1.0220   -0.4220 C.3     1  UNL1        0.0430
      6  C          7.5480   -0.2840   -0.9670 C.2     1  UNL1       -0.0440
      7  C          7.6740   -0.5090   -2.3390 C.2     1  UNL1        0.0080
      8  C          7.8240   -1.3310   -0.1190 C.2     1  UNL1        0.0540
      9  C          8.0620   -1.7480   -2.7790 C.2     1  UNL1        0.0510
     10  C          8.2200   -2.5890   -0.5960 C.2     1  UNL1        0.1660
     11  C          8.3440   -2.8110   -1.9500 C.2     1  UNL1        0.1650
     12  O          8.5540   -3.7960    0.0060 O.2     1  UNL1       -0.4540
     13  O          8.7480   -4.1370   -2.1540 O.2     1  UNL1       -0.4540
     14  C          9.3170   -4.5470   -0.9270 C.3     1  UNL1        0.4680
@<TRIPOS>BOND
     1     9     7    1
     2     9    11    2
     3     7     6    2
     4    13    11    1
     5    13    14    1
     6    11    10    1
     7     6     5    1
     8     6     8    1
     9    14    12    1
    10    10     8    2
    11    10    12    1
    12     5     1    1
    13     1     2    1
    14     2     4    2
    15     2     3    1
