MODEL 1
REMARK VINA RESULT:      -7.5      0.000      0.000
REMARK SMILES CC(=O)CCc1ccc2c(c1)OCO2
REMARK SMILES IDX 4 1 2 2 1 3 3 4 5 5 6 6 7 7 11 8 8 9 10 10 9 11 12 12 14 13
REMARK SMILES IDX 13 14
REMARK H PARENT
REMARK Flexibility Score: inf
ROOT
ATOM      1  C   UNL     1       5.473  -0.241   1.930  1.00  0.00     0.080 C 
ENDROOT
BRANCH   1   2
ATOM      2  C   UNL     1       5.368   1.017   1.168  1.00  0.00     0.130 C 
ATOM      3  C   UNL     1       5.896   0.960  -0.255  1.00  0.00     0.087 C 
ATOM      4  O   UNL     1       4.920   2.065   1.537  1.00  0.00    -0.300 OA
ENDBRANCH   1   2
BRANCH   1   5
ATOM      5  C   UNL     1       6.420  -1.246   1.401  1.00  0.00     0.043 C 
BRANCH   5   6
ATOM      6  C   UNL     1       7.588  -1.566   2.226  1.00  0.00    -0.044 A 
ATOM      7  C   UNL     1       7.647  -1.254   3.586  1.00  0.00     0.008 A 
ATOM      8  C   UNL     1       8.664  -2.219   1.672  1.00  0.00     0.054 A 
ATOM      9  C   UNL     1       8.760  -1.608   4.303  1.00  0.00     0.051 A 
ATOM     10  C   UNL     1       9.792  -2.570   2.430  1.00  0.00     0.166 A 
ATOM     11  C   UNL     1       9.850  -2.262   3.771  1.00  0.00     0.165 A 
ATOM     12  O   UNL     1      10.990  -3.214   2.148  1.00  0.00    -0.454 OA
ATOM     13  O   UNL     1      11.070  -2.717   4.286  1.00  0.00    -0.454 OA
ATOM     14  C   UNL     1      11.515  -3.701   3.375  1.00  0.00     0.468 C 
ENDBRANCH   5   6
ENDBRANCH   1   5
TORSDOF 3
ENDMDL
MODEL 2
REMARK VINA RESULT:      -7.3      3.979      4.905
REMARK SMILES CC(=O)CCc1ccc2c(c1)OCO2
REMARK SMILES IDX 4 1 2 2 1 3 3 4 5 5 6 6 7 7 11 8 8 9 10 10 9 11 12 12 14 13
REMARK SMILES IDX 13 14
REMARK H PARENT
REMARK Flexibility Score: inf
ROOT
ATOM      1  C   UNL     1       5.389   1.953   1.198  1.00  0.00     0.080 C 
ENDROOT
BRANCH   1   2
ATOM      2  C   UNL     1       4.807   0.858   1.994  1.00  0.00     0.130 C 
ATOM      3  C   UNL     1       5.622  -0.424   2.030  1.00  0.00     0.087 C 
ATOM      4  O   UNL     1       3.779   0.862   2.610  1.00  0.00    -0.300 OA
ENDBRANCH   1   2
BRANCH   1   5
ATOM      5  C   UNL     1       5.395   1.761  -0.268  1.00  0.00     0.043 C 
BRANCH   5   6
ATOM      6  C   UNL     1       6.532   1.037  -0.844  1.00  0.00    -0.044 A 
ATOM      7  C   UNL     1       7.854   1.398  -0.581  1.00  0.00     0.008 A 
ATOM      8  C   UNL     1       6.315  -0.055  -1.652  1.00  0.00     0.054 A 
ATOM      9  C   UNL     1       8.869   0.659  -1.133  1.00  0.00     0.051 A 
ATOM     10  C   UNL     1       7.373  -0.794  -2.203  1.00  0.00     0.166 A 
ATOM     11  C   UNL     1       8.678  -0.437  -1.945  1.00  0.00     0.165 A 
ATOM     12  O   UNL     1       7.453  -1.908  -3.029  1.00  0.00    -0.454 OA
ATOM     13  O   UNL     1       9.529  -1.330  -2.609  1.00  0.00    -0.454 OA
ATOM     14  C   UNL     1       8.743  -2.476  -2.861  1.00  0.00     0.468 C 
ENDBRANCH   5   6
ENDBRANCH   1   5
TORSDOF 3
ENDMDL
MODEL 3
REMARK VINA RESULT:      -7.2      0.936      1.919
REMARK SMILES CC(=O)CCc1ccc2c(c1)OCO2
REMARK SMILES IDX 4 1 2 2 1 3 3 4 5 5 6 6 7 7 11 8 8 9 10 10 9 11 12 12 14 13
REMARK SMILES IDX 13 14
REMARK H PARENT
REMARK Flexibility Score: inf
ROOT
ATOM      1  C   UNL     1       5.437  -0.024   1.979  1.00  0.00     0.080 C 
ENDROOT
BRANCH   1   2
ATOM      2  C   UNL     1       5.299   1.121   1.062  1.00  0.00     0.130 C 
ATOM      3  C   UNL     1       6.007   0.973  -0.275  1.00  0.00     0.087 C 
ATOM      4  O   UNL     1       4.700   2.143   1.245  1.00  0.00    -0.300 OA
ENDBRANCH   1   2
BRANCH   1   5
ATOM      5  C   UNL     1       6.189  -1.187   1.462  1.00  0.00     0.043 C 
BRANCH   5   6
ATOM      6  C   UNL     1       7.421  -1.556   2.165  1.00  0.00    -0.044 A 
ATOM      7  C   UNL     1       8.474  -2.213   1.527  1.00  0.00     0.008 A 
ATOM      8  C   UNL     1       7.580  -1.230   3.492  1.00  0.00     0.054 A 
ATOM      9  C   UNL     1       9.608  -2.504   2.240  1.00  0.00     0.051 A 
ATOM     10  C   UNL     1       8.752  -1.540   4.198  1.00  0.00     0.166 A 
ATOM     11  C   UNL     1       9.791  -2.189   3.568  1.00  0.00     0.165 A 
ATOM     12  O   UNL     1       9.181  -1.340   5.505  1.00  0.00    -0.454 OA
ATOM     13  O   UNL     1      10.830  -2.375   4.489  1.00  0.00    -0.454 OA
ATOM     14  C   UNL     1      10.599  -1.426   5.510  1.00  0.00     0.468 C 
ENDBRANCH   5   6
ENDBRANCH   1   5
TORSDOF 3
ENDMDL
MODEL 4
REMARK VINA RESULT:      -7.0      1.054      1.110
REMARK SMILES CC(=O)CCc1ccc2c(c1)OCO2
REMARK SMILES IDX 4 1 2 2 1 3 3 4 5 5 6 6 7 7 11 8 8 9 10 10 9 11 12 12 14 13
REMARK SMILES IDX 13 14
REMARK H PARENT
REMARK Flexibility Score: inf
ROOT
ATOM      1  C   UNL     1       6.452   0.513   1.460  1.00  0.00     0.080 C 
ENDROOT
BRANCH   1   2
ATOM      2  C   UNL     1       6.025   0.858   0.092  1.00  0.00     0.130 C 
ATOM      3  C   UNL     1       5.094   2.054  -0.016  1.00  0.00     0.087 C 
ATOM      4  O   UNL     1       6.323   0.311  -0.931  1.00  0.00    -0.300 OA
ENDBRANCH   1   2
BRANCH   1   5
ATOM      5  C   UNL     1       6.513  -0.929   1.779  1.00  0.00     0.043 C 
BRANCH   5   6
ATOM      6  C   UNL     1       7.697  -1.406   2.499  1.00  0.00    -0.044 A 
ATOM      7  C   UNL     1       7.853  -1.229   3.875  1.00  0.00     0.008 A 
ATOM      8  C   UNL     1       8.690  -2.078   1.824  1.00  0.00     0.054 A 
ATOM      9  C   UNL     1       8.974  -1.725   4.489  1.00  0.00     0.051 A 
ATOM     10  C   UNL     1       9.827  -2.576   2.477  1.00  0.00     0.166 A 
ATOM     11  C   UNL     1       9.981  -2.400   3.835  1.00  0.00     0.165 A 
ATOM     12  O   UNL     1      10.957  -3.272   2.066  1.00  0.00    -0.454 OA
ATOM     13  O   UNL     1      11.190  -2.987   4.231  1.00  0.00    -0.454 OA
ATOM     14  C   UNL     1      11.510  -3.908   3.209  1.00  0.00     0.468 C 
ENDBRANCH   5   6
ENDBRANCH   1   5
TORSDOF 3
ENDMDL
MODEL 5
REMARK VINA RESULT:      -7.0      1.435      1.630
REMARK SMILES CC(=O)CCc1ccc2c(c1)OCO2
REMARK SMILES IDX 4 1 2 2 1 3 3 4 5 5 6 6 7 7 11 8 8 9 10 10 9 11 12 12 14 13
REMARK SMILES IDX 13 14
REMARK H PARENT
REMARK Flexibility Score: inf
ROOT
ATOM      1  C   UNL     1       6.395  -1.436   1.435  1.00  0.00     0.080 C 
ENDROOT
BRANCH   1   2
ATOM      2  C   UNL     1       6.441  -0.702   0.157  1.00  0.00     0.130 C 
ATOM      3  C   UNL     1       5.944   0.732   0.212  1.00  0.00     0.087 C 
ATOM      4  O   UNL     1       6.821  -1.102  -0.907  1.00  0.00    -0.300 OA
ENDBRANCH   1   2
BRANCH   1   5
ATOM      5  C   UNL     1       7.034  -0.772   2.590  1.00  0.00     0.043 C 
BRANCH   5   6
ATOM      6  C   UNL     1       8.245  -1.394   3.134  1.00  0.00    -0.044 A 
ATOM      7  C   UNL     1       8.578  -1.316   4.487  1.00  0.00     0.008 A 
ATOM      8  C   UNL     1       9.084  -2.106   2.308  1.00  0.00     0.054 A 
ATOM      9  C   UNL     1       9.712  -1.945   4.932  1.00  0.00     0.051 A 
ATOM     10  C   UNL     1      10.239  -2.740   2.790  1.00  0.00     0.166 A 
ATOM     11  C   UNL     1      10.568  -2.663   4.126  1.00  0.00     0.165 A 
ATOM     12  O   UNL     1      11.242  -3.505   2.208  1.00  0.00    -0.454 OA
ATOM     13  O   UNL     1      11.755  -3.375   4.339  1.00  0.00    -0.454 OA
ATOM     14  C   UNL     1      11.864  -4.256   3.241  1.00  0.00     0.468 C 
ENDBRANCH   5   6
ENDBRANCH   1   5
TORSDOF 3
ENDMDL
