@<TRIPOS>MOLECULE
/home/cewinharhar/GITHUB/reincatalyze/data/processed/docking_pred/2023-May-31-1727_sub9_nm5_bs15_s42_ex16_mel10_mts10000_k50_ec075_g099_lra3e-4_lrc3e-3/4f8485ffa73320ccf1b94cd7b1ea99ef776c762b_ligand_9.pdbqt
 14 15 0 0 0
SMALL
GASTEIGER

@<TRIPOS>ATOM
      1  C          6.3950   -1.4360    1.4350 C.3     1  UNL1        0.0800
      2  C          6.4410   -0.7020    0.1570 C.2     1  UNL1        0.1300
      3  C          5.9440    0.7320    0.2120 C.3     1  UNL1        0.0870
      4  O          6.8210   -1.1020   -0.9070 O.2     1  UNL1       -0.3000
      5  C          7.0340   -0.7720    2.5900 C.3     1  UNL1        0.0430
      6  C          8.2450   -1.3940    3.1340 C.2     1  UNL1       -0.0440
      7  C          8.5780   -1.3160    4.4870 C.2     1  UNL1        0.0080
      8  C          9.0840   -2.1060    2.3080 C.2     1  UNL1        0.0540
      9  C          9.7120   -1.9450    4.9320 C.2     1  UNL1        0.0510
     10  C         10.2390   -2.7400    2.7900 C.2     1  UNL1        0.1660
     11  C         10.5680   -2.6630    4.1260 C.2     1  UNL1        0.1650
     12  O         11.2420   -3.5050    2.2080 O.2     1  UNL1       -0.4540
     13  O         11.7550   -3.3750    4.3390 O.2     1  UNL1       -0.4540
     14  C         11.8640   -4.2560    3.2410 C.3     1  UNL1        0.4680
@<TRIPOS>BOND
     1     4     2    2
     2     2     3    1
     3     2     1    1
     4     1     5    1
     5    12    10    1
     6    12    14    1
     7     8    10    1
     8     8     6    2
     9     5     6    1
    10    10    11    2
    11     6     7    1
    12    14    13    1
    13    11    13    1
    14    11     9    1
    15     7     9    2
