@<TRIPOS>MOLECULE
/home/cewinharhar/GITHUB/reincatalyze/data/processed/docking_pred/2023-May-31-1727_sub9_nm5_bs15_s42_ex16_mel10_mts10000_k50_ec075_g099_lra3e-4_lrc3e-3/4fd116288ae20ad94bf91d23a53b6bc9c92e4cae_ligand_9.pdbqt
 14 15 0 0 0
SMALL
GASTEIGER

@<TRIPOS>ATOM
      1  C          5.3530   -0.0400    1.9800 C.3     1  UNL1        0.0800
      2  C          4.4110    1.0880    1.8770 C.2     1  UNL1        0.1300
      3  C          4.7510    2.1250    0.8200 C.3     1  UNL1        0.0870
      4  O          3.4190    1.2800    2.5220 O.2     1  UNL1       -0.3000
      5  C          6.7800    0.2820    1.7710 C.3     1  UNL1        0.0430
      6  C          7.3450   -0.0030    0.4490 C.2     1  UNL1       -0.0440
      7  C          7.9520    0.9840   -0.3300 C.2     1  UNL1        0.0080
      8  C          7.3130   -1.2840   -0.0520 C.2     1  UNL1        0.0540
      9  C          8.4830    0.6410   -1.5460 C.2     1  UNL1        0.0510
     10  C          7.8650   -1.6070   -1.3010 C.2     1  UNL1        0.1660
     11  C          8.4630   -0.6330   -2.0690 C.2     1  UNL1        0.1650
     12  O          7.9760   -2.7780   -2.0410 O.2     1  UNL1       -0.4540
     13  O          8.9270   -1.2160   -3.2550 O.2     1  UNL1       -0.4540
     14  C          9.0270   -2.5980   -2.9780 C.3     1  UNL1        0.4680
@<TRIPOS>BOND
     1    13    14    1
     2    13    11    1
     3    14    12    1
     4    11     9    2
     5    11    10    1
     6    12    10    1
     7     9     7    1
     8    10     8    2
     9     7     6    2
    10     8     6    1
    11     6     5    1
    12     3     2    1
    13     5     1    1
    14     2     1    1
    15     2     4    2
