@<TRIPOS>MOLECULE
/home/cewinharhar/GITHUB/reincatalyze/data/processed/docking_pred/2023-May-31-1727_sub9_nm5_bs15_s42_ex16_mel10_mts10000_k50_ec075_g099_lra3e-4_lrc3e-3/4fd116288ae20ad94bf91d23a53b6bc9c92e4cae_ligand_9.pdbqt
 14 15 0 0 0
SMALL
GASTEIGER

@<TRIPOS>ATOM
      1  C          5.5460    0.0410    2.0970 C.3     1  UNL1        0.0800
      2  C          4.5670    1.1100    1.8290 C.2     1  UNL1        0.1300
      3  C          4.9290    2.0530    0.6940 C.3     1  UNL1        0.0870
      4  O          3.5320    1.3190    2.3950 O.2     1  UNL1       -0.3000
      5  C          6.8850    0.2180    1.4980 C.3     1  UNL1        0.0430
      6  C          7.2850   -0.7320    0.4560 C.2     1  UNL1       -0.0440
      7  C          7.2130   -0.4210   -0.9030 C.2     1  UNL1        0.0080
      8  C          7.7760   -1.9690    0.8040 C.2     1  UNL1        0.0540
      9  C          7.6290   -1.3480   -1.8220 C.2     1  UNL1        0.0510
     10  C          8.1960   -2.9000   -0.1580 C.2     1  UNL1        0.1660
     11  C          8.1240   -2.5920   -1.4990 C.2     1  UNL1        0.1650
     12  O          8.7190   -4.1860   -0.1030 O.2     1  UNL1       -0.4540
     13  O          8.6000   -3.6840   -2.2370 O.2     1  UNL1       -0.4540
     14  C          9.3860   -4.4320   -1.3320 C.3     1  UNL1        0.4680
@<TRIPOS>BOND
     1    13    11    1
     2    13    14    1
     3     9    11    2
     4     9     7    1
     5    11    10    1
     6    14    12    1
     7     7     6    2
     8    10    12    1
     9    10     8    2
    10     6     8    1
    11     6     5    1
    12     3     2    1
    13     5     1    1
    14     2     1    1
    15     2     4    2
