@<TRIPOS>MOLECULE
/home/cewinharhar/GITHUB/reincatalyze/data/processed/docking_pred/2023-May-31-1727_sub9_nm5_bs15_s42_ex16_mel10_mts10000_k50_ec075_g099_lra3e-4_lrc3e-3/4fd116288ae20ad94bf91d23a53b6bc9c92e4cae_ligand_9.pdbqt
 14 15 0 0 0
SMALL
GASTEIGER

@<TRIPOS>ATOM
      1  C          5.6360    1.8780    1.2780 C.3     1  UNL1        0.0800
      2  C          5.0430    0.7470    2.0160 C.2     1  UNL1        0.1300
      3  C          5.9540   -0.4530    2.2080 C.3     1  UNL1        0.0870
      4  O          3.9390    0.6670    2.4760 O.2     1  UNL1       -0.3000
      5  C          5.6210    1.7730   -0.1960 C.3     1  UNL1        0.0430
      6  C          6.6980    1.0050   -0.8240 C.2     1  UNL1       -0.0440
      7  C          8.0400    1.3750   -0.7130 C.2     1  UNL1        0.0080
      8  C          6.4070   -0.1400   -1.5300 C.2     1  UNL1        0.0540
      9  C          8.9980    0.5940   -1.3040 C.2     1  UNL1        0.0510
     10  C          7.4090   -0.9220   -2.1250 C.2     1  UNL1        0.1660
     11  C          8.7320   -0.5550   -2.0150 C.2     1  UNL1        0.1650
     12  O          7.4110   -2.0910   -2.8750 O.2     1  UNL1       -0.4540
     13  O          9.5170   -1.4970   -2.6920 O.2     1  UNL1       -0.4540
     14  C          8.7120   -2.6540   -2.7890 C.3     1  UNL1        0.4680
@<TRIPOS>BOND
     1    12    14    1
     2    12    10    1
     3    14    13    1
     4    13    11    1
     5    10    11    2
     6    10     8    1
     7    11     9    1
     8     8     6    2
     9     9     7    2
    10     6     7    1
    11     6     5    1
    12     5     1    1
    13     1     2    1
    14     2     3    1
    15     2     4    2
