MODEL 1
REMARK VINA RESULT:      -7.6      0.000      0.000
REMARK SMILES CC(=O)CCc1ccc2c(c1)OCO2
REMARK SMILES IDX 4 1 2 2 1 3 3 4 5 5 6 6 7 7 11 8 8 9 10 10 9 11 12 12 14 13
REMARK SMILES IDX 13 14
REMARK H PARENT
REMARK Flexibility Score: inf
ROOT
ATOM      1  C   UNL     1       5.636   1.878   1.278  1.00  0.00     0.080 C 
ENDROOT
BRANCH   1   2
ATOM      2  C   UNL     1       5.043   0.747   2.016  1.00  0.00     0.130 C 
ATOM      3  C   UNL     1       5.954  -0.453   2.208  1.00  0.00     0.087 C 
ATOM      4  O   UNL     1       3.939   0.667   2.476  1.00  0.00    -0.300 OA
ENDBRANCH   1   2
BRANCH   1   5
ATOM      5  C   UNL     1       5.621   1.773  -0.196  1.00  0.00     0.043 C 
BRANCH   5   6
ATOM      6  C   UNL     1       6.698   1.005  -0.824  1.00  0.00    -0.044 A 
ATOM      7  C   UNL     1       8.040   1.375  -0.713  1.00  0.00     0.008 A 
ATOM      8  C   UNL     1       6.407  -0.140  -1.530  1.00  0.00     0.054 A 
ATOM      9  C   UNL     1       8.998   0.594  -1.304  1.00  0.00     0.051 A 
ATOM     10  C   UNL     1       7.409  -0.922  -2.125  1.00  0.00     0.166 A 
ATOM     11  C   UNL     1       8.732  -0.555  -2.015  1.00  0.00     0.165 A 
ATOM     12  O   UNL     1       7.411  -2.091  -2.875  1.00  0.00    -0.454 OA
ATOM     13  O   UNL     1       9.517  -1.497  -2.692  1.00  0.00    -0.454 OA
ATOM     14  C   UNL     1       8.712  -2.654  -2.789  1.00  0.00     0.468 C 
ENDBRANCH   5   6
ENDBRANCH   1   5
TORSDOF 3
ENDMDL
MODEL 2
REMARK VINA RESULT:      -7.0      1.770      2.241
REMARK SMILES CC(=O)CCc1ccc2c(c1)OCO2
REMARK SMILES IDX 4 1 2 2 1 3 3 4 5 5 6 6 7 7 11 8 8 9 10 10 9 11 12 12 14 13
REMARK SMILES IDX 13 14
REMARK H PARENT
REMARK Flexibility Score: inf
ROOT
ATOM      1  C   UNL     1       5.966   1.611  -0.261  1.00  0.00     0.080 C 
ENDROOT
BRANCH   1   2
ATOM      2  C   UNL     1       5.235   1.482   1.013  1.00  0.00     0.130 C 
ATOM      3  C   UNL     1       5.710   0.364   1.924  1.00  0.00     0.087 C 
ATOM      4  O   UNL     1       4.321   2.150   1.407  1.00  0.00    -0.300 OA
ENDBRANCH   1   2
BRANCH   1   5
ATOM      5  C   UNL     1       7.367   1.140  -0.259  1.00  0.00     0.043 C 
BRANCH   5   6
ATOM      6  C   UNL     1       7.635  -0.170  -0.859  1.00  0.00    -0.044 A 
ATOM      7  C   UNL     1       7.655  -0.365  -2.241  1.00  0.00     0.008 A 
ATOM      8  C   UNL     1       7.906  -1.253  -0.055  1.00  0.00     0.054 A 
ATOM      9  C   UNL     1       7.940  -1.612  -2.734  1.00  0.00     0.051 A 
ATOM     10  C   UNL     1       8.195  -2.519  -0.587  1.00  0.00     0.166 A 
ATOM     11  C   UNL     1       8.214  -2.711  -1.951  1.00  0.00     0.165 A 
ATOM     12  O   UNL     1       8.498  -3.758  -0.036  1.00  0.00    -0.454 OA
ATOM     13  O   UNL     1       8.526  -4.052  -2.211  1.00  0.00    -0.454 OA
ATOM     14  C   UNL     1       9.151  -4.525  -1.036  1.00  0.00     0.468 C 
ENDBRANCH   5   6
ENDBRANCH   1   5
TORSDOF 3
ENDMDL
MODEL 3
REMARK VINA RESULT:      -6.9      1.088      1.176
REMARK SMILES CC(=O)CCc1ccc2c(c1)OCO2
REMARK SMILES IDX 4 1 2 2 1 3 3 4 5 5 6 6 7 7 11 8 8 9 10 10 9 11 12 12 14 13
REMARK SMILES IDX 13 14
REMARK H PARENT
REMARK Flexibility Score: inf
ROOT
ATOM      1  C   UNL     1       6.237   1.185   0.900  1.00  0.00     0.080 C 
ENDROOT
BRANCH   1   2
ATOM      2  C   UNL     1       5.559   0.369   1.924  1.00  0.00     0.130 C 
ATOM      3  C   UNL     1       6.333  -0.849   2.401  1.00  0.00     0.087 C 
ATOM      4  O   UNL     1       4.483   0.552   2.417  1.00  0.00    -0.300 OA
ENDBRANCH   1   2
BRANCH   1   5
ATOM      5  C   UNL     1       5.892   0.884  -0.505  1.00  0.00     0.043 C 
BRANCH   5   6
ATOM      6  C   UNL     1       6.865   0.111  -1.283  1.00  0.00    -0.044 A 
ATOM      7  C   UNL     1       7.794   0.720  -2.128  1.00  0.00     0.008 A 
ATOM      8  C   UNL     1       6.901  -1.260  -1.173  1.00  0.00     0.054 A 
ATOM      9  C   UNL     1       8.693  -0.064  -2.805  1.00  0.00     0.051 A 
ATOM     10  C   UNL     1       7.833  -2.037  -1.877  1.00  0.00     0.166 A 
ATOM     11  C   UNL     1       8.749  -1.437  -2.712  1.00  0.00     0.165 A 
ATOM     12  O   UNL     1       8.097  -3.399  -1.960  1.00  0.00    -0.454 OA
ATOM     13  O   UNL     1       9.553  -2.429  -3.287  1.00  0.00    -0.454 OA
ATOM     14  C   UNL     1       9.426  -3.551  -2.438  1.00  0.00     0.468 C 
ENDBRANCH   5   6
ENDBRANCH   1   5
TORSDOF 3
ENDMDL
MODEL 4
REMARK VINA RESULT:      -6.8      1.912      2.473
REMARK SMILES CC(=O)CCc1ccc2c(c1)OCO2
REMARK SMILES IDX 4 1 2 2 1 3 3 4 5 5 6 6 7 7 11 8 8 9 10 10 9 11 12 12 14 13
REMARK SMILES IDX 13 14
REMARK H PARENT
REMARK Flexibility Score: inf
ROOT
ATOM      1  C   UNL     1       5.546   0.041   2.097  1.00  0.00     0.080 C 
ENDROOT
BRANCH   1   2
ATOM      2  C   UNL     1       4.567   1.110   1.829  1.00  0.00     0.130 C 
ATOM      3  C   UNL     1       4.929   2.053   0.694  1.00  0.00     0.087 C 
ATOM      4  O   UNL     1       3.532   1.319   2.395  1.00  0.00    -0.300 OA
ENDBRANCH   1   2
BRANCH   1   5
ATOM      5  C   UNL     1       6.885   0.218   1.498  1.00  0.00     0.043 C 
BRANCH   5   6
ATOM      6  C   UNL     1       7.285  -0.732   0.456  1.00  0.00    -0.044 A 
ATOM      7  C   UNL     1       7.213  -0.421  -0.903  1.00  0.00     0.008 A 
ATOM      8  C   UNL     1       7.776  -1.969   0.804  1.00  0.00     0.054 A 
ATOM      9  C   UNL     1       7.629  -1.348  -1.822  1.00  0.00     0.051 A 
ATOM     10  C   UNL     1       8.196  -2.900  -0.158  1.00  0.00     0.166 A 
ATOM     11  C   UNL     1       8.124  -2.592  -1.499  1.00  0.00     0.165 A 
ATOM     12  O   UNL     1       8.719  -4.186  -0.103  1.00  0.00    -0.454 OA
ATOM     13  O   UNL     1       8.600  -3.684  -2.237  1.00  0.00    -0.454 OA
ATOM     14  C   UNL     1       9.386  -4.432  -1.332  1.00  0.00     0.468 C 
ENDBRANCH   5   6
ENDBRANCH   1   5
TORSDOF 3
ENDMDL
MODEL 5
REMARK VINA RESULT:      -6.7      1.070      1.574
REMARK SMILES CC(=O)CCc1ccc2c(c1)OCO2
REMARK SMILES IDX 4 1 2 2 1 3 3 4 5 5 6 6 7 7 11 8 8 9 10 10 9 11 12 12 14 13
REMARK SMILES IDX 13 14
REMARK H PARENT
REMARK Flexibility Score: inf
ROOT
ATOM      1  C   UNL     1       5.353  -0.040   1.980  1.00  0.00     0.080 C 
ENDROOT
BRANCH   1   2
ATOM      2  C   UNL     1       4.411   1.088   1.877  1.00  0.00     0.130 C 
ATOM      3  C   UNL     1       4.751   2.125   0.820  1.00  0.00     0.087 C 
ATOM      4  O   UNL     1       3.419   1.280   2.522  1.00  0.00    -0.300 OA
ENDBRANCH   1   2
BRANCH   1   5
ATOM      5  C   UNL     1       6.780   0.282   1.771  1.00  0.00     0.043 C 
BRANCH   5   6
ATOM      6  C   UNL     1       7.345  -0.003   0.449  1.00  0.00    -0.044 A 
ATOM      7  C   UNL     1       7.952   0.984  -0.330  1.00  0.00     0.008 A 
ATOM      8  C   UNL     1       7.313  -1.284  -0.052  1.00  0.00     0.054 A 
ATOM      9  C   UNL     1       8.483   0.641  -1.546  1.00  0.00     0.051 A 
ATOM     10  C   UNL     1       7.865  -1.607  -1.301  1.00  0.00     0.166 A 
ATOM     11  C   UNL     1       8.463  -0.633  -2.069  1.00  0.00     0.165 A 
ATOM     12  O   UNL     1       7.976  -2.778  -2.041  1.00  0.00    -0.454 OA
ATOM     13  O   UNL     1       8.927  -1.216  -3.255  1.00  0.00    -0.454 OA
ATOM     14  C   UNL     1       9.027  -2.598  -2.978  1.00  0.00     0.468 C 
ENDBRANCH   5   6
ENDBRANCH   1   5
TORSDOF 3
ENDMDL
