@<TRIPOS>MOLECULE
/home/cewinharhar/GITHUB/reincatalyze/data/processed/docking_pred/2023-May-31-1727_sub9_nm5_bs15_s42_ex16_mel10_mts10000_k50_ec075_g099_lra3e-4_lrc3e-3/51335195432d6c3c52ef841bfe8bb9323d602809_ligand_9.pdbqt
 14 15 0 0 0
SMALL
GASTEIGER

@<TRIPOS>ATOM
      1  C          5.6150    1.8640    1.2600 C.3     1  UNL1        0.0800
      2  C          5.0420    0.7270    2.0030 C.2     1  UNL1        0.1300
      3  C          5.9540   -0.4800    2.1490 C.3     1  UNL1        0.0870
      4  O          3.9550    0.6450    2.5000 O.2     1  UNL1       -0.3000
      5  C          5.6040    1.7500   -0.2140 C.3     1  UNL1        0.0430
      6  C          6.6950    0.9950   -0.8360 C.2     1  UNL1       -0.0440
      7  C          8.0340    1.3550   -0.6760 C.2     1  UNL1        0.0080
      8  C          6.4180   -0.1250   -1.5850 C.2     1  UNL1        0.0540
      9  C          9.0050    0.5870   -1.2640 C.2     1  UNL1        0.0510
     10  C          7.4320   -0.8930   -2.1760 C.2     1  UNL1        0.1660
     11  C          8.7530   -0.5380   -2.0180 C.2     1  UNL1        0.1650
     12  O          7.4500   -2.0390   -2.9610 O.2     1  UNL1       -0.4540
     13  O          9.5530   -1.4630   -2.7030 O.2     1  UNL1       -0.4540
     14  C          8.7450   -2.6120   -2.8570 C.3     1  UNL1        0.4680
@<TRIPOS>BOND
     1    12    14    1
     2    12    10    1
     3    14    13    1
     4    13    11    1
     5    10    11    2
     6    10     8    1
     7    11     9    1
     8     8     6    2
     9     9     7    2
    10     6     7    1
    11     6     5    1
    12     5     1    1
    13     1     2    1
    14     2     3    1
    15     2     4    2
