MODEL 1
REMARK VINA RESULT:      -7.5      0.000      0.000
REMARK SMILES CC(=O)CCc1ccc2c(c1)OCO2
REMARK SMILES IDX 4 1 2 2 1 3 3 4 5 5 6 6 7 7 11 8 8 9 10 10 9 11 12 12 14 13
REMARK SMILES IDX 13 14
REMARK H PARENT
REMARK Flexibility Score: inf
ROOT
ATOM      1  C   UNL     1       5.826   1.778   1.336  1.00  0.00     0.080 C 
ENDROOT
BRANCH   1   2
ATOM      2  C   UNL     1       5.228   0.631   2.044  1.00  0.00     0.130 C 
ATOM      3  C   UNL     1       6.140  -0.571   2.221  1.00  0.00     0.087 C 
ATOM      4  O   UNL     1       4.120   0.539   2.491  1.00  0.00    -0.300 OA
ENDBRANCH   1   2
BRANCH   1   5
ATOM      5  C   UNL     1       5.792   1.721  -0.141  1.00  0.00     0.043 C 
BRANCH   5   6
ATOM      6  C   UNL     1       6.836   0.936  -0.805  1.00  0.00    -0.044 A 
ATOM      7  C   UNL     1       8.185   1.288  -0.741  1.00  0.00     0.008 A 
ATOM      8  C   UNL     1       6.504  -0.204  -1.499  1.00  0.00     0.054 A 
ATOM      9  C   UNL     1       9.112   0.493  -1.365  1.00  0.00     0.051 A 
ATOM     10  C   UNL     1       7.473  -1.001  -2.128  1.00  0.00     0.166 A 
ATOM     11  C   UNL     1       8.805  -0.653  -2.065  1.00  0.00     0.165 A 
ATOM     12  O   UNL     1       7.433  -2.171  -2.875  1.00  0.00    -0.454 OA
ATOM     13  O   UNL     1       9.552  -1.606  -2.768  1.00  0.00    -0.454 OA
ATOM     14  C   UNL     1       8.729  -2.752  -2.835  1.00  0.00     0.468 C 
ENDBRANCH   5   6
ENDBRANCH   1   5
TORSDOF 3
ENDMDL
MODEL 2
REMARK VINA RESULT:      -7.0      1.746      2.196
REMARK SMILES CC(=O)CCc1ccc2c(c1)OCO2
REMARK SMILES IDX 4 1 2 2 1 3 3 4 5 5 6 6 7 7 11 8 8 9 10 10 9 11 12 12 14 13
REMARK SMILES IDX 13 14
REMARK H PARENT
REMARK Flexibility Score: inf
ROOT
ATOM      1  C   UNL     1       5.718   1.401  -0.240  1.00  0.00     0.080 C 
ENDROOT
BRANCH   1   2
ATOM      2  C   UNL     1       5.092   1.357   1.094  1.00  0.00     0.130 C 
ATOM      3  C   UNL     1       5.489   0.174   1.960  1.00  0.00     0.087 C 
ATOM      4  O   UNL     1       4.316   2.138   1.568  1.00  0.00    -0.300 OA
ENDBRANCH   1   2
BRANCH   1   5
ATOM      5  C   UNL     1       7.153   1.050  -0.298  1.00  0.00     0.043 C 
BRANCH   5   6
ATOM      6  C   UNL     1       7.503  -0.246  -0.886  1.00  0.00    -0.044 A 
ATOM      7  C   UNL     1       7.550  -0.448  -2.266  1.00  0.00     0.008 A 
ATOM      8  C   UNL     1       7.828  -1.306  -0.071  1.00  0.00     0.054 A 
ATOM      9  C   UNL     1       7.913  -1.680  -2.747  1.00  0.00     0.051 A 
ATOM     10  C   UNL     1       8.196  -2.556  -0.591  1.00  0.00     0.166 A 
ATOM     11  C   UNL     1       8.242  -2.756  -1.953  1.00  0.00     0.165 A 
ATOM     12  O   UNL     1       8.565  -3.772  -0.028  1.00  0.00    -0.454 OA
ATOM     13  O   UNL     1       8.634  -4.078  -2.201  1.00  0.00    -0.454 OA
ATOM     14  C   UNL     1       9.272  -4.507  -1.016  1.00  0.00     0.468 C 
ENDBRANCH   5   6
ENDBRANCH   1   5
TORSDOF 3
ENDMDL
MODEL 3
REMARK VINA RESULT:      -6.9      1.023      1.062
REMARK SMILES CC(=O)CCc1ccc2c(c1)OCO2
REMARK SMILES IDX 4 1 2 2 1 3 3 4 5 5 6 6 7 7 11 8 8 9 10 10 9 11 12 12 14 13
REMARK SMILES IDX 13 14
REMARK H PARENT
REMARK Flexibility Score: inf
ROOT
ATOM      1  C   UNL     1       6.220   1.260   0.878  1.00  0.00     0.080 C 
ENDROOT
BRANCH   1   2
ATOM      2  C   UNL     1       5.562   0.449   1.919  1.00  0.00     0.130 C 
ATOM      3  C   UNL     1       6.355  -0.752   2.406  1.00  0.00     0.087 C 
ATOM      4  O   UNL     1       4.488   0.627   2.420  1.00  0.00    -0.300 OA
ENDBRANCH   1   2
BRANCH   1   5
ATOM      5  C   UNL     1       5.868   0.934  -0.520  1.00  0.00     0.043 C 
BRANCH   5   6
ATOM      6  C   UNL     1       6.840   0.154  -1.292  1.00  0.00    -0.044 A 
ATOM      7  C   UNL     1       7.776   0.756  -2.134  1.00  0.00     0.008 A 
ATOM      8  C   UNL     1       6.870  -1.216  -1.178  1.00  0.00     0.054 A 
ATOM      9  C   UNL     1       8.674  -0.033  -2.806  1.00  0.00     0.051 A 
ATOM     10  C   UNL     1       7.800  -2.000  -1.876  1.00  0.00     0.166 A 
ATOM     11  C   UNL     1       8.723  -1.406  -2.709  1.00  0.00     0.165 A 
ATOM     12  O   UNL     1       8.058  -3.363  -1.955  1.00  0.00    -0.454 OA
ATOM     13  O   UNL     1       9.524  -2.404  -3.278  1.00  0.00    -0.454 OA
ATOM     14  C   UNL     1       9.388  -3.523  -2.426  1.00  0.00     0.468 C 
ENDBRANCH   5   6
ENDBRANCH   1   5
TORSDOF 3
ENDMDL
MODEL 4
REMARK VINA RESULT:      -6.7      1.826      2.314
REMARK SMILES CC(=O)CCc1ccc2c(c1)OCO2
REMARK SMILES IDX 4 1 2 2 1 3 3 4 5 5 6 6 7 7 11 8 8 9 10 10 9 11 12 12 14 13
REMARK SMILES IDX 13 14
REMARK H PARENT
REMARK Flexibility Score: inf
ROOT
ATOM      1  C   UNL     1       6.788   0.879   1.555  1.00  0.00     0.080 C 
ENDROOT
BRANCH   1   2
ATOM      2  C   UNL     1       5.346   1.185   1.569  1.00  0.00     0.130 C 
ATOM      3  C   UNL     1       4.876   2.148   0.492  1.00  0.00     0.087 C 
ATOM      4  O   UNL     1       4.513   0.767   2.321  1.00  0.00    -0.300 OA
ENDBRANCH   1   2
BRANCH   1   5
ATOM      5  C   UNL     1       7.463   0.978   0.244  1.00  0.00     0.043 C 
BRANCH   5   6
ATOM      6  C   UNL     1       7.710  -0.273  -0.479  1.00  0.00    -0.044 A 
ATOM      7  C   UNL     1       7.717  -0.337  -1.873  1.00  0.00     0.008 A 
ATOM      8  C   UNL     1       7.974  -1.430   0.217  1.00  0.00     0.054 A 
ATOM      9  C   UNL     1       7.982  -1.535  -2.484  1.00  0.00     0.051 A 
ATOM     10  C   UNL     1       8.243  -2.643  -0.434  1.00  0.00     0.166 A 
ATOM     11  C   UNL     1       8.249  -2.707  -1.810  1.00  0.00     0.165 A 
ATOM     12  O   UNL     1       8.534  -3.932  -0.005  1.00  0.00    -0.454 OA
ATOM     13  O   UNL     1       8.541  -4.020  -2.199  1.00  0.00    -0.454 OA
ATOM     14  C   UNL     1       9.170  -4.610  -1.079  1.00  0.00     0.468 C 
ENDBRANCH   5   6
ENDBRANCH   1   5
TORSDOF 3
ENDMDL
MODEL 5
REMARK VINA RESULT:      -6.7      1.156      1.625
REMARK SMILES CC(=O)CCc1ccc2c(c1)OCO2
REMARK SMILES IDX 4 1 2 2 1 3 3 4 5 5 6 6 7 7 11 8 8 9 10 10 9 11 12 12 14 13
REMARK SMILES IDX 13 14
REMARK H PARENT
REMARK Flexibility Score: inf
ROOT
ATOM      1  C   UNL     1       5.383  -0.077   1.961  1.00  0.00     0.080 C 
ENDROOT
BRANCH   1   2
ATOM      2  C   UNL     1       4.438   1.051   1.873  1.00  0.00     0.130 C 
ATOM      3  C   UNL     1       4.753   2.081   0.801  1.00  0.00     0.087 C 
ATOM      4  O   UNL     1       3.462   1.247   2.540  1.00  0.00    -0.300 OA
ENDBRANCH   1   2
BRANCH   1   5
ATOM      5  C   UNL     1       6.805   0.245   1.718  1.00  0.00     0.043 C 
BRANCH   5   6
ATOM      6  C   UNL     1       7.352  -0.091   0.401  1.00  0.00    -0.044 A 
ATOM      7  C   UNL     1       7.810   0.885  -0.486  1.00  0.00     0.008 A 
ATOM      8  C   UNL     1       7.455  -1.407   0.013  1.00  0.00     0.054 A 
ATOM      9  C   UNL     1       8.335   0.497  -1.691  1.00  0.00     0.051 A 
ATOM     10  C   UNL     1       7.998  -1.776  -1.227  1.00  0.00     0.166 A 
ATOM     11  C   UNL     1       8.448  -0.813  -2.102  1.00  0.00     0.165 A 
ATOM     12  O   UNL     1       8.221  -2.989  -1.868  1.00  0.00    -0.454 OA
ATOM     13  O   UNL     1       8.936  -1.444  -3.254  1.00  0.00    -0.454 OA
ATOM     14  C   UNL     1       9.211  -2.773  -2.864  1.00  0.00     0.468 C 
ENDBRANCH   5   6
ENDBRANCH   1   5
TORSDOF 3
ENDMDL
