MODEL 1
REMARK VINA RESULT:      -7.6      0.000      0.000
REMARK SMILES CC(=O)CCc1ccc2c(c1)OCO2
REMARK SMILES IDX 4 1 2 2 1 3 3 4 5 5 6 6 7 7 11 8 8 9 10 10 9 11 12 12 14 13
REMARK SMILES IDX 13 14
REMARK H PARENT
REMARK Flexibility Score: inf
ROOT
ATOM      1  C   UNL     1       5.656   1.859   1.288  1.00  0.00     0.080 C 
ENDROOT
BRANCH   1   2
ATOM      2  C   UNL     1       5.098   0.714   2.030  1.00  0.00     0.130 C 
ATOM      3  C   UNL     1       6.033  -0.473   2.193  1.00  0.00     0.087 C 
ATOM      4  O   UNL     1       4.007   0.613   2.515  1.00  0.00    -0.300 OA
ENDBRANCH   1   2
BRANCH   1   5
ATOM      5  C   UNL     1       5.636   1.752  -0.186  1.00  0.00     0.043 C 
BRANCH   5   6
ATOM      6  C   UNL     1       6.719   0.994  -0.818  1.00  0.00    -0.044 A 
ATOM      7  C   UNL     1       8.061   1.350  -0.670  1.00  0.00     0.008 A 
ATOM      8  C   UNL     1       6.433  -0.126  -1.563  1.00  0.00     0.054 A 
ATOM      9  C   UNL     1       9.025   0.579  -1.267  1.00  0.00     0.051 A 
ATOM     10  C   UNL     1       7.440  -0.897  -2.164  1.00  0.00     0.166 A 
ATOM     11  C   UNL     1       8.763  -0.545  -2.018  1.00  0.00     0.165 A 
ATOM     12  O   UNL     1       7.448  -2.043  -2.949  1.00  0.00    -0.454 OA
ATOM     13  O   UNL     1       9.554  -1.472  -2.710  1.00  0.00    -0.454 OA
ATOM     14  C   UNL     1       8.742  -2.619  -2.857  1.00  0.00     0.468 C 
ENDBRANCH   5   6
ENDBRANCH   1   5
TORSDOF 3
ENDMDL
MODEL 2
REMARK VINA RESULT:      -7.0      1.825      2.274
REMARK SMILES CC(=O)CCc1ccc2c(c1)OCO2
REMARK SMILES IDX 4 1 2 2 1 3 3 4 5 5 6 6 7 7 11 8 8 9 10 10 9 11 12 12 14 13
REMARK SMILES IDX 13 14
REMARK H PARENT
REMARK Flexibility Score: inf
ROOT
ATOM      1  C   UNL     1       5.758   1.366  -0.309  1.00  0.00     0.080 C 
ENDROOT
BRANCH   1   2
ATOM      2  C   UNL     1       5.094   1.347   1.007  1.00  0.00     0.130 C 
ATOM      3  C   UNL     1       5.462   0.178   1.905  1.00  0.00     0.087 C 
ATOM      4  O   UNL     1       4.307   2.137   1.445  1.00  0.00    -0.300 OA
ENDBRANCH   1   2
BRANCH   1   5
ATOM      5  C   UNL     1       7.198   1.030  -0.316  1.00  0.00     0.043 C 
BRANCH   5   6
ATOM      6  C   UNL     1       7.582  -0.258  -0.899  1.00  0.00    -0.044 A 
ATOM      7  C   UNL     1       7.752  -0.432  -2.273  1.00  0.00     0.008 A 
ATOM      8  C   UNL     1       7.817  -1.341  -0.083  1.00  0.00     0.054 A 
ATOM      9  C   UNL     1       8.139  -1.659  -2.747  1.00  0.00     0.051 A 
ATOM     10  C   UNL     1       8.213  -2.585  -0.595  1.00  0.00     0.166 A 
ATOM     11  C   UNL     1       8.380  -2.757  -1.951  1.00  0.00     0.165 A 
ATOM     12  O   UNL     1       8.512  -3.819  -0.028  1.00  0.00    -0.454 OA
ATOM     13  O   UNL     1       8.774  -4.080  -2.192  1.00  0.00    -0.454 OA
ATOM     14  C   UNL     1       9.296  -4.543  -0.965  1.00  0.00     0.468 C 
ENDBRANCH   5   6
ENDBRANCH   1   5
TORSDOF 3
ENDMDL
MODEL 3
REMARK VINA RESULT:      -6.9      1.100      1.178
REMARK SMILES CC(=O)CCc1ccc2c(c1)OCO2
REMARK SMILES IDX 4 1 2 2 1 3 3 4 5 5 6 6 7 7 11 8 8 9 10 10 9 11 12 12 14 13
REMARK SMILES IDX 13 14
REMARK H PARENT
REMARK Flexibility Score: inf
ROOT
ATOM      1  C   UNL     1       6.222   1.230   0.857  1.00  0.00     0.080 C 
ENDROOT
BRANCH   1   2
ATOM      2  C   UNL     1       5.565   0.425   1.902  1.00  0.00     0.130 C 
ATOM      3  C   UNL     1       6.362  -0.767   2.402  1.00  0.00     0.087 C 
ATOM      4  O   UNL     1       4.487   0.600   2.396  1.00  0.00    -0.300 OA
ENDBRANCH   1   2
BRANCH   1   5
ATOM      5  C   UNL     1       5.868   0.900  -0.539  1.00  0.00     0.043 C 
BRANCH   5   6
ATOM      6  C   UNL     1       6.845   0.131  -1.315  1.00  0.00    -0.044 A 
ATOM      7  C   UNL     1       7.766   0.743  -2.167  1.00  0.00     0.008 A 
ATOM      8  C   UNL     1       6.895  -1.238  -1.196  1.00  0.00     0.054 A 
ATOM      9  C   UNL     1       8.670  -0.036  -2.842  1.00  0.00     0.051 A 
ATOM     10  C   UNL     1       7.832  -2.012  -1.898  1.00  0.00     0.166 A 
ATOM     11  C   UNL     1       8.740  -1.408  -2.740  1.00  0.00     0.165 A 
ATOM     12  O   UNL     1       8.109  -3.371  -1.972  1.00  0.00    -0.454 OA
ATOM     13  O   UNL     1       9.551  -2.397  -3.310  1.00  0.00    -0.454 OA
ATOM     14  C   UNL     1       9.437  -3.514  -2.453  1.00  0.00     0.468 C 
ENDBRANCH   5   6
ENDBRANCH   1   5
TORSDOF 3
ENDMDL
MODEL 4
REMARK VINA RESULT:      -6.8      1.839      2.346
REMARK SMILES CC(=O)CCc1ccc2c(c1)OCO2
REMARK SMILES IDX 4 1 2 2 1 3 3 4 5 5 6 6 7 7 11 8 8 9 10 10 9 11 12 12 14 13
REMARK SMILES IDX 13 14
REMARK H PARENT
REMARK Flexibility Score: inf
ROOT
ATOM      1  C   UNL     1       6.715   0.994   1.498  1.00  0.00     0.080 C 
ENDROOT
BRANCH   1   2
ATOM      2  C   UNL     1       5.261   1.235   1.474  1.00  0.00     0.130 C 
ATOM      3  C   UNL     1       4.771   2.145   0.360  1.00  0.00     0.087 C 
ATOM      4  O   UNL     1       4.431   0.800   2.221  1.00  0.00    -0.300 OA
ENDBRANCH   1   2
BRANCH   1   5
ATOM      5  C   UNL     1       7.411   1.079   0.197  1.00  0.00     0.043 C 
BRANCH   5   6
ATOM      6  C   UNL     1       7.658  -0.179  -0.514  1.00  0.00    -0.044 A 
ATOM      7  C   UNL     1       7.643  -0.261  -1.907  1.00  0.00     0.008 A 
ATOM      8  C   UNL     1       7.942  -1.325   0.192  1.00  0.00     0.054 A 
ATOM      9  C   UNL     1       7.909  -1.464  -2.507  1.00  0.00     0.051 A 
ATOM     10  C   UNL     1       8.211  -2.544  -0.448  1.00  0.00     0.166 A 
ATOM     11  C   UNL     1       8.196  -2.625  -1.823  1.00  0.00     0.165 A 
ATOM     12  O   UNL     1       8.521  -3.825  -0.008  1.00  0.00    -0.454 OA
ATOM     13  O   UNL     1       8.494  -3.941  -2.200  1.00  0.00    -0.454 OA
ATOM     14  C   UNL     1       9.145  -4.511  -1.084  1.00  0.00     0.468 C 
ENDBRANCH   5   6
ENDBRANCH   1   5
TORSDOF 3
ENDMDL
MODEL 5
REMARK VINA RESULT:      -6.7      1.106      1.598
REMARK SMILES CC(=O)CCc1ccc2c(c1)OCO2
REMARK SMILES IDX 4 1 2 2 1 3 3 4 5 5 6 6 7 7 11 8 8 9 10 10 9 11 12 12 14 13
REMARK SMILES IDX 13 14
REMARK H PARENT
REMARK Flexibility Score: inf
ROOT
ATOM      1  C   UNL     1       5.335  -0.022   1.989  1.00  0.00     0.080 C 
ENDROOT
BRANCH   1   2
ATOM      2  C   UNL     1       4.388   1.101   1.869  1.00  0.00     0.130 C 
ATOM      3  C   UNL     1       4.733   2.132   0.807  1.00  0.00     0.087 C 
ATOM      4  O   UNL     1       3.390   1.293   2.504  1.00  0.00    -0.300 OA
ENDBRANCH   1   2
BRANCH   1   5
ATOM      5  C   UNL     1       6.760   0.300   1.762  1.00  0.00     0.043 C 
BRANCH   5   6
ATOM      6  C   UNL     1       7.312  -0.000   0.438  1.00  0.00    -0.044 A 
ATOM      7  C   UNL     1       7.870   0.987  -0.377  1.00  0.00     0.008 A 
ATOM      8  C   UNL     1       7.317  -1.294  -0.029  1.00  0.00     0.054 A 
ATOM      9  C   UNL     1       8.393   0.630  -1.592  1.00  0.00     0.051 A 
ATOM     10  C   UNL     1       7.859  -1.631  -1.278  1.00  0.00     0.166 A 
ATOM     11  C   UNL     1       8.410  -0.657  -2.082  1.00  0.00     0.165 A 
ATOM     12  O   UNL     1       7.999  -2.817  -1.989  1.00  0.00    -0.454 OA
ATOM     13  O   UNL     1       8.874  -1.256  -3.261  1.00  0.00    -0.454 OA
ATOM     14  C   UNL     1       9.028  -2.625  -2.948  1.00  0.00     0.468 C 
ENDBRANCH   5   6
ENDBRANCH   1   5
TORSDOF 3
ENDMDL
