@<TRIPOS>MOLECULE
/home/cewinharhar/GITHUB/reincatalyze/data/processed/docking_pred/2023-May-31-1727_sub9_nm5_bs15_s42_ex16_mel10_mts10000_k50_ec075_g099_lra3e-4_lrc3e-3/544f4ddee7da09465e084ab518e20d4fbc72de61_ligand_9.pdbqt
 14 15 0 0 0
SMALL
GASTEIGER

@<TRIPOS>ATOM
      1  C          5.7490    1.4230   -0.2990 C.3     1  UNL1        0.0800
      2  C          5.0760    1.3630    1.0110 C.2     1  UNL1        0.1300
      3  C          5.5310    0.2390    1.9250 C.3     1  UNL1        0.0870
      4  O          4.2220    2.0900    1.4330 O.2     1  UNL1       -0.3000
      5  C          7.1850    1.0730   -0.3100 C.3     1  UNL1        0.0430
      6  C          7.5550   -0.2190   -0.8940 C.2     1  UNL1       -0.0440
      7  C          7.7030   -0.3980   -2.2710 C.2     1  UNL1        0.0080
      8  C          7.7970   -1.3000   -0.0780 C.2     1  UNL1        0.0540
      9  C          8.0780   -1.6280   -2.7460 C.2     1  UNL1        0.0510
     10  C          8.1810   -2.5480   -0.5920 C.2     1  UNL1        0.1660
     11  C          8.3260   -2.7250   -1.9510 C.2     1  UNL1        0.1650
     12  O          8.4830   -3.7810   -0.0260 O.2     1  UNL1       -0.4540
     13  O          8.7110   -4.0490   -2.1940 O.2     1  UNL1       -0.4540
     14  C          9.2500   -4.5120   -0.9720 C.3     1  UNL1        0.4680
@<TRIPOS>BOND
     1     9     7    1
     2     9    11    2
     3     7     6    2
     4    13    11    1
     5    13    14    1
     6    11    10    1
     7    14    12    1
     8     6     5    1
     9     6     8    1
    10    10     8    2
    11    10    12    1
    12     5     1    1
    13     1     2    1
    14     2     4    2
    15     2     3    1
