@<TRIPOS>MOLECULE
/home/cewinharhar/GITHUB/reincatalyze/data/processed/docking_pred/2023-May-31-1727_sub9_nm5_bs15_s42_ex16_mel10_mts10000_k50_ec075_g099_lra3e-4_lrc3e-3/54c3cf531f582f2d935f1daccafc2f163e83168d_ligand_9.pdbqt
 14 15 0 0 0
SMALL
GASTEIGER

@<TRIPOS>ATOM
      1  C          5.3620   -0.0500    1.9580 C.3     1  UNL1        0.0800
      2  C          4.4090    1.0700    1.8590 C.2     1  UNL1        0.1300
      3  C          4.7370    2.1110    0.8020 C.3     1  UNL1        0.0870
      4  O          3.4180    1.2520    2.5070 O.2     1  UNL1       -0.3000
      5  C          6.7810    0.2770    1.7030 C.3     1  UNL1        0.0430
      6  C          7.3180   -0.0580    0.3810 C.2     1  UNL1       -0.0440
      7  C          7.7350    0.9200   -0.5230 C.2     1  UNL1        0.0080
      8  C          7.4530   -1.3750    0.0060 C.2     1  UNL1        0.0540
      9  C          8.2540    0.5340   -1.7310 C.2     1  UNL1        0.0510
     10  C          7.9870   -1.7430   -1.2380 C.2     1  UNL1        0.1660
     11  C          8.3980   -0.7770   -2.1300 C.2     1  UNL1        0.1650
     12  O          8.2360   -2.9560   -1.8680 O.2     1  UNL1       -0.4540
     13  O          8.8870   -1.4070   -3.2820 O.2     1  UNL1       -0.4540
     14  C          9.2040   -2.7230   -2.8810 C.3     1  UNL1        0.4680
@<TRIPOS>BOND
     1    13    14    1
     2    13    11    1
     3    14    12    1
     4    11     9    2
     5    11    10    1
     6    12    10    1
     7     9     7    1
     8    10     8    2
     9     7     6    2
    10     8     6    1
    11     6     5    1
    12     3     2    1
    13     5     1    1
    14     2     1    1
    15     2     4    2
