@<TRIPOS>MOLECULE
/home/cewinharhar/GITHUB/reincatalyze/data/processed/docking_pred/2023-May-31-1727_sub9_nm5_bs15_s42_ex16_mel10_mts10000_k50_ec075_g099_lra3e-4_lrc3e-3/54c3cf531f582f2d935f1daccafc2f163e83168d_ligand_9.pdbqt
 14 15 0 0 0
SMALL
GASTEIGER

@<TRIPOS>ATOM
      1  C          5.3230   -0.0890    2.2040 C.3     1  UNL1        0.0800
      2  C          4.4490    1.0600    1.9090 C.2     1  UNL1        0.1300
      3  C          4.9270    1.9700    0.7900 C.3     1  UNL1        0.0870
      4  O          3.4170    1.3550    2.4420 O.2     1  UNL1       -0.3000
      5  C          6.7610    0.0950    1.9150 C.3     1  UNL1        0.0430
      6  C          7.3290   -0.6880    0.8140 C.2     1  UNL1       -0.0440
      7  C          7.6380   -2.0420    0.9460 C.2     1  UNL1        0.0080
      8  C          7.5470   -0.0970   -0.4100 C.2     1  UNL1        0.0540
      9  C          8.1420   -2.7190   -0.1340 C.2     1  UNL1        0.0510
     10  C          8.0630   -0.8150   -1.4990 C.2     1  UNL1        0.1660
     11  C          8.3700   -2.1520   -1.3680 C.2     1  UNL1        0.1650
     12  O          8.3790   -0.4920   -2.8140 O.2     1  UNL1       -0.4540
     13  O          8.8630   -2.6220   -2.5920 O.2     1  UNL1       -0.4540
     14  C          8.4040   -1.7010   -3.5590 C.3     1  UNL1        0.4680
@<TRIPOS>BOND
     1    14    12    1
     2    14    13    1
     3    12    10    1
     4    13    11    1
     5    10    11    2
     6    10     8    1
     7    11     9    1
     8     8     6    2
     9     9     7    2
    10     3     2    1
    11     6     7    1
    12     6     5    1
    13     2     1    1
    14     2     4    2
    15     5     1    1
