@<TRIPOS>MOLECULE
/home/cewinharhar/GITHUB/reincatalyze/data/processed/docking_pred/2023-May-31-1727_sub9_nm5_bs15_s42_ex16_mel10_mts10000_k50_ec075_g099_lra3e-4_lrc3e-3/54c3cf531f582f2d935f1daccafc2f163e83168d_ligand_9.pdbqt
 14 15 0 0 0
SMALL
GASTEIGER

@<TRIPOS>ATOM
      1  C          5.7280    1.6660    1.1510 C.3     1  UNL1        0.0800
      2  C          5.1850    0.5840    1.9910 C.2     1  UNL1        0.1300
      3  C          6.1130   -0.6000    2.2080 C.3     1  UNL1        0.0870
      4  O          4.1090    0.5310    2.5170 O.2     1  UNL1       -0.3000
      5  C          5.6400    1.4620   -0.3110 C.3     1  UNL1        0.0430
      6  C          6.7360    0.7300   -0.9520 C.2     1  UNL1       -0.0440
      7  C          8.0570    1.1790   -0.9100 C.2     1  UNL1        0.0080
      8  C          6.4840   -0.4570   -1.6010 C.2     1  UNL1        0.0540
      9  C          9.0350    0.4300   -1.5090 C.2     1  UNL1        0.0510
     10  C          7.5060   -1.2050   -2.2050 C.2     1  UNL1        0.1660
     11  C          8.8090   -0.7610   -2.1640 C.2     1  UNL1        0.1650
     12  O          7.5480   -2.4030   -2.9090 O.2     1  UNL1       -0.4540
     13  O          9.6210   -1.6840   -2.8360 O.2     1  UNL1       -0.4540
     14  C          8.8820   -2.8870   -2.8540 C.3     1  UNL1        0.4680
@<TRIPOS>BOND
     1    12    14    1
     2    12    10    1
     3    14    13    1
     4    13    11    1
     5    10    11    2
     6    10     8    1
     7    11     9    1
     8     8     6    2
     9     9     7    2
    10     6     7    1
    11     6     5    1
    12     5     1    1
    13     1     2    1
    14     2     3    1
    15     2     4    2
