@<TRIPOS>MOLECULE
/home/cewinharhar/GITHUB/reincatalyze/data/processed/docking_pred/2023-May-31-1727_sub9_nm5_bs15_s42_ex16_mel10_mts10000_k50_ec075_g099_lra3e-4_lrc3e-3/551c5941f3bf749be32b1159c48b101be233bdbe_ligand_9.pdbqt
 14 15 0 0 0
SMALL
GASTEIGER

@<TRIPOS>ATOM
      1  C          6.1950    1.2590    0.8750 C.3     1  UNL1        0.0800
      2  C          5.5500    0.4380    1.9150 C.2     1  UNL1        0.1300
      3  C          6.3490   -0.7660    2.3820 C.3     1  UNL1        0.0870
      4  O          4.4810    0.6090    2.4290 O.2     1  UNL1       -0.3000
      5  C          5.8620    0.9190   -0.5240 C.3     1  UNL1        0.0430
      6  C          6.8510    0.1430   -1.2780 C.2     1  UNL1       -0.0440
      7  C          7.8380    0.7510   -2.0550 C.2     1  UNL1        0.0080
      8  C          6.8430   -1.2310   -1.2130 C.2     1  UNL1        0.0540
      9  C          8.7480   -0.0360   -2.7130 C.2     1  UNL1        0.0510
     10  C          7.7870   -2.0120   -1.8970 C.2     1  UNL1        0.1660
     11  C          8.7610   -1.4120   -2.6640 C.2     1  UNL1        0.1650
     12  O          8.0170   -3.3780   -2.0130 O.2     1  UNL1       -0.4540
     13  O          9.5650   -2.4090   -3.2320 O.2     1  UNL1       -0.4540
     14  C          9.3630   -3.5540   -2.4290 C.3     1  UNL1        0.4680
@<TRIPOS>BOND
     1    13    11    1
     2    13    14    1
     3     9    11    2
     4     9     7    1
     5    11    10    1
     6    14    12    1
     7     7     6    2
     8    12    10    1
     9    10     8    2
    10     6     8    1
    11     6     5    1
    12     5     1    1
    13     1     2    1
    14     2     3    1
    15     2     4    2
