@<TRIPOS>MOLECULE
/home/cewinharhar/GITHUB/reincatalyze/data/processed/docking_pred/2023-May-31-1727_sub9_nm5_bs15_s42_ex16_mel10_mts10000_k50_ec075_g099_lra3e-4_lrc3e-3/551c5941f3bf749be32b1159c48b101be233bdbe_ligand_9.pdbqt
 14 15 0 0 0
SMALL
GASTEIGER

@<TRIPOS>ATOM
      1  C          6.8260    1.0800    1.3300 C.3     1  UNL1        0.0800
      2  C          5.3660    1.1940    1.4980 C.2     1  UNL1        0.1300
      3  C          4.6740    2.1500    0.5410 C.3     1  UNL1        0.0870
      4  O          4.6700    0.6270    2.2920 O.2     1  UNL1       -0.3000
      5  C          7.3280    1.1360   -0.0590 C.3     1  UNL1        0.0430
      6  C          7.6390   -0.1390   -0.7110 C.2     1  UNL1       -0.0440
      7  C          7.7390   -0.2610   -2.0980 C.2     1  UNL1        0.0080
      8  C          7.8720   -1.2620    0.0490 C.2     1  UNL1        0.0540
      9  C          8.0610   -1.4790   -2.6390 C.2     1  UNL1        0.0510
     10  C          8.2000   -2.4970   -0.5310 C.2     1  UNL1        0.1660
     11  C          8.2980   -2.6170   -1.9000 C.2     1  UNL1        0.1650
     12  O          8.4810   -3.7620   -0.0300 O.2     1  UNL1       -0.4540
     13  O          8.6340   -3.9400   -2.2130 O.2     1  UNL1       -0.4540
     14  C          9.1950   -4.4720   -1.0310 C.3     1  UNL1        0.4680
@<TRIPOS>BOND
     1     9     7    1
     2     9    11    2
     3    13    11    1
     4    13    14    1
     5     7     6    2
     6    11    10    1
     7    14    12    1
     8     6     5    1
     9     6     8    1
    10    10    12    1
    11    10     8    2
    12     5     1    1
    13     3     2    1
    14     1     2    1
    15     2     4    2
