@<TRIPOS>MOLECULE
/home/cewinharhar/GITHUB/reincatalyze/data/processed/docking_pred/2023-May-31-1727_sub9_nm5_bs15_s42_ex16_mel10_mts10000_k50_ec075_g099_lra3e-4_lrc3e-3/551c5941f3bf749be32b1159c48b101be233bdbe_ligand_9.pdbqt
 14 15 0 0 0
SMALL
GASTEIGER

@<TRIPOS>ATOM
      1  C          5.6310   -0.0540    2.1030 C.3     1  UNL1        0.0800
      2  C          4.6640    1.0270    1.8390 C.2     1  UNL1        0.1300
      3  C          5.0560    1.9950    0.7360 C.3     1  UNL1        0.0870
      4  O          3.6160    1.2260    2.3860 O.2     1  UNL1       -0.3000
      5  C          6.9750    0.1160    1.5120 C.3     1  UNL1        0.0430
      6  C          7.3640   -0.8180    0.4530 C.2     1  UNL1       -0.0440
      7  C          7.2900   -0.4820   -0.9000 C.2     1  UNL1        0.0080
      8  C          7.8480   -2.0640    0.7770 C.2     1  UNL1        0.0540
      9  C          7.6970   -1.3970   -1.8370 C.2     1  UNL1        0.0510
     10  C          8.2580   -2.9810   -0.2030 C.2     1  UNL1        0.1660
     11  C          8.1840   -2.6500   -1.5380 C.2     1  UNL1        0.1650
     12  O          8.7730   -4.2710   -0.1720 O.2     1  UNL1       -0.4540
     13  O          8.6500   -3.7310   -2.2970 O.2     1  UNL1       -0.4540
     14  C          9.4340   -4.5000   -1.4080 C.3     1  UNL1        0.4680
@<TRIPOS>BOND
     1    13    11    1
     2    13    14    1
     3     9    11    2
     4     9     7    1
     5    11    10    1
     6    14    12    1
     7     7     6    2
     8    10    12    1
     9    10     8    2
    10     6     8    1
    11     6     5    1
    12     3     2    1
    13     5     1    1
    14     2     1    1
    15     2     4    2
