MODEL 1
REMARK VINA RESULT:      -7.6      0.000      0.000
REMARK SMILES CC(=O)CCc1ccc2c(c1)OCO2
REMARK SMILES IDX 4 1 2 2 1 3 3 4 5 5 6 6 7 7 11 8 8 9 10 10 9 11 12 12 14 13
REMARK SMILES IDX 13 14
REMARK H PARENT
REMARK Flexibility Score: inf
ROOT
ATOM      1  C   UNL     1       5.576   1.894   1.225  1.00  0.00     0.080 C 
ENDROOT
BRANCH   1   2
ATOM      2  C   UNL     1       5.070   0.753   2.009  1.00  0.00     0.130 C 
ATOM      3  C   UNL     1       6.043  -0.401   2.182  1.00  0.00     0.087 C 
ATOM      4  O   UNL     1       3.993   0.633   2.521  1.00  0.00    -0.300 OA
ENDBRANCH   1   2
BRANCH   1   5
ATOM      5  C   UNL     1       5.553   1.735  -0.245  1.00  0.00     0.043 C 
BRANCH   5   6
ATOM      6  C   UNL     1       6.653   0.983  -0.855  1.00  0.00    -0.044 A 
ATOM      7  C   UNL     1       7.990   1.344  -0.677  1.00  0.00     0.008 A 
ATOM      8  C   UNL     1       6.388  -0.135  -1.610  1.00  0.00     0.054 A 
ATOM      9  C   UNL     1       8.970   0.579  -1.255  1.00  0.00     0.051 A 
ATOM     10  C   UNL     1       7.411  -0.901  -2.190  1.00  0.00     0.166 A 
ATOM     11  C   UNL     1       8.729  -0.544  -2.015  1.00  0.00     0.165 A 
ATOM     12  O   UNL     1       7.440  -2.045  -2.979  1.00  0.00    -0.454 OA
ATOM     13  O   UNL     1       9.539  -1.466  -2.692  1.00  0.00    -0.454 OA
ATOM     14  C   UNL     1       8.735  -2.615  -2.859  1.00  0.00     0.468 C 
ENDBRANCH   5   6
ENDBRANCH   1   5
TORSDOF 3
ENDMDL
MODEL 2
REMARK VINA RESULT:      -7.1      1.865      2.342
REMARK SMILES CC(=O)CCc1ccc2c(c1)OCO2
REMARK SMILES IDX 4 1 2 2 1 3 3 4 5 5 6 6 7 7 11 8 8 9 10 10 9 11 12 12 14 13
REMARK SMILES IDX 13 14
REMARK H PARENT
REMARK Flexibility Score: inf
ROOT
ATOM      1  C   UNL     1       5.811   1.344  -0.278  1.00  0.00     0.080 C 
ENDROOT
BRANCH   1   2
ATOM      2  C   UNL     1       5.135   1.332   1.032  1.00  0.00     0.130 C 
ATOM      3  C   UNL     1       5.441   0.130   1.910  1.00  0.00     0.087 C 
ATOM      4  O   UNL     1       4.383   2.150   1.479  1.00  0.00    -0.300 OA
ENDBRANCH   1   2
BRANCH   1   5
ATOM      5  C   UNL     1       7.238   0.960  -0.279  1.00  0.00     0.043 C 
BRANCH   5   6
ATOM      6  C   UNL     1       7.583  -0.338  -0.867  1.00  0.00    -0.044 A 
ATOM      7  C   UNL     1       7.650  -0.535  -2.247  1.00  0.00     0.008 A 
ATOM      8  C   UNL     1       7.882  -1.405  -0.052  1.00  0.00     0.054 A 
ATOM      9  C   UNL     1       8.006  -1.768  -2.727  1.00  0.00     0.051 A 
ATOM     10  C   UNL     1       8.244  -2.657  -0.571  1.00  0.00     0.166 A 
ATOM     11  C   UNL     1       8.309  -2.852  -1.933  1.00  0.00     0.165 A 
ATOM     12  O   UNL     1       8.589  -3.880  -0.008  1.00  0.00    -0.454 OA
ATOM     13  O   UNL     1       8.690  -4.177  -2.181  1.00  0.00    -0.454 OA
ATOM     14  C   UNL     1       9.304  -4.618  -0.988  1.00  0.00     0.468 C 
ENDBRANCH   5   6
ENDBRANCH   1   5
TORSDOF 3
ENDMDL
MODEL 3
REMARK VINA RESULT:      -6.9      1.062      1.141
REMARK SMILES CC(=O)CCc1ccc2c(c1)OCO2
REMARK SMILES IDX 4 1 2 2 1 3 3 4 5 5 6 6 7 7 11 8 8 9 10 10 9 11 12 12 14 13
REMARK SMILES IDX 13 14
REMARK H PARENT
REMARK Flexibility Score: inf
ROOT
ATOM      1  C   UNL     1       6.195   1.259   0.875  1.00  0.00     0.080 C 
ENDROOT
BRANCH   1   2
ATOM      2  C   UNL     1       5.550   0.438   1.915  1.00  0.00     0.130 C 
ATOM      3  C   UNL     1       6.349  -0.766   2.382  1.00  0.00     0.087 C 
ATOM      4  O   UNL     1       4.481   0.609   2.429  1.00  0.00    -0.300 OA
ENDBRANCH   1   2
BRANCH   1   5
ATOM      5  C   UNL     1       5.862   0.919  -0.524  1.00  0.00     0.043 C 
BRANCH   5   6
ATOM      6  C   UNL     1       6.851   0.143  -1.278  1.00  0.00    -0.044 A 
ATOM      7  C   UNL     1       7.838   0.751  -2.055  1.00  0.00     0.008 A 
ATOM      8  C   UNL     1       6.843  -1.231  -1.213  1.00  0.00     0.054 A 
ATOM      9  C   UNL     1       8.748  -0.036  -2.713  1.00  0.00     0.051 A 
ATOM     10  C   UNL     1       7.787  -2.012  -1.897  1.00  0.00     0.166 A 
ATOM     11  C   UNL     1       8.761  -1.412  -2.664  1.00  0.00     0.165 A 
ATOM     12  O   UNL     1       8.017  -3.378  -2.013  1.00  0.00    -0.454 OA
ATOM     13  O   UNL     1       9.565  -2.409  -3.232  1.00  0.00    -0.454 OA
ATOM     14  C   UNL     1       9.363  -3.554  -2.429  1.00  0.00     0.468 C 
ENDBRANCH   5   6
ENDBRANCH   1   5
TORSDOF 3
ENDMDL
MODEL 4
REMARK VINA RESULT:      -6.8      1.827      2.320
REMARK SMILES CC(=O)CCc1ccc2c(c1)OCO2
REMARK SMILES IDX 4 1 2 2 1 3 3 4 5 5 6 6 7 7 11 8 8 9 10 10 9 11 12 12 14 13
REMARK SMILES IDX 13 14
REMARK H PARENT
REMARK Flexibility Score: inf
ROOT
ATOM      1  C   UNL     1       6.826   1.080   1.330  1.00  0.00     0.080 C 
ENDROOT
BRANCH   1   2
ATOM      2  C   UNL     1       5.366   1.194   1.498  1.00  0.00     0.130 C 
ATOM      3  C   UNL     1       4.674   2.150   0.541  1.00  0.00     0.087 C 
ATOM      4  O   UNL     1       4.670   0.627   2.292  1.00  0.00    -0.300 OA
ENDBRANCH   1   2
BRANCH   1   5
ATOM      5  C   UNL     1       7.328   1.136  -0.059  1.00  0.00     0.043 C 
BRANCH   5   6
ATOM      6  C   UNL     1       7.639  -0.139  -0.711  1.00  0.00    -0.044 A 
ATOM      7  C   UNL     1       7.739  -0.261  -2.098  1.00  0.00     0.008 A 
ATOM      8  C   UNL     1       7.872  -1.262   0.049  1.00  0.00     0.054 A 
ATOM      9  C   UNL     1       8.061  -1.479  -2.639  1.00  0.00     0.051 A 
ATOM     10  C   UNL     1       8.200  -2.497  -0.531  1.00  0.00     0.166 A 
ATOM     11  C   UNL     1       8.298  -2.617  -1.900  1.00  0.00     0.165 A 
ATOM     12  O   UNL     1       8.481  -3.762  -0.030  1.00  0.00    -0.454 OA
ATOM     13  O   UNL     1       8.634  -3.940  -2.213  1.00  0.00    -0.454 OA
ATOM     14  C   UNL     1       9.195  -4.472  -1.031  1.00  0.00     0.468 C 
ENDBRANCH   5   6
ENDBRANCH   1   5
TORSDOF 3
ENDMDL
MODEL 5
REMARK VINA RESULT:      -6.8      1.945      2.527
REMARK SMILES CC(=O)CCc1ccc2c(c1)OCO2
REMARK SMILES IDX 4 1 2 2 1 3 3 4 5 5 6 6 7 7 11 8 8 9 10 10 9 11 12 12 14 13
REMARK SMILES IDX 13 14
REMARK H PARENT
REMARK Flexibility Score: inf
ROOT
ATOM      1  C   UNL     1       5.631  -0.054   2.103  1.00  0.00     0.080 C 
ENDROOT
BRANCH   1   2
ATOM      2  C   UNL     1       4.664   1.027   1.839  1.00  0.00     0.130 C 
ATOM      3  C   UNL     1       5.056   1.995   0.736  1.00  0.00     0.087 C 
ATOM      4  O   UNL     1       3.616   1.226   2.386  1.00  0.00    -0.300 OA
ENDBRANCH   1   2
BRANCH   1   5
ATOM      5  C   UNL     1       6.975   0.116   1.512  1.00  0.00     0.043 C 
BRANCH   5   6
ATOM      6  C   UNL     1       7.364  -0.818   0.453  1.00  0.00    -0.044 A 
ATOM      7  C   UNL     1       7.290  -0.482  -0.900  1.00  0.00     0.008 A 
ATOM      8  C   UNL     1       7.848  -2.064   0.777  1.00  0.00     0.054 A 
ATOM      9  C   UNL     1       7.697  -1.397  -1.837  1.00  0.00     0.051 A 
ATOM     10  C   UNL     1       8.258  -2.981  -0.203  1.00  0.00     0.166 A 
ATOM     11  C   UNL     1       8.184  -2.650  -1.538  1.00  0.00     0.165 A 
ATOM     12  O   UNL     1       8.773  -4.271  -0.172  1.00  0.00    -0.454 OA
ATOM     13  O   UNL     1       8.650  -3.731  -2.297  1.00  0.00    -0.454 OA
ATOM     14  C   UNL     1       9.434  -4.500  -1.408  1.00  0.00     0.468 C 
ENDBRANCH   5   6
ENDBRANCH   1   5
TORSDOF 3
ENDMDL
