@<TRIPOS>MOLECULE
/home/cewinharhar/GITHUB/reincatalyze/data/processed/docking_pred/2023-May-31-1727_sub9_nm5_bs15_s42_ex16_mel10_mts10000_k50_ec075_g099_lra3e-4_lrc3e-3/551c5941f3bf749be32b1159c48b101be233bdbe_ligand_9.pdbqt
 14 15 0 0 0
SMALL
GASTEIGER

@<TRIPOS>ATOM
      1  C          5.5760    1.8940    1.2250 C.3     1  UNL1        0.0800
      2  C          5.0700    0.7530    2.0090 C.2     1  UNL1        0.1300
      3  C          6.0430   -0.4010    2.1820 C.3     1  UNL1        0.0870
      4  O          3.9930    0.6330    2.5210 O.2     1  UNL1       -0.3000
      5  C          5.5530    1.7350   -0.2450 C.3     1  UNL1        0.0430
      6  C          6.6530    0.9830   -0.8550 C.2     1  UNL1       -0.0440
      7  C          7.9900    1.3440   -0.6770 C.2     1  UNL1        0.0080
      8  C          6.3880   -0.1350   -1.6100 C.2     1  UNL1        0.0540
      9  C          8.9700    0.5790   -1.2550 C.2     1  UNL1        0.0510
     10  C          7.4110   -0.9010   -2.1900 C.2     1  UNL1        0.1660
     11  C          8.7290   -0.5440   -2.0150 C.2     1  UNL1        0.1650
     12  O          7.4400   -2.0450   -2.9790 O.2     1  UNL1       -0.4540
     13  O          9.5390   -1.4660   -2.6920 O.2     1  UNL1       -0.4540
     14  C          8.7350   -2.6150   -2.8590 C.3     1  UNL1        0.4680
@<TRIPOS>BOND
     1    12    14    1
     2    12    10    1
     3    14    13    1
     4    13    11    1
     5    10    11    2
     6    10     8    1
     7    11     9    1
     8     8     6    2
     9     9     7    2
    10     6     7    1
    11     6     5    1
    12     5     1    1
    13     1     2    1
    14     2     3    1
    15     2     4    2
