@<TRIPOS>MOLECULE
/home/cewinharhar/GITHUB/reincatalyze/data/processed/docking_pred/2023-May-31-1727_sub9_nm5_bs15_s42_ex16_mel10_mts10000_k50_ec075_g099_lra3e-4_lrc3e-3/55f9a48c22e019202c812c896c561d7470c53219_ligand_9.pdbqt
 14 15 0 0 0
SMALL
GASTEIGER

@<TRIPOS>ATOM
      1  C          5.7720    1.8380    1.2950 C.3     1  UNL1        0.0800
      2  C          5.2050    0.6920    2.0280 C.2     1  UNL1        0.1300
      3  C          6.1470   -0.4830    2.2270 C.3     1  UNL1        0.0870
      4  O          4.1000    0.5820    2.4800 O.2     1  UNL1       -0.3000
      5  C          5.7370    1.7490   -0.1800 C.3     1  UNL1        0.0430
      6  C          6.8000    0.9770   -0.8290 C.2     1  UNL1       -0.0440
      7  C          8.1450    1.3410   -0.7420 C.2     1  UNL1        0.0080
      8  C          6.4900   -0.1650   -1.5310 C.2     1  UNL1        0.0540
      9  C          9.0880    0.5560   -1.3520 C.2     1  UNL1        0.0510
     10  C          7.4770   -0.9500   -2.1460 C.2     1  UNL1        0.1660
     11  C          8.8040   -0.5900   -2.0610 C.2     1  UNL1        0.1650
     12  O          7.4610   -2.1190   -2.8980 O.2     1  UNL1       -0.4540
     13  O          9.5720   -1.5340   -2.7540 O.2     1  UNL1       -0.4540
     14  C          8.7610   -2.6870   -2.8370 C.3     1  UNL1        0.4680
@<TRIPOS>BOND
     1    12    14    1
     2    12    10    1
     3    14    13    1
     4    13    11    1
     5    10    11    2
     6    10     8    1
     7    11     9    1
     8     8     6    2
     9     9     7    2
    10     6     7    1
    11     6     5    1
    12     5     1    1
    13     1     2    1
    14     2     3    1
    15     2     4    2
