@<TRIPOS>MOLECULE
/home/cewinharhar/GITHUB/reincatalyze/data/processed/docking_pred/2023-May-31-1727_sub9_nm5_bs15_s42_ex16_mel10_mts10000_k50_ec075_g099_lra3e-4_lrc3e-3/55f9a48c22e019202c812c896c561d7470c53219_ligand_9.pdbqt
 14 15 0 0 0
SMALL
GASTEIGER

@<TRIPOS>ATOM
      1  C          5.6950    0.0820    1.9690 C.3     1  UNL1        0.0800
      2  C          4.7030    1.1340    1.6810 C.2     1  UNL1        0.1300
      3  C          5.0340    2.0370    0.5050 C.3     1  UNL1        0.0870
      4  O          3.6780    1.3560    2.2610 O.2     1  UNL1       -0.3000
      5  C          7.0210    0.2490    1.3380 C.3     1  UNL1        0.0430
      6  C          7.4070   -0.7330    0.3200 C.2     1  UNL1       -0.0440
      7  C          7.3810   -0.4390   -1.0440 C.2     1  UNL1        0.0080
      8  C          7.8390   -1.9830    0.6980 C.2     1  UNL1        0.0540
      9  C          7.7810   -1.3970   -1.9400 C.2     1  UNL1        0.0510
     10  C          8.2440   -2.9440   -0.2410 C.2     1  UNL1        0.1660
     11  C          8.2180   -2.6550   -1.5870 C.2     1  UNL1        0.1650
     12  O          8.7140   -4.2490   -0.1540 O.2     1  UNL1       -0.4540
     13  O          8.6670   -3.7750   -2.2980 O.2     1  UNL1       -0.4540
     14  C          9.3990   -4.5400   -1.3630 C.3     1  UNL1        0.4680
@<TRIPOS>BOND
     1    13    11    1
     2    13    14    1
     3     9    11    2
     4     9     7    1
     5    11    10    1
     6    14    12    1
     7     7     6    2
     8    10    12    1
     9    10     8    2
    10     6     8    1
    11     6     5    1
    12     3     2    1
    13     5     1    1
    14     2     1    1
    15     2     4    2
