@<TRIPOS>MOLECULE
/home/cewinharhar/GITHUB/reincatalyze/data/processed/docking_pred/2023-May-31-1727_sub9_nm5_bs15_s42_ex16_mel10_mts10000_k50_ec075_g099_lra3e-4_lrc3e-3/55f9a48c22e019202c812c896c561d7470c53219_ligand_9.pdbqt
 14 15 0 0 0
SMALL
GASTEIGER

@<TRIPOS>ATOM
      1  C          6.1660    1.2500    0.8850 C.3     1  UNL1        0.0800
      2  C          5.5130    0.4200    1.9140 C.2     1  UNL1        0.1300
      3  C          6.3230   -0.7710    2.3980 C.3     1  UNL1        0.0870
      4  O          4.4320    0.5730    2.4060 O.2     1  UNL1       -0.3000
      5  C          5.8490    0.9150   -0.5190 C.3     1  UNL1        0.0430
      6  C          6.8500    0.1510   -1.2690 C.2     1  UNL1       -0.0440
      7  C          7.8750    0.7710   -1.9860 C.2     1  UNL1        0.0080
      8  C          6.8160   -1.2240   -1.2590 C.2     1  UNL1        0.0540
      9  C          8.7940   -0.0070   -2.6420 C.2     1  UNL1        0.0510
     10  C          7.7700   -1.9950   -1.9390 C.2     1  UNL1        0.1660
     11  C          8.7810   -1.3840   -2.6470 C.2     1  UNL1        0.1650
     12  O          7.9800   -3.3590   -2.1010 O.2     1  UNL1       -0.4540
     13  O          9.5870   -2.3730   -3.2260 O.2     1  UNL1       -0.4540
     14  C          9.3380   -3.5440   -2.4760 C.3     1  UNL1        0.4680
@<TRIPOS>BOND
     1    13    11    1
     2    13    14    1
     3    11     9    2
     4    11    10    1
     5     9     7    1
     6    14    12    1
     7    12    10    1
     8     7     6    2
     9    10     8    2
    10     6     8    1
    11     6     5    1
    12     5     1    1
    13     1     2    1
    14     2     3    1
    15     2     4    2
