@<TRIPOS>MOLECULE
/home/cewinharhar/GITHUB/reincatalyze/data/processed/docking_pred/2023-May-31-1727_sub9_nm5_bs15_s42_ex16_mel10_mts10000_k50_ec075_g099_lra3e-4_lrc3e-3/57f45ec83c8c38489066d898ddae0638f0802b8b_ligand_9.pdbqt
 14 15 0 0 0
SMALL
GASTEIGER

@<TRIPOS>ATOM
      1  C          5.5930    1.8680    1.2410 C.3     1  UNL1        0.0800
      2  C          5.0230    0.7420    2.0020 C.2     1  UNL1        0.1300
      3  C          5.9280   -0.4710    2.1430 C.3     1  UNL1        0.0870
      4  O          3.9430    0.6730    2.5170 O.2     1  UNL1       -0.3000
      5  C          5.5740    1.7340   -0.2310 C.3     1  UNL1        0.0430
      6  C          6.6700    0.9840   -0.8500 C.2     1  UNL1       -0.0440
      7  C          8.0070    1.3580   -0.6980 C.2     1  UNL1        0.0080
      8  C          6.4020   -0.1450   -1.5880 C.2     1  UNL1        0.0540
      9  C          8.9830    0.5940   -1.2820 C.2     1  UNL1        0.0510
     10  C          7.4220   -0.9090   -2.1750 C.2     1  UNL1        0.1660
     11  C          8.7400   -0.5400   -2.0250 C.2     1  UNL1        0.1650
     12  O          7.4490   -2.0620   -2.9500 O.2     1  UNL1       -0.4540
     13  O          9.5460   -1.4630   -2.7040 O.2     1  UNL1       -0.4540
     14  C          8.7500   -2.6210   -2.8450 C.3     1  UNL1        0.4680
@<TRIPOS>BOND
     1    12    14    1
     2    12    10    1
     3    14    13    1
     4    13    11    1
     5    10    11    2
     6    10     8    1
     7    11     9    1
     8     8     6    2
     9     9     7    2
    10     6     7    1
    11     6     5    1
    12     5     1    1
    13     1     2    1
    14     2     3    1
    15     2     4    2
