@<TRIPOS>MOLECULE
/home/cewinharhar/GITHUB/reincatalyze/data/processed/docking_pred/2023-May-31-1727_sub9_nm5_bs15_s42_ex16_mel10_mts10000_k50_ec075_g099_lra3e-4_lrc3e-3/57f45ec83c8c38489066d898ddae0638f0802b8b_ligand_9.pdbqt
 14 15 0 0 0
SMALL
GASTEIGER

@<TRIPOS>ATOM
      1  C          6.1790    1.2360    0.8700 C.3     1  UNL1        0.0800
      2  C          5.5260    0.4150    1.9060 C.2     1  UNL1        0.1300
      3  C          6.3330   -0.7740    2.3980 C.3     1  UNL1        0.0870
      4  O          4.4450    0.5760    2.3980 O.2     1  UNL1       -0.3000
      5  C          5.8500    0.9000   -0.5310 C.3     1  UNL1        0.0430
      6  C          6.8440    0.1360   -1.2890 C.2     1  UNL1       -0.0440
      7  C          7.8250    0.7550   -2.0650 C.2     1  UNL1        0.0080
      8  C          6.8480   -1.2380   -1.2280 C.2     1  UNL1        0.0540
      9  C          8.7410   -0.0220   -2.7260 C.2     1  UNL1        0.0510
     10  C          7.7980   -2.0100   -1.9150 C.2     1  UNL1        0.1660
     11  C          8.7660   -1.3990   -2.6810 C.2     1  UNL1        0.1650
     12  O          8.0400   -3.3730   -2.0350 O.2     1  UNL1       -0.4540
     13  O          9.5780   -2.3870   -3.2530 O.2     1  UNL1       -0.4540
     14  C          9.3870   -3.5350   -2.4530 C.3     1  UNL1        0.4680
@<TRIPOS>BOND
     1    13    11    1
     2    13    14    1
     3     9    11    2
     4     9     7    1
     5    11    10    1
     6    14    12    1
     7     7     6    2
     8    12    10    1
     9    10     8    2
    10     6     8    1
    11     6     5    1
    12     5     1    1
    13     1     2    1
    14     2     3    1
    15     2     4    2
