@<TRIPOS>MOLECULE
/home/cewinharhar/GITHUB/reincatalyze/data/processed/docking_pred/2023-May-31-1727_sub9_nm5_bs15_s42_ex16_mel10_mts10000_k50_ec075_g099_lra3e-4_lrc3e-3/5b0b3c1ad7e51cc604e9d3ba3e9be04905eaec91_ligand_9.pdbqt
 14 15 0 0 0
SMALL
GASTEIGER

@<TRIPOS>ATOM
      1  C          5.5860    1.8750    1.2410 C.3     1  UNL1        0.0800
      2  C          5.0220    0.7410    1.9930 C.2     1  UNL1        0.1300
      3  C          5.9400   -0.4610    2.1440 C.3     1  UNL1        0.0870
      4  O          3.9360    0.6570    2.4940 O.2     1  UNL1       -0.3000
      5  C          5.5760    1.7500   -0.2320 C.3     1  UNL1        0.0430
      6  C          6.6710    0.9980   -0.8480 C.2     1  UNL1       -0.0440
      7  C          8.0080    1.3670   -0.6920 C.2     1  UNL1        0.0080
      8  C          6.4010   -0.1300   -1.5880 C.2     1  UNL1        0.0540
      9  C          8.9840    0.6010   -1.2750 C.2     1  UNL1        0.0510
     10  C          7.4200   -0.8970   -2.1740 C.2     1  UNL1        0.1660
     11  C          8.7390   -0.5310   -2.0200 C.2     1  UNL1        0.1650
     12  O          7.4450   -2.0490   -2.9500 O.2     1  UNL1       -0.4540
     13  O          9.5440   -1.4560   -2.6970 O.2     1  UNL1       -0.4540
     14  C          8.7450   -2.6120   -2.8420 C.3     1  UNL1        0.4680
@<TRIPOS>BOND
     1    12    14    1
     2    12    10    1
     3    14    13    1
     4    13    11    1
     5    10    11    2
     6    10     8    1
     7    11     9    1
     8     8     6    2
     9     9     7    2
    10     6     7    1
    11     6     5    1
    12     5     1    1
    13     1     2    1
    14     2     3    1
    15     2     4    2
