MODEL 1
REMARK VINA RESULT:      -7.6      0.000      0.000
REMARK SMILES CC(=O)CCc1ccc2c(c1)OCO2
REMARK SMILES IDX 4 1 2 2 1 3 3 4 5 5 6 6 7 7 11 8 8 9 10 10 9 11 12 12 14 13
REMARK SMILES IDX 13 14
REMARK H PARENT
REMARK Flexibility Score: inf
ROOT
ATOM      1  C   UNL     1       5.586   1.875   1.241  1.00  0.00     0.080 C 
ENDROOT
BRANCH   1   2
ATOM      2  C   UNL     1       5.022   0.741   1.993  1.00  0.00     0.130 C 
ATOM      3  C   UNL     1       5.940  -0.461   2.144  1.00  0.00     0.087 C 
ATOM      4  O   UNL     1       3.936   0.657   2.494  1.00  0.00    -0.300 OA
ENDBRANCH   1   2
BRANCH   1   5
ATOM      5  C   UNL     1       5.576   1.750  -0.232  1.00  0.00     0.043 C 
BRANCH   5   6
ATOM      6  C   UNL     1       6.671   0.998  -0.848  1.00  0.00    -0.044 A 
ATOM      7  C   UNL     1       8.008   1.367  -0.692  1.00  0.00     0.008 A 
ATOM      8  C   UNL     1       6.401  -0.130  -1.588  1.00  0.00     0.054 A 
ATOM      9  C   UNL     1       8.984   0.601  -1.275  1.00  0.00     0.051 A 
ATOM     10  C   UNL     1       7.420  -0.897  -2.174  1.00  0.00     0.166 A 
ATOM     11  C   UNL     1       8.739  -0.531  -2.020  1.00  0.00     0.165 A 
ATOM     12  O   UNL     1       7.445  -2.049  -2.950  1.00  0.00    -0.454 OA
ATOM     13  O   UNL     1       9.544  -1.456  -2.697  1.00  0.00    -0.454 OA
ATOM     14  C   UNL     1       8.745  -2.612  -2.842  1.00  0.00     0.468 C 
ENDBRANCH   5   6
ENDBRANCH   1   5
TORSDOF 3
ENDMDL
MODEL 2
REMARK VINA RESULT:      -7.0      1.832      2.312
REMARK SMILES CC(=O)CCc1ccc2c(c1)OCO2
REMARK SMILES IDX 4 1 2 2 1 3 3 4 5 5 6 6 7 7 11 8 8 9 10 10 9 11 12 12 14 13
REMARK SMILES IDX 13 14
REMARK H PARENT
REMARK Flexibility Score: inf
ROOT
ATOM      1  C   UNL     1       5.738   1.302  -0.286  1.00  0.00     0.080 C 
ENDROOT
BRANCH   1   2
ATOM      2  C   UNL     1       5.134   1.322   1.058  1.00  0.00     0.130 C 
ATOM      3  C   UNL     1       5.529   0.170   1.966  1.00  0.00     0.087 C 
ATOM      4  O   UNL     1       4.378   2.133   1.512  1.00  0.00    -0.300 OA
ENDBRANCH   1   2
BRANCH   1   5
ATOM      5  C   UNL     1       7.178   0.976  -0.349  1.00  0.00     0.043 C 
BRANCH   5   6
ATOM      6  C   UNL     1       7.548  -0.321  -0.921  1.00  0.00    -0.044 A 
ATOM      7  C   UNL     1       7.688  -0.515  -2.296  1.00  0.00     0.008 A 
ATOM      8  C   UNL     1       7.798  -1.392  -0.095  1.00  0.00     0.054 A 
ATOM      9  C   UNL     1       8.063  -1.749  -2.760  1.00  0.00     0.051 A 
ATOM     10  C   UNL     1       8.181  -2.645  -0.597  1.00  0.00     0.166 A 
ATOM     11  C   UNL     1       8.319  -2.836  -1.954  1.00  0.00     0.165 A 
ATOM     12  O   UNL     1       8.490  -3.870  -0.019  1.00  0.00    -0.454 OA
ATOM     13  O   UNL     1       8.706  -4.163  -2.185  1.00  0.00    -0.454 OA
ATOM     14  C   UNL     1       9.253  -4.610  -0.962  1.00  0.00     0.468 C 
ENDBRANCH   5   6
ENDBRANCH   1   5
TORSDOF 3
ENDMDL
MODEL 3
REMARK VINA RESULT:      -7.0      1.089      1.174
REMARK SMILES CC(=O)CCc1ccc2c(c1)OCO2
REMARK SMILES IDX 4 1 2 2 1 3 3 4 5 5 6 6 7 7 11 8 8 9 10 10 9 11 12 12 14 13
REMARK SMILES IDX 13 14
REMARK H PARENT
REMARK Flexibility Score: inf
ROOT
ATOM      1  C   UNL     1       6.205   1.212   0.885  1.00  0.00     0.080 C 
ENDROOT
BRANCH   1   2
ATOM      2  C   UNL     1       5.536   0.397   1.915  1.00  0.00     0.130 C 
ATOM      3  C   UNL     1       6.325  -0.806   2.405  1.00  0.00     0.087 C 
ATOM      4  O   UNL     1       4.457   0.571   2.405  1.00  0.00    -0.300 OA
ENDBRANCH   1   2
BRANCH   1   5
ATOM      5  C   UNL     1       5.865   0.896  -0.518  1.00  0.00     0.043 C 
BRANCH   5   6
ATOM      6  C   UNL     1       6.846   0.126  -1.288  1.00  0.00    -0.044 A 
ATOM      7  C   UNL     1       7.791   0.738  -2.114  1.00  0.00     0.008 A 
ATOM      8  C   UNL     1       6.875  -1.246  -1.189  1.00  0.00     0.054 A 
ATOM      9  C   UNL     1       8.696  -0.043  -2.784  1.00  0.00     0.051 A 
ATOM     10  C   UNL     1       7.814  -2.021  -1.887  1.00  0.00     0.166 A 
ATOM     11  C   UNL     1       8.745  -1.417  -2.702  1.00  0.00     0.165 A 
ATOM     12  O   UNL     1       8.074  -3.383  -1.977  1.00  0.00    -0.454 OA
ATOM     13  O   UNL     1       9.554  -2.408  -3.274  1.00  0.00    -0.454 OA
ATOM     14  C   UNL     1       9.409  -3.537  -2.436  1.00  0.00     0.468 C 
ENDBRANCH   5   6
ENDBRANCH   1   5
TORSDOF 3
ENDMDL
MODEL 4
REMARK VINA RESULT:      -6.8      1.832      2.362
REMARK SMILES CC(=O)CCc1ccc2c(c1)OCO2
REMARK SMILES IDX 4 1 2 2 1 3 3 4 5 5 6 6 7 7 11 8 8 9 10 10 9 11 12 12 14 13
REMARK SMILES IDX 13 14
REMARK H PARENT
REMARK Flexibility Score: inf
ROOT
ATOM      1  C   UNL     1       6.859   1.030   1.439  1.00  0.00     0.080 C 
ENDROOT
BRANCH   1   2
ATOM      2  C   UNL     1       5.395   1.189   1.490  1.00  0.00     0.130 C 
ATOM      3  C   UNL     1       4.809   2.150   0.469  1.00  0.00     0.087 C 
ATOM      4  O   UNL     1       4.622   0.654   2.233  1.00  0.00    -0.300 OA
ENDBRANCH   1   2
BRANCH   1   5
ATOM      5  C   UNL     1       7.475   1.091   0.097  1.00  0.00     0.043 C 
BRANCH   5   6
ATOM      6  C   UNL     1       7.696  -0.181  -0.598  1.00  0.00    -0.044 A 
ATOM      7  C   UNL     1       7.648  -0.287  -1.989  1.00  0.00     0.008 A 
ATOM      8  C   UNL     1       7.990  -1.316   0.121  1.00  0.00     0.054 A 
ATOM      9  C   UNL     1       7.891  -1.503  -2.573  1.00  0.00     0.051 A 
ATOM     10  C   UNL     1       8.235  -2.548  -0.503  1.00  0.00     0.166 A 
ATOM     11  C   UNL     1       8.187  -2.653  -1.876  1.00  0.00     0.165 A 
ATOM     12  O   UNL     1       8.547  -3.823  -0.047  1.00  0.00    -0.454 OA
ATOM     13  O   UNL     1       8.467  -3.977  -2.236  1.00  0.00    -0.454 OA
ATOM     14  C   UNL     1       9.140  -4.532  -1.125  1.00  0.00     0.468 C 
ENDBRANCH   5   6
ENDBRANCH   1   5
TORSDOF 3
ENDMDL
MODEL 5
REMARK VINA RESULT:      -6.8      1.168      1.642
REMARK SMILES CC(=O)CCc1ccc2c(c1)OCO2
REMARK SMILES IDX 4 1 2 2 1 3 3 4 5 5 6 6 7 7 11 8 8 9 10 10 9 11 12 12 14 13
REMARK SMILES IDX 13 14
REMARK H PARENT
REMARK Flexibility Score: inf
ROOT
ATOM      1  C   UNL     1       5.372  -0.041   1.956  1.00  0.00     0.080 C 
ENDROOT
BRANCH   1   2
ATOM      2  C   UNL     1       4.417   1.078   1.860  1.00  0.00     0.130 C 
ATOM      3  C   UNL     1       4.738   2.117   0.799  1.00  0.00     0.087 C 
ATOM      4  O   UNL     1       3.430   1.260   2.514  1.00  0.00    -0.300 OA
ENDBRANCH   1   2
BRANCH   1   5
ATOM      5  C   UNL     1       6.789   0.287   1.691  1.00  0.00     0.043 C 
BRANCH   5   6
ATOM      6  C   UNL     1       7.322  -0.060   0.370  1.00  0.00    -0.044 A 
ATOM      7  C   UNL     1       7.731   0.911  -0.545  1.00  0.00     0.008 A 
ATOM      8  C   UNL     1       7.459  -1.380   0.008  1.00  0.00     0.054 A 
ATOM      9  C   UNL     1       8.245   0.514  -1.752  1.00  0.00     0.051 A 
ATOM     10  C   UNL     1       7.989  -1.758  -1.234  1.00  0.00     0.166 A 
ATOM     11  C   UNL     1       8.392  -0.800  -2.138  1.00  0.00     0.165 A 
ATOM     12  O   UNL     1       8.239  -2.977  -1.854  1.00  0.00    -0.454 OA
ATOM     13  O   UNL     1       8.878  -1.440  -3.286  1.00  0.00    -0.454 OA
ATOM     14  C   UNL     1       9.202  -2.751  -2.874  1.00  0.00     0.468 C 
ENDBRANCH   5   6
ENDBRANCH   1   5
TORSDOF 3
ENDMDL
