@<TRIPOS>MOLECULE
/home/cewinharhar/GITHUB/reincatalyze/data/processed/docking_pred/2023-May-31-1727_sub9_nm5_bs15_s42_ex16_mel10_mts10000_k50_ec075_g099_lra3e-4_lrc3e-3/5b0b3c1ad7e51cc604e9d3ba3e9be04905eaec91_ligand_9.pdbqt
 14 15 0 0 0
SMALL
GASTEIGER

@<TRIPOS>ATOM
      1  C          5.3720   -0.0410    1.9560 C.3     1  UNL1        0.0800
      2  C          4.4170    1.0780    1.8600 C.2     1  UNL1        0.1300
      3  C          4.7380    2.1170    0.7990 C.3     1  UNL1        0.0870
      4  O          3.4300    1.2600    2.5140 O.2     1  UNL1       -0.3000
      5  C          6.7890    0.2870    1.6910 C.3     1  UNL1        0.0430
      6  C          7.3220   -0.0600    0.3700 C.2     1  UNL1       -0.0440
      7  C          7.7310    0.9110   -0.5450 C.2     1  UNL1        0.0080
      8  C          7.4590   -1.3800    0.0080 C.2     1  UNL1        0.0540
      9  C          8.2450    0.5140   -1.7520 C.2     1  UNL1        0.0510
     10  C          7.9890   -1.7580   -1.2340 C.2     1  UNL1        0.1660
     11  C          8.3920   -0.8000   -2.1380 C.2     1  UNL1        0.1650
     12  O          8.2390   -2.9770   -1.8540 O.2     1  UNL1       -0.4540
     13  O          8.8780   -1.4400   -3.2860 O.2     1  UNL1       -0.4540
     14  C          9.2020   -2.7510   -2.8740 C.3     1  UNL1        0.4680
@<TRIPOS>BOND
     1    13    14    1
     2    13    11    1
     3    14    12    1
     4    11     9    2
     5    11    10    1
     6    12    10    1
     7     9     7    1
     8    10     8    2
     9     7     6    2
    10     8     6    1
    11     6     5    1
    12     3     2    1
    13     5     1    1
    14     2     1    1
    15     2     4    2
