@<TRIPOS>MOLECULE
/home/cewinharhar/GITHUB/reincatalyze/data/processed/docking_pred/2023-May-31-1727_sub9_nm5_bs15_s42_ex16_mel10_mts10000_k50_ec075_g099_lra3e-4_lrc3e-3/5ba5439e64352188cd964ddb86dd28d806e95272_ligand_9.pdbqt
 14 15 0 0 0
SMALL
GASTEIGER

@<TRIPOS>ATOM
      1  C          6.1650    1.2740    0.8000 C.3     1  UNL1        0.0800
      2  C          5.4560    0.4980    1.8330 C.2     1  UNL1        0.1300
      3  C          6.1660   -0.7590    2.3040 C.3     1  UNL1        0.0870
      4  O          4.3970    0.7420    2.3390 O.2     1  UNL1       -0.3000
      5  C          5.8440    0.9370   -0.6030 C.3     1  UNL1        0.0430
      6  C          6.8350    0.1540   -1.3470 C.2     1  UNL1       -0.0440
      7  C          7.8060    0.7540   -2.1500 C.2     1  UNL1        0.0080
      8  C          6.8470   -1.2170   -1.2450 C.2     1  UNL1        0.0540
      9  C          8.7190   -0.0380   -2.7970 C.2     1  UNL1        0.0510
     10  C          7.7940   -2.0040   -1.9180 C.2     1  UNL1        0.1660
     11  C          8.7510   -1.4120   -2.7110 C.2     1  UNL1        0.1650
     12  O          8.0410   -3.3690   -2.0000 O.2     1  UNL1       -0.4540
     13  O          9.5630   -2.4130   -3.2610 O.2     1  UNL1       -0.4540
     14  C          9.3850   -3.5380   -2.4260 C.3     1  UNL1        0.4680
@<TRIPOS>BOND
     1    13    11    1
     2    13    14    1
     3     9    11    2
     4     9     7    1
     5    11    10    1
     6    14    12    1
     7     7     6    2
     8    12    10    1
     9    10     8    2
    10     6     8    1
    11     6     5    1
    12     5     1    1
    13     1     2    1
    14     2     3    1
    15     2     4    2
