@<TRIPOS>MOLECULE
/home/cewinharhar/GITHUB/reincatalyze/data/processed/docking_pred/2023-May-31-1727_sub9_nm5_bs15_s42_ex16_mel10_mts10000_k50_ec075_g099_lra3e-4_lrc3e-3/5ba5439e64352188cd964ddb86dd28d806e95272_ligand_9.pdbqt
 14 15 0 0 0
SMALL
GASTEIGER

@<TRIPOS>ATOM
      1  C          5.5270    1.9520    1.2010 C.3     1  UNL1        0.0800
      2  C          5.0490    0.8040    1.9920 C.2     1  UNL1        0.1300
      3  C          6.0600   -0.3120    2.1950 C.3     1  UNL1        0.0870
      4  O          3.9690    0.6510    2.4880 O.2     1  UNL1       -0.3000
      5  C          5.5150    1.7820   -0.2670 C.3     1  UNL1        0.0430
      6  C          6.6140    1.0170   -0.8630 C.2     1  UNL1       -0.0440
      7  C          7.9510    1.3790   -0.6910 C.2     1  UNL1        0.0080
      8  C          6.3470   -0.1150   -1.5970 C.2     1  UNL1        0.0540
      9  C          8.9300    0.6020   -1.2540 C.2     1  UNL1        0.0510
     10  C          7.3700   -0.8930   -2.1620 C.2     1  UNL1        0.1660
     11  C          8.6890   -0.5340   -1.9930 C.2     1  UNL1        0.1650
     12  O          7.3980   -2.0510   -2.9290 O.2     1  UNL1       -0.4540
     13  O          9.4970   -1.4700   -2.6520 O.2     1  UNL1       -0.4540
     14  C          8.6920   -2.6210   -2.7990 C.3     1  UNL1        0.4680
@<TRIPOS>BOND
     1    12    14    1
     2    12    10    1
     3    14    13    1
     4    13    11    1
     5    10    11    2
     6    10     8    1
     7    11     9    1
     8     8     6    2
     9     9     7    2
    10     6     7    1
    11     6     5    1
    12     5     1    1
    13     1     2    1
    14     2     3    1
    15     2     4    2
