@<TRIPOS>MOLECULE
/home/cewinharhar/GITHUB/reincatalyze/data/processed/docking_pred/2023-May-31-1727_sub9_nm5_bs15_s42_ex16_mel10_mts10000_k50_ec075_g099_lra3e-4_lrc3e-3/5ba5439e64352188cd964ddb86dd28d806e95272_ligand_9.pdbqt
 14 15 0 0 0
SMALL
GASTEIGER

@<TRIPOS>ATOM
      1  C          5.7750    1.4560   -0.2430 C.3     1  UNL1        0.0800
      2  C          5.0830    1.3500    1.0550 C.2     1  UNL1        0.1300
      3  C          5.5110    0.1810    1.9260 C.3     1  UNL1        0.0870
      4  O          4.2330    2.0700    1.4960 O.2     1  UNL1       -0.3000
      5  C          7.2050    1.0830   -0.2500 C.3     1  UNL1        0.0430
      6  C          7.5600   -0.2020   -0.8580 C.2     1  UNL1       -0.0440
      7  C          7.6790   -0.3640   -2.2390 C.2     1  UNL1        0.0080
      8  C          7.8160   -1.2930   -0.0610 C.2     1  UNL1        0.0540
      9  C          8.0410   -1.5890   -2.7370 C.2     1  UNL1        0.0510
     10  C          8.1850   -2.5360   -0.5980 C.2     1  UNL1        0.1660
     11  C          8.3020   -2.6960   -1.9610 C.2     1  UNL1        0.1650
     12  O          8.4960   -3.7760   -0.0530 O.2     1  UNL1       -0.4540
     13  O          8.6790   -4.0180   -2.2280 O.2     1  UNL1       -0.4540
     14  C          9.2410   -4.4970   -1.0240 C.3     1  UNL1        0.4680
@<TRIPOS>BOND
     1     9     7    1
     2     9    11    2
     3     7     6    2
     4    13    11    1
     5    13    14    1
     6    11    10    1
     7    14    12    1
     8     6     5    1
     9     6     8    1
    10    10     8    2
    11    10    12    1
    12     5     1    1
    13     1     2    1
    14     2     4    2
    15     2     3    1
