@<TRIPOS>MOLECULE
/home/cewinharhar/GITHUB/reincatalyze/data/processed/docking_pred/2023-May-31-1727_sub9_nm5_bs15_s42_ex16_mel10_mts10000_k50_ec075_g099_lra3e-4_lrc3e-3/5ba5439e64352188cd964ddb86dd28d806e95272_ligand_9.pdbqt
 14 15 0 0 0
SMALL
GASTEIGER

@<TRIPOS>ATOM
      1  C          5.3630   -0.0630    1.9570 C.3     1  UNL1        0.0800
      2  C          4.4180    1.0630    1.8540 C.2     1  UNL1        0.1300
      3  C          4.7510    2.0960    0.7910 C.3     1  UNL1        0.0870
      4  O          3.4290    1.2550    2.5030 O.2     1  UNL1       -0.3000
      5  C          6.7840    0.2540    1.7030 C.3     1  UNL1        0.0430
      6  C          7.3210   -0.0850    0.3830 C.2     1  UNL1       -0.0440
      7  C          7.7370    0.8910   -0.5250 C.2     1  UNL1        0.0080
      8  C          7.4560   -1.4030    0.0120 C.2     1  UNL1        0.0540
      9  C          8.2550    0.5010   -1.7320 C.2     1  UNL1        0.0510
     10  C          7.9900   -1.7740   -1.2320 C.2     1  UNL1        0.1660
     11  C          8.4000   -0.8100   -2.1270 C.2     1  UNL1        0.1650
     12  O          8.2390   -2.9890   -1.8590 O.2     1  UNL1       -0.4540
     13  O          8.8880   -1.4430   -3.2770 O.2     1  UNL1       -0.4540
     14  C          9.2060   -2.7590   -2.8730 C.3     1  UNL1        0.4680
@<TRIPOS>BOND
     1    13    14    1
     2    13    11    1
     3    14    12    1
     4    11     9    2
     5    11    10    1
     6    12    10    1
     7     9     7    1
     8    10     8    2
     9     7     6    2
    10     8     6    1
    11     6     5    1
    12     3     2    1
    13     5     1    1
    14     2     1    1
    15     2     4    2
