MODEL 1
REMARK VINA RESULT:      -7.6      0.000      0.000
REMARK SMILES CC(=O)CCc1ccc2c(c1)OCO2
REMARK SMILES IDX 4 1 2 2 1 3 3 4 5 5 6 6 7 7 11 8 8 9 10 10 9 11 12 12 14 13
REMARK SMILES IDX 13 14
REMARK H PARENT
REMARK Flexibility Score: inf
ROOT
ATOM      1  C   UNL     1       5.527   1.952   1.201  1.00  0.00     0.080 C 
ENDROOT
BRANCH   1   2
ATOM      2  C   UNL     1       5.049   0.804   1.992  1.00  0.00     0.130 C 
ATOM      3  C   UNL     1       6.060  -0.312   2.195  1.00  0.00     0.087 C 
ATOM      4  O   UNL     1       3.969   0.651   2.488  1.00  0.00    -0.300 OA
ENDBRANCH   1   2
BRANCH   1   5
ATOM      5  C   UNL     1       5.515   1.782  -0.267  1.00  0.00     0.043 C 
BRANCH   5   6
ATOM      6  C   UNL     1       6.614   1.017  -0.863  1.00  0.00    -0.044 A 
ATOM      7  C   UNL     1       7.951   1.379  -0.691  1.00  0.00     0.008 A 
ATOM      8  C   UNL     1       6.347  -0.115  -1.597  1.00  0.00     0.054 A 
ATOM      9  C   UNL     1       8.930   0.602  -1.254  1.00  0.00     0.051 A 
ATOM     10  C   UNL     1       7.370  -0.893  -2.162  1.00  0.00     0.166 A 
ATOM     11  C   UNL     1       8.689  -0.534  -1.993  1.00  0.00     0.165 A 
ATOM     12  O   UNL     1       7.398  -2.051  -2.929  1.00  0.00    -0.454 OA
ATOM     13  O   UNL     1       9.497  -1.470  -2.652  1.00  0.00    -0.454 OA
ATOM     14  C   UNL     1       8.692  -2.621  -2.799  1.00  0.00     0.468 C 
ENDBRANCH   5   6
ENDBRANCH   1   5
TORSDOF 3
ENDMDL
MODEL 2
REMARK VINA RESULT:      -7.0      1.793      2.229
REMARK SMILES CC(=O)CCc1ccc2c(c1)OCO2
REMARK SMILES IDX 4 1 2 2 1 3 3 4 5 5 6 6 7 7 11 8 8 9 10 10 9 11 12 12 14 13
REMARK SMILES IDX 13 14
REMARK H PARENT
REMARK Flexibility Score: inf
ROOT
ATOM      1  C   UNL     1       5.775   1.456  -0.243  1.00  0.00     0.080 C 
ENDROOT
BRANCH   1   2
ATOM      2  C   UNL     1       5.083   1.350   1.055  1.00  0.00     0.130 C 
ATOM      3  C   UNL     1       5.511   0.181   1.926  1.00  0.00     0.087 C 
ATOM      4  O   UNL     1       4.233   2.070   1.496  1.00  0.00    -0.300 OA
ENDBRANCH   1   2
BRANCH   1   5
ATOM      5  C   UNL     1       7.205   1.083  -0.250  1.00  0.00     0.043 C 
BRANCH   5   6
ATOM      6  C   UNL     1       7.560  -0.202  -0.858  1.00  0.00    -0.044 A 
ATOM      7  C   UNL     1       7.679  -0.364  -2.239  1.00  0.00     0.008 A 
ATOM      8  C   UNL     1       7.816  -1.293  -0.061  1.00  0.00     0.054 A 
ATOM      9  C   UNL     1       8.041  -1.589  -2.737  1.00  0.00     0.051 A 
ATOM     10  C   UNL     1       8.185  -2.536  -0.598  1.00  0.00     0.166 A 
ATOM     11  C   UNL     1       8.302  -2.696  -1.961  1.00  0.00     0.165 A 
ATOM     12  O   UNL     1       8.496  -3.776  -0.053  1.00  0.00    -0.454 OA
ATOM     13  O   UNL     1       8.679  -4.018  -2.228  1.00  0.00    -0.454 OA
ATOM     14  C   UNL     1       9.241  -4.497  -1.024  1.00  0.00     0.468 C 
ENDBRANCH   5   6
ENDBRANCH   1   5
TORSDOF 3
ENDMDL
MODEL 3
REMARK VINA RESULT:      -6.9      1.076      1.171
REMARK SMILES CC(=O)CCc1ccc2c(c1)OCO2
REMARK SMILES IDX 4 1 2 2 1 3 3 4 5 5 6 6 7 7 11 8 8 9 10 10 9 11 12 12 14 13
REMARK SMILES IDX 13 14
REMARK H PARENT
REMARK Flexibility Score: inf
ROOT
ATOM      1  C   UNL     1       6.165   1.274   0.800  1.00  0.00     0.080 C 
ENDROOT
BRANCH   1   2
ATOM      2  C   UNL     1       5.456   0.498   1.833  1.00  0.00     0.130 C 
ATOM      3  C   UNL     1       6.166  -0.759   2.304  1.00  0.00     0.087 C 
ATOM      4  O   UNL     1       4.397   0.742   2.339  1.00  0.00    -0.300 OA
ENDBRANCH   1   2
BRANCH   1   5
ATOM      5  C   UNL     1       5.844   0.937  -0.603  1.00  0.00     0.043 C 
BRANCH   5   6
ATOM      6  C   UNL     1       6.835   0.154  -1.347  1.00  0.00    -0.044 A 
ATOM      7  C   UNL     1       7.806   0.754  -2.150  1.00  0.00     0.008 A 
ATOM      8  C   UNL     1       6.847  -1.217  -1.245  1.00  0.00     0.054 A 
ATOM      9  C   UNL     1       8.719  -0.038  -2.797  1.00  0.00     0.051 A 
ATOM     10  C   UNL     1       7.794  -2.004  -1.918  1.00  0.00     0.166 A 
ATOM     11  C   UNL     1       8.751  -1.412  -2.711  1.00  0.00     0.165 A 
ATOM     12  O   UNL     1       8.041  -3.369  -2.000  1.00  0.00    -0.454 OA
ATOM     13  O   UNL     1       9.563  -2.413  -3.261  1.00  0.00    -0.454 OA
ATOM     14  C   UNL     1       9.385  -3.538  -2.426  1.00  0.00     0.468 C 
ENDBRANCH   5   6
ENDBRANCH   1   5
TORSDOF 3
ENDMDL
MODEL 4
REMARK VINA RESULT:      -6.8      1.161      1.666
REMARK SMILES CC(=O)CCc1ccc2c(c1)OCO2
REMARK SMILES IDX 4 1 2 2 1 3 3 4 5 5 6 6 7 7 11 8 8 9 10 10 9 11 12 12 14 13
REMARK SMILES IDX 13 14
REMARK H PARENT
REMARK Flexibility Score: inf
ROOT
ATOM      1  C   UNL     1       5.363  -0.063   1.957  1.00  0.00     0.080 C 
ENDROOT
BRANCH   1   2
ATOM      2  C   UNL     1       4.418   1.063   1.854  1.00  0.00     0.130 C 
ATOM      3  C   UNL     1       4.751   2.096   0.791  1.00  0.00     0.087 C 
ATOM      4  O   UNL     1       3.429   1.255   2.503  1.00  0.00    -0.300 OA
ENDBRANCH   1   2
BRANCH   1   5
ATOM      5  C   UNL     1       6.784   0.254   1.703  1.00  0.00     0.043 C 
BRANCH   5   6
ATOM      6  C   UNL     1       7.321  -0.085   0.383  1.00  0.00    -0.044 A 
ATOM      7  C   UNL     1       7.737   0.891  -0.525  1.00  0.00     0.008 A 
ATOM      8  C   UNL     1       7.456  -1.403   0.012  1.00  0.00     0.054 A 
ATOM      9  C   UNL     1       8.255   0.501  -1.732  1.00  0.00     0.051 A 
ATOM     10  C   UNL     1       7.990  -1.774  -1.232  1.00  0.00     0.166 A 
ATOM     11  C   UNL     1       8.400  -0.810  -2.127  1.00  0.00     0.165 A 
ATOM     12  O   UNL     1       8.239  -2.989  -1.859  1.00  0.00    -0.454 OA
ATOM     13  O   UNL     1       8.888  -1.443  -3.277  1.00  0.00    -0.454 OA
ATOM     14  C   UNL     1       9.206  -2.759  -2.873  1.00  0.00     0.468 C 
ENDBRANCH   5   6
ENDBRANCH   1   5
TORSDOF 3
ENDMDL
MODEL 5
REMARK VINA RESULT:      -6.7      1.951      2.536
REMARK SMILES CC(=O)CCc1ccc2c(c1)OCO2
REMARK SMILES IDX 4 1 2 2 1 3 3 4 5 5 6 6 7 7 11 8 8 9 10 10 9 11 12 12 14 13
REMARK SMILES IDX 13 14
REMARK H PARENT
REMARK Flexibility Score: inf
ROOT
ATOM      1  C   UNL     1       5.608   0.013   2.036  1.00  0.00     0.080 C 
ENDROOT
BRANCH   1   2
ATOM      2  C   UNL     1       4.641   1.102   1.810  1.00  0.00     0.130 C 
ATOM      3  C   UNL     1       4.986   2.053   0.676  1.00  0.00     0.087 C 
ATOM      4  O   UNL     1       3.626   1.322   2.409  1.00  0.00    -0.300 OA
ENDBRANCH   1   2
BRANCH   1   5
ATOM      5  C   UNL     1       6.940   0.186   1.420  1.00  0.00     0.043 C 
BRANCH   5   6
ATOM      6  C   UNL     1       7.336  -0.783   0.395  1.00  0.00    -0.044 A 
ATOM      7  C   UNL     1       7.246  -0.501  -0.970  1.00  0.00     0.008 A 
ATOM      8  C   UNL     1       7.840  -2.008   0.763  1.00  0.00     0.054 A 
ATOM      9  C   UNL     1       7.660  -1.445  -1.874  1.00  0.00     0.051 A 
ATOM     10  C   UNL     1       8.257  -2.956  -0.184  1.00  0.00     0.166 A 
ATOM     11  C   UNL     1       8.168  -2.678  -1.530  1.00  0.00     0.165 A 
ATOM     12  O   UNL     1       8.791  -4.236  -0.107  1.00  0.00    -0.454 OA
ATOM     13  O   UNL     1       8.645  -3.781  -2.250  1.00  0.00    -0.454 OA
ATOM     14  C   UNL     1       9.446  -4.504  -1.339  1.00  0.00     0.468 C 
ENDBRANCH   5   6
ENDBRANCH   1   5
TORSDOF 3
ENDMDL
