@<TRIPOS>MOLECULE
/home/cewinharhar/GITHUB/reincatalyze/data/processed/docking_pred/2023-May-31-1727_sub9_nm5_bs15_s42_ex16_mel10_mts10000_k50_ec075_g099_lra3e-4_lrc3e-3/5bd4159c0713ad18fb2d2a846002564f6b7df27c_ligand_9.pdbqt
 14 15 0 0 0
SMALL
GASTEIGER

@<TRIPOS>ATOM
      1  C          5.7040    1.3840   -0.2880 C.3     1  UNL1        0.0800
      2  C          5.0640    1.3990    1.0400 C.2     1  UNL1        0.1300
      3  C          5.5960    0.3760    2.0290 C.3     1  UNL1        0.0870
      4  O          4.1840    2.1160    1.4250 O.2     1  UNL1       -0.3000
      5  C          7.1510    1.0870   -0.3100 C.3     1  UNL1        0.0430
      6  C          7.5640   -0.1920   -0.8950 C.2     1  UNL1       -0.0440
      7  C          7.8220   -0.3380   -2.2590 C.2     1  UNL1        0.0080
      8  C          7.7380   -1.2930   -0.0890 C.2     1  UNL1        0.0540
      9  C          8.2310   -1.5580   -2.7330 C.2     1  UNL1        0.0510
     10  C          8.1590   -2.5300   -0.6010 C.2     1  UNL1        0.1660
     11  C          8.4120   -2.6740   -1.9470 C.2     1  UNL1        0.1650
     12  O          8.4120   -3.7770   -0.0430 O.2     1  UNL1       -0.4540
     13  O          8.8120   -3.9940   -2.1910 O.2     1  UNL1       -0.4540
     14  C          9.2500   -4.4880   -0.9420 C.3     1  UNL1        0.4680
@<TRIPOS>BOND
     1     9     7    1
     2     9    11    2
     3     7     6    2
     4    13    11    1
     5    13    14    1
     6    11    10    1
     7    14    12    1
     8     6     5    1
     9     6     8    1
    10    10     8    2
    11    10    12    1
    12     5     1    1
    13     1     2    1
    14     2     4    2
    15     2     3    1
