MODEL 1
REMARK VINA RESULT:      -7.6      0.000      0.000
REMARK SMILES CC(=O)CCc1ccc2c(c1)OCO2
REMARK SMILES IDX 4 1 2 2 1 3 3 4 5 5 6 6 7 7 11 8 8 9 10 10 9 11 12 12 14 13
REMARK SMILES IDX 13 14
REMARK H PARENT
REMARK Flexibility Score: inf
ROOT
ATOM      1  C   UNL     1       5.635   1.798   1.268  1.00  0.00     0.080 C 
ENDROOT
BRANCH   1   2
ATOM      2  C   UNL     1       5.080   0.657   2.018  1.00  0.00     0.130 C 
ATOM      3  C   UNL     1       6.010  -0.535   2.171  1.00  0.00     0.087 C 
ATOM      4  O   UNL     1       3.994   0.562   2.515  1.00  0.00    -0.300 OA
ENDBRANCH   1   2
BRANCH   1   5
ATOM      5  C   UNL     1       5.610   1.682  -0.206  1.00  0.00     0.043 C 
BRANCH   5   6
ATOM      6  C   UNL     1       6.701   0.935  -0.838  1.00  0.00    -0.044 A 
ATOM      7  C   UNL     1       8.038   1.313  -0.705  1.00  0.00     0.008 A 
ATOM      8  C   UNL     1       6.426  -0.198  -1.569  1.00  0.00     0.054 A 
ATOM      9  C   UNL     1       9.009   0.551  -1.301  1.00  0.00     0.051 A 
ATOM     10  C   UNL     1       7.440  -0.959  -2.169  1.00  0.00     0.166 A 
ATOM     11  C   UNL     1       8.759  -0.585  -2.038  1.00  0.00     0.165 A 
ATOM     12  O   UNL     1       7.460  -2.114  -2.942  1.00  0.00    -0.454 OA
ATOM     13  O   UNL     1       9.559  -1.507  -2.726  1.00  0.00    -0.454 OA
ATOM     14  C   UNL     1       8.764  -2.668  -2.854  1.00  0.00     0.468 C 
ENDBRANCH   5   6
ENDBRANCH   1   5
TORSDOF 3
ENDMDL
MODEL 2
REMARK VINA RESULT:      -7.0      1.734      2.161
REMARK SMILES CC(=O)CCc1ccc2c(c1)OCO2
REMARK SMILES IDX 4 1 2 2 1 3 3 4 5 5 6 6 7 7 11 8 8 9 10 10 9 11 12 12 14 13
REMARK SMILES IDX 13 14
REMARK H PARENT
REMARK Flexibility Score: inf
ROOT
ATOM      1  C   UNL     1       5.760   1.547  -0.154  1.00  0.00     0.080 C 
ENDROOT
BRANCH   1   2
ATOM      2  C   UNL     1       5.084   1.346   1.140  1.00  0.00     0.130 C 
ATOM      3  C   UNL     1       5.547   0.136   1.934  1.00  0.00     0.087 C 
ATOM      4  O   UNL     1       4.223   2.018   1.633  1.00  0.00    -0.300 OA
ENDBRANCH   1   2
BRANCH   1   5
ATOM      5  C   UNL     1       7.183   1.152  -0.215  1.00  0.00     0.043 C 
BRANCH   5   6
ATOM      6  C   UNL     1       7.494  -0.139  -0.834  1.00  0.00    -0.044 A 
ATOM      7  C   UNL     1       7.512  -0.316  -2.218  1.00  0.00     0.008 A 
ATOM      8  C   UNL     1       7.809  -1.222  -0.046  1.00  0.00     0.054 A 
ATOM      9  C   UNL     1       7.839  -1.545  -2.729  1.00  0.00     0.051 A 
ATOM     10  C   UNL     1       8.140  -2.470  -0.596  1.00  0.00     0.166 A 
ATOM     11  C   UNL     1       8.158  -2.644  -1.962  1.00  0.00     0.165 A 
ATOM     12  O   UNL     1       8.491  -3.704  -0.063  1.00  0.00    -0.454 OA
ATOM     13  O   UNL     1       8.516  -3.969  -2.243  1.00  0.00    -0.454 OA
ATOM     14  C   UNL     1       9.165  -4.435  -1.078  1.00  0.00     0.468 C 
ENDBRANCH   5   6
ENDBRANCH   1   5
TORSDOF 3
ENDMDL
MODEL 3
REMARK VINA RESULT:      -7.0      1.098      1.177
REMARK SMILES CC(=O)CCc1ccc2c(c1)OCO2
REMARK SMILES IDX 4 1 2 2 1 3 3 4 5 5 6 6 7 7 11 8 8 9 10 10 9 11 12 12 14 13
REMARK SMILES IDX 13 14
REMARK H PARENT
REMARK Flexibility Score: inf
ROOT
ATOM      1  C   UNL     1       6.277   1.164   0.907  1.00  0.00     0.080 C 
ENDROOT
BRANCH   1   2
ATOM      2  C   UNL     1       5.561   0.377   1.927  1.00  0.00     0.130 C 
ATOM      3  C   UNL     1       6.293  -0.857   2.428  1.00  0.00     0.087 C 
ATOM      4  O   UNL     1       4.482   0.594   2.401  1.00  0.00    -0.300 OA
ENDBRANCH   1   2
BRANCH   1   5
ATOM      5  C   UNL     1       5.924   0.882  -0.500  1.00  0.00     0.043 C 
BRANCH   5   6
ATOM      6  C   UNL     1       6.880   0.098  -1.286  1.00  0.00    -0.044 A 
ATOM      7  C   UNL     1       7.774   0.692  -2.178  1.00  0.00     0.008 A 
ATOM      8  C   UNL     1       6.936  -1.269  -1.138  1.00  0.00     0.054 A 
ATOM      9  C   UNL     1       8.660  -0.101  -2.861  1.00  0.00     0.051 A 
ATOM     10  C   UNL     1       7.854  -2.056  -1.850  1.00  0.00     0.166 A 
ATOM     11  C   UNL     1       8.736  -1.470  -2.731  1.00  0.00     0.165 A 
ATOM     12  O   UNL     1       8.131  -3.417  -1.902  1.00  0.00    -0.454 OA
ATOM     13  O   UNL     1       9.533  -2.470  -3.303  1.00  0.00    -0.454 OA
ATOM     14  C   UNL     1       9.446  -3.568  -2.418  1.00  0.00     0.468 C 
ENDBRANCH   5   6
ENDBRANCH   1   5
TORSDOF 3
ENDMDL
MODEL 4
REMARK VINA RESULT:      -6.7      1.160      1.625
REMARK SMILES CC(=O)CCc1ccc2c(c1)OCO2
REMARK SMILES IDX 4 1 2 2 1 3 3 4 5 5 6 6 7 7 11 8 8 9 10 10 9 11 12 12 14 13
REMARK SMILES IDX 13 14
REMARK H PARENT
REMARK Flexibility Score: inf
ROOT
ATOM      1  C   UNL     1       5.400  -0.048   1.946  1.00  0.00     0.080 C 
ENDROOT
BRANCH   1   2
ATOM      2  C   UNL     1       4.439   1.065   1.844  1.00  0.00     0.130 C 
ATOM      3  C   UNL     1       4.753   2.099   0.777  1.00  0.00     0.087 C 
ATOM      4  O   UNL     1       3.451   1.246   2.497  1.00  0.00    -0.300 OA
ENDBRANCH   1   2
BRANCH   1   5
ATOM      5  C   UNL     1       6.815   0.287   1.682  1.00  0.00     0.043 C 
BRANCH   5   6
ATOM      6  C   UNL     1       7.353  -0.064   0.365  1.00  0.00    -0.044 A 
ATOM      7  C   UNL     1       7.788   0.902  -0.543  1.00  0.00     0.008 A 
ATOM      8  C   UNL     1       7.468  -1.385  -0.002  1.00  0.00     0.054 A 
ATOM      9  C   UNL     1       8.305   0.500  -1.748  1.00  0.00     0.051 A 
ATOM     10  C   UNL     1       8.002  -1.769  -1.241  1.00  0.00     0.166 A 
ATOM     11  C   UNL     1       8.430  -0.814  -2.138  1.00  0.00     0.165 A 
ATOM     12  O   UNL     1       8.234  -2.989  -1.864  1.00  0.00    -0.454 OA
ATOM     13  O   UNL     1       8.914  -1.459  -3.284  1.00  0.00    -0.454 OA
ATOM     14  C   UNL     1       9.209  -2.778  -2.874  1.00  0.00     0.468 C 
ENDBRANCH   5   6
ENDBRANCH   1   5
TORSDOF 3
ENDMDL
MODEL 5
REMARK VINA RESULT:      -6.7      1.908      2.417
REMARK SMILES CC(=O)CCc1ccc2c(c1)OCO2
REMARK SMILES IDX 4 1 2 2 1 3 3 4 5 5 6 6 7 7 11 8 8 9 10 10 9 11 12 12 14 13
REMARK SMILES IDX 13 14
REMARK H PARENT
REMARK Flexibility Score: inf
ROOT
ATOM      1  C   UNL     1       6.541   0.653   1.681  1.00  0.00     0.080 C 
ENDROOT
BRANCH   1   2
ATOM      2  C   UNL     1       5.191   1.230   1.551  1.00  0.00     0.130 C 
ATOM      3  C   UNL     1       4.989   2.150   0.360  1.00  0.00     0.087 C 
ATOM      4  O   UNL     1       4.246   1.058   2.268  1.00  0.00    -0.300 OA
ENDBRANCH   1   2
BRANCH   1   5
ATOM      5  C   UNL     1       7.426   0.796   0.506  1.00  0.00     0.043 C 
BRANCH   5   6
ATOM      6  C   UNL     1       7.683  -0.408  -0.290  1.00  0.00    -0.044 A 
ATOM      7  C   UNL     1       7.639  -0.401  -1.685  1.00  0.00     0.008 A 
ATOM      8  C   UNL     1       8.006  -1.590   0.334  1.00  0.00     0.054 A 
ATOM      9  C   UNL     1       7.917  -1.558  -2.367  1.00  0.00     0.051 A 
ATOM     10  C   UNL     1       8.286  -2.760  -0.388  1.00  0.00     0.166 A 
ATOM     11  C   UNL     1       8.243  -2.753  -1.765  1.00  0.00     0.165 A 
ATOM     12  O   UNL     1       8.632  -4.060  -0.038  1.00  0.00    -0.454 OA
ATOM     13  O   UNL     1       8.559  -4.035  -2.232  1.00  0.00    -0.454 OA
ATOM     14  C   UNL     1       9.246  -4.661  -1.168  1.00  0.00     0.468 C 
ENDBRANCH   5   6
ENDBRANCH   1   5
TORSDOF 3
ENDMDL
