@<TRIPOS>MOLECULE
/home/cewinharhar/GITHUB/reincatalyze/data/processed/docking_pred/2023-May-31-1727_sub9_nm5_bs15_s42_ex16_mel10_mts10000_k50_ec075_g099_lra3e-4_lrc3e-3/5c54d156b22251270ecdcbd3d684e6dc7dd5ede7_ligand_9.pdbqt
 14 15 0 0 0
SMALL
GASTEIGER

@<TRIPOS>ATOM
      1  C          5.4000   -0.0480    1.9460 C.3     1  UNL1        0.0800
      2  C          4.4390    1.0650    1.8440 C.2     1  UNL1        0.1300
      3  C          4.7530    2.0990    0.7770 C.3     1  UNL1        0.0870
      4  O          3.4510    1.2460    2.4970 O.2     1  UNL1       -0.3000
      5  C          6.8150    0.2870    1.6820 C.3     1  UNL1        0.0430
      6  C          7.3530   -0.0640    0.3650 C.2     1  UNL1       -0.0440
      7  C          7.7880    0.9020   -0.5430 C.2     1  UNL1        0.0080
      8  C          7.4680   -1.3850   -0.0020 C.2     1  UNL1        0.0540
      9  C          8.3050    0.5000   -1.7480 C.2     1  UNL1        0.0510
     10  C          8.0020   -1.7690   -1.2410 C.2     1  UNL1        0.1660
     11  C          8.4300   -0.8140   -2.1380 C.2     1  UNL1        0.1650
     12  O          8.2340   -2.9890   -1.8640 O.2     1  UNL1       -0.4540
     13  O          8.9140   -1.4590   -3.2840 O.2     1  UNL1       -0.4540
     14  C          9.2090   -2.7780   -2.8740 C.3     1  UNL1        0.4680
@<TRIPOS>BOND
     1    13    14    1
     2    13    11    1
     3    14    12    1
     4    11     9    2
     5    11    10    1
     6    12    10    1
     7     9     7    1
     8    10     8    2
     9     7     6    2
    10     8     6    1
    11     6     5    1
    12     3     2    1
    13     5     1    1
    14     2     1    1
    15     2     4    2
