@<TRIPOS>MOLECULE
/home/cewinharhar/GITHUB/reincatalyze/data/processed/docking_pred/2023-May-31-1727_sub9_nm5_bs15_s42_ex16_mel10_mts10000_k50_ec075_g099_lra3e-4_lrc3e-3/5e677739909452415bd62a3bb65a8cc9d063ea2f_ligand_9.pdbqt
 14 15 0 0 0
SMALL
GASTEIGER

@<TRIPOS>ATOM
      1  C          5.6560    1.8590    1.2880 C.3     1  UNL1        0.0800
      2  C          5.0980    0.7140    2.0300 C.2     1  UNL1        0.1300
      3  C          6.0330   -0.4730    2.1930 C.3     1  UNL1        0.0870
      4  O          4.0070    0.6130    2.5150 O.2     1  UNL1       -0.3000
      5  C          5.6360    1.7520   -0.1860 C.3     1  UNL1        0.0430
      6  C          6.7190    0.9940   -0.8180 C.2     1  UNL1       -0.0440
      7  C          8.0610    1.3500   -0.6700 C.2     1  UNL1        0.0080
      8  C          6.4330   -0.1260   -1.5630 C.2     1  UNL1        0.0540
      9  C          9.0250    0.5790   -1.2670 C.2     1  UNL1        0.0510
     10  C          7.4400   -0.8970   -2.1640 C.2     1  UNL1        0.1660
     11  C          8.7630   -0.5450   -2.0180 C.2     1  UNL1        0.1650
     12  O          7.4480   -2.0430   -2.9490 O.2     1  UNL1       -0.4540
     13  O          9.5540   -1.4720   -2.7100 O.2     1  UNL1       -0.4540
     14  C          8.7420   -2.6190   -2.8570 C.3     1  UNL1        0.4680
@<TRIPOS>BOND
     1    12    14    1
     2    12    10    1
     3    14    13    1
     4    13    11    1
     5    10    11    2
     6    10     8    1
     7    11     9    1
     8     8     6    2
     9     9     7    2
    10     6     7    1
    11     6     5    1
    12     5     1    1
    13     1     2    1
    14     2     3    1
    15     2     4    2
