@<TRIPOS>MOLECULE
/home/cewinharhar/GITHUB/reincatalyze/data/processed/docking_pred/2023-May-31-1727_sub9_nm5_bs15_s42_ex16_mel10_mts10000_k50_ec075_g099_lra3e-4_lrc3e-3/5e677739909452415bd62a3bb65a8cc9d063ea2f_ligand_9.pdbqt
 14 15 0 0 0
SMALL
GASTEIGER

@<TRIPOS>ATOM
      1  C          5.7580    1.3660   -0.3090 C.3     1  UNL1        0.0800
      2  C          5.0940    1.3470    1.0070 C.2     1  UNL1        0.1300
      3  C          5.4620    0.1780    1.9050 C.3     1  UNL1        0.0870
      4  O          4.3070    2.1370    1.4450 O.2     1  UNL1       -0.3000
      5  C          7.1980    1.0300   -0.3160 C.3     1  UNL1        0.0430
      6  C          7.5820   -0.2580   -0.8990 C.2     1  UNL1       -0.0440
      7  C          7.7520   -0.4320   -2.2730 C.2     1  UNL1        0.0080
      8  C          7.8170   -1.3410   -0.0830 C.2     1  UNL1        0.0540
      9  C          8.1390   -1.6590   -2.7470 C.2     1  UNL1        0.0510
     10  C          8.2130   -2.5850   -0.5950 C.2     1  UNL1        0.1660
     11  C          8.3800   -2.7570   -1.9510 C.2     1  UNL1        0.1650
     12  O          8.5120   -3.8190   -0.0280 O.2     1  UNL1       -0.4540
     13  O          8.7740   -4.0800   -2.1920 O.2     1  UNL1       -0.4540
     14  C          9.2960   -4.5430   -0.9650 C.3     1  UNL1        0.4680
@<TRIPOS>BOND
     1     9     7    1
     2     9    11    2
     3     7     6    2
     4    13    11    1
     5    13    14    1
     6    11    10    1
     7    14    12    1
     8     6     5    1
     9     6     8    1
    10    10     8    2
    11    10    12    1
    12     5     1    1
    13     1     2    1
    14     2     4    2
    15     2     3    1
