@<TRIPOS>MOLECULE
/home/cewinharhar/GITHUB/reincatalyze/data/processed/docking_pred/2023-May-31-1727_sub9_nm5_bs15_s42_ex16_mel10_mts10000_k50_ec075_g099_lra3e-4_lrc3e-3/5f00cdda1ab61f28c1ea6d7129614616e9231d70_ligand_9.pdbqt
 14 15 0 0 0
SMALL
GASTEIGER

@<TRIPOS>ATOM
      1  C          6.2090    1.2050    0.8830 C.3     1  UNL1        0.0800
      2  C          5.5490    0.3860    1.9160 C.2     1  UNL1        0.1300
      3  C          6.3450   -0.8140    2.4010 C.3     1  UNL1        0.0870
      4  O          4.4710    0.5550    2.4110 O.2     1  UNL1       -0.3000
      5  C          5.8690    0.8830   -0.5190 C.3     1  UNL1        0.0430
      6  C          6.8510    0.1130   -1.2870 C.2     1  UNL1       -0.0440
      7  C          7.8010    0.7250   -2.1070 C.2     1  UNL1        0.0080
      8  C          6.8770   -1.2590   -1.1920 C.2     1  UNL1        0.0540
      9  C          8.7070   -0.0560   -2.7760 C.2     1  UNL1        0.0510
     10  C          7.8170   -2.0350   -1.8880 C.2     1  UNL1        0.1660
     11  C          8.7530   -1.4310   -2.6980 C.2     1  UNL1        0.1650
     12  O          8.0740   -3.3970   -1.9810 O.2     1  UNL1       -0.4540
     13  O          9.5610   -2.4220   -3.2690 O.2     1  UNL1       -0.4540
     14  C          9.4110   -3.5520   -2.4350 C.3     1  UNL1        0.4680
@<TRIPOS>BOND
     1    13    11    1
     2    13    14    1
     3     9    11    2
     4     9     7    1
     5    11    10    1
     6    14    12    1
     7     7     6    2
     8    12    10    1
     9    10     8    2
    10     6     8    1
    11     6     5    1
    12     5     1    1
    13     1     2    1
    14     2     3    1
    15     2     4    2
