@<TRIPOS>MOLECULE
/home/cewinharhar/GITHUB/reincatalyze/data/processed/docking_pred/2023-May-31-1727_sub9_nm5_bs15_s42_ex16_mel10_mts10000_k50_ec075_g099_lra3e-4_lrc3e-3/5f00cdda1ab61f28c1ea6d7129614616e9231d70_ligand_9.pdbqt
 14 15 0 0 0
SMALL
GASTEIGER

@<TRIPOS>ATOM
      1  C          5.4880   -0.0200    2.1020 C.3     1  UNL1        0.0800
      2  C          4.5380    1.0790    1.8510 C.2     1  UNL1        0.1300
      3  C          4.9300    2.0330    0.7350 C.3     1  UNL1        0.0870
      4  O          3.5060    1.3040    2.4170 O.2     1  UNL1       -0.3000
      5  C          6.8460    0.1520    1.5460 C.3     1  UNL1        0.0430
      6  C          7.2600   -0.7740    0.4890 C.2     1  UNL1       -0.0440
      7  C          7.1960   -0.4360   -0.8640 C.2     1  UNL1        0.0080
      8  C          7.7580   -2.0140    0.8160 C.2     1  UNL1        0.0540
      9  C          7.6260   -1.3420   -1.7980 C.2     1  UNL1        0.0510
     10  C          8.1910   -2.9220   -0.1620 C.2     1  UNL1        0.1660
     11  C          8.1280   -2.5890   -1.4970 C.2     1  UNL1        0.1650
     12  O          8.7240   -4.2060   -0.1280 O.2     1  UNL1       -0.4540
     13  O          8.6170   -3.6620   -2.2530 O.2     1  UNL1       -0.4540
     14  C          9.4010   -4.4220   -1.3570 C.3     1  UNL1        0.4680
@<TRIPOS>BOND
     1    13    11    1
     2    13    14    1
     3     9    11    2
     4     9     7    1
     5    11    10    1
     6    14    12    1
     7     7     6    2
     8    10    12    1
     9    10     8    2
    10     6     8    1
    11     6     5    1
    12     3     2    1
    13     5     1    1
    14     2     1    1
    15     2     4    2
