MODEL 1
REMARK VINA RESULT:      -7.6      0.000      0.000
REMARK SMILES CC(=O)CCc1ccc2c(c1)OCO2
REMARK SMILES IDX 4 1 2 2 1 3 3 4 5 5 6 6 7 7 11 8 8 9 10 10 9 11 12 12 14 13
REMARK SMILES IDX 13 14
REMARK H PARENT
REMARK Flexibility Score: inf
ROOT
ATOM      1  C   UNL     1       5.597   1.873   1.256  1.00  0.00     0.080 C 
ENDROOT
BRANCH   1   2
ATOM      2  C   UNL     1       5.020   0.735   1.995  1.00  0.00     0.130 C 
ATOM      3  C   UNL     1       5.921  -0.482   2.121  1.00  0.00     0.087 C 
ATOM      4  O   UNL     1       3.937   0.661   2.502  1.00  0.00    -0.300 OA
ENDBRANCH   1   2
BRANCH   1   5
ATOM      5  C   UNL     1       5.591   1.763  -0.218  1.00  0.00     0.043 C 
BRANCH   5   6
ATOM      6  C   UNL     1       6.680   1.004  -0.838  1.00  0.00    -0.044 A 
ATOM      7  C   UNL     1       8.019   1.371  -0.693  1.00  0.00     0.008 A 
ATOM      8  C   UNL     1       6.402  -0.128  -1.568  1.00  0.00     0.054 A 
ATOM      9  C   UNL     1       8.989   0.599  -1.279  1.00  0.00     0.051 A 
ATOM     10  C   UNL     1       7.415  -0.900  -2.157  1.00  0.00     0.166 A 
ATOM     11  C   UNL     1       8.736  -0.538  -2.015  1.00  0.00     0.165 A 
ATOM     12  O   UNL     1       7.431  -2.057  -2.926  1.00  0.00    -0.454 OA
ATOM     13  O   UNL     1       9.534  -1.469  -2.693  1.00  0.00    -0.454 OA
ATOM     14  C   UNL     1       8.730  -2.623  -2.824  1.00  0.00     0.468 C 
ENDBRANCH   5   6
ENDBRANCH   1   5
TORSDOF 3
ENDMDL
MODEL 2
REMARK VINA RESULT:      -7.0      1.805      2.265
REMARK SMILES CC(=O)CCc1ccc2c(c1)OCO2
REMARK SMILES IDX 4 1 2 2 1 3 3 4 5 5 6 6 7 7 11 8 8 9 10 10 9 11 12 12 14 13
REMARK SMILES IDX 13 14
REMARK H PARENT
REMARK Flexibility Score: inf
ROOT
ATOM      1  C   UNL     1       5.780   1.405  -0.255  1.00  0.00     0.080 C 
ENDROOT
BRANCH   1   2
ATOM      2  C   UNL     1       5.123   1.345   1.064  1.00  0.00     0.130 C 
ATOM      3  C   UNL     1       5.508   0.156   1.928  1.00  0.00     0.087 C 
ATOM      4  O   UNL     1       4.331   2.116   1.527  1.00  0.00    -0.300 OA
ENDBRANCH   1   2
BRANCH   1   5
ATOM      5  C   UNL     1       7.212   1.042  -0.286  1.00  0.00     0.043 C 
BRANCH   5   6
ATOM      6  C   UNL     1       7.563  -0.252  -0.878  1.00  0.00    -0.044 A 
ATOM      7  C   UNL     1       7.656  -0.438  -2.258  1.00  0.00     0.008 A 
ATOM      8  C   UNL     1       7.841  -1.327  -0.067  1.00  0.00     0.054 A 
ATOM      9  C   UNL     1       8.015  -1.669  -2.742  1.00  0.00     0.051 A 
ATOM     10  C   UNL     1       8.207  -2.577  -0.589  1.00  0.00     0.166 A 
ATOM     11  C   UNL     1       8.298  -2.761  -1.952  1.00  0.00     0.165 A 
ATOM     12  O   UNL     1       8.536  -3.806  -0.030  1.00  0.00    -0.454 OA
ATOM     13  O   UNL     1       8.677  -4.086  -2.203  1.00  0.00    -0.454 OA
ATOM     14  C   UNL     1       9.266  -4.540  -1.002  1.00  0.00     0.468 C 
ENDBRANCH   5   6
ENDBRANCH   1   5
TORSDOF 3
ENDMDL
MODEL 3
REMARK VINA RESULT:      -7.0      1.089      1.180
REMARK SMILES CC(=O)CCc1ccc2c(c1)OCO2
REMARK SMILES IDX 4 1 2 2 1 3 3 4 5 5 6 6 7 7 11 8 8 9 10 10 9 11 12 12 14 13
REMARK SMILES IDX 13 14
REMARK H PARENT
REMARK Flexibility Score: inf
ROOT
ATOM      1  C   UNL     1       6.209   1.205   0.883  1.00  0.00     0.080 C 
ENDROOT
BRANCH   1   2
ATOM      2  C   UNL     1       5.549   0.386   1.916  1.00  0.00     0.130 C 
ATOM      3  C   UNL     1       6.345  -0.814   2.401  1.00  0.00     0.087 C 
ATOM      4  O   UNL     1       4.471   0.555   2.411  1.00  0.00    -0.300 OA
ENDBRANCH   1   2
BRANCH   1   5
ATOM      5  C   UNL     1       5.869   0.883  -0.519  1.00  0.00     0.043 C 
BRANCH   5   6
ATOM      6  C   UNL     1       6.851   0.113  -1.287  1.00  0.00    -0.044 A 
ATOM      7  C   UNL     1       7.801   0.725  -2.107  1.00  0.00     0.008 A 
ATOM      8  C   UNL     1       6.877  -1.259  -1.192  1.00  0.00     0.054 A 
ATOM      9  C   UNL     1       8.707  -0.056  -2.776  1.00  0.00     0.051 A 
ATOM     10  C   UNL     1       7.817  -2.035  -1.888  1.00  0.00     0.166 A 
ATOM     11  C   UNL     1       8.753  -1.431  -2.698  1.00  0.00     0.165 A 
ATOM     12  O   UNL     1       8.074  -3.397  -1.981  1.00  0.00    -0.454 OA
ATOM     13  O   UNL     1       9.561  -2.422  -3.269  1.00  0.00    -0.454 OA
ATOM     14  C   UNL     1       9.411  -3.552  -2.435  1.00  0.00     0.468 C 
ENDBRANCH   5   6
ENDBRANCH   1   5
TORSDOF 3
ENDMDL
MODEL 4
REMARK VINA RESULT:      -6.8      1.914      2.498
REMARK SMILES CC(=O)CCc1ccc2c(c1)OCO2
REMARK SMILES IDX 4 1 2 2 1 3 3 4 5 5 6 6 7 7 11 8 8 9 10 10 9 11 12 12 14 13
REMARK SMILES IDX 13 14
REMARK H PARENT
REMARK Flexibility Score: inf
ROOT
ATOM      1  C   UNL     1       5.488  -0.020   2.102  1.00  0.00     0.080 C 
ENDROOT
BRANCH   1   2
ATOM      2  C   UNL     1       4.538   1.079   1.851  1.00  0.00     0.130 C 
ATOM      3  C   UNL     1       4.930   2.033   0.735  1.00  0.00     0.087 C 
ATOM      4  O   UNL     1       3.506   1.304   2.417  1.00  0.00    -0.300 OA
ENDBRANCH   1   2
BRANCH   1   5
ATOM      5  C   UNL     1       6.846   0.152   1.546  1.00  0.00     0.043 C 
BRANCH   5   6
ATOM      6  C   UNL     1       7.260  -0.774   0.489  1.00  0.00    -0.044 A 
ATOM      7  C   UNL     1       7.196  -0.436  -0.864  1.00  0.00     0.008 A 
ATOM      8  C   UNL     1       7.758  -2.014   0.816  1.00  0.00     0.054 A 
ATOM      9  C   UNL     1       7.626  -1.342  -1.798  1.00  0.00     0.051 A 
ATOM     10  C   UNL     1       8.191  -2.922  -0.162  1.00  0.00     0.166 A 
ATOM     11  C   UNL     1       8.128  -2.589  -1.497  1.00  0.00     0.165 A 
ATOM     12  O   UNL     1       8.724  -4.206  -0.128  1.00  0.00    -0.454 OA
ATOM     13  O   UNL     1       8.617  -3.662  -2.253  1.00  0.00    -0.454 OA
ATOM     14  C   UNL     1       9.401  -4.422  -1.357  1.00  0.00     0.468 C 
ENDBRANCH   5   6
ENDBRANCH   1   5
TORSDOF 3
ENDMDL
MODEL 5
REMARK VINA RESULT:      -6.7      1.083      1.586
REMARK SMILES CC(=O)CCc1ccc2c(c1)OCO2
REMARK SMILES IDX 4 1 2 2 1 3 3 4 5 5 6 6 7 7 11 8 8 9 10 10 9 11 12 12 14 13
REMARK SMILES IDX 13 14
REMARK H PARENT
REMARK Flexibility Score: inf
ROOT
ATOM      1  C   UNL     1       5.345  -0.043   1.980  1.00  0.00     0.080 C 
ENDROOT
BRANCH   1   2
ATOM      2  C   UNL     1       4.408   1.090   1.876  1.00  0.00     0.130 C 
ATOM      3  C   UNL     1       4.754   2.125   0.819  1.00  0.00     0.087 C 
ATOM      4  O   UNL     1       3.418   1.287   2.521  1.00  0.00    -0.300 OA
ENDBRANCH   1   2
BRANCH   1   5
ATOM      5  C   UNL     1       6.774   0.272   1.773  1.00  0.00     0.043 C 
BRANCH   5   6
ATOM      6  C   UNL     1       7.340  -0.012   0.452  1.00  0.00    -0.044 A 
ATOM      7  C   UNL     1       7.939   0.978  -0.330  1.00  0.00     0.008 A 
ATOM      8  C   UNL     1       7.316  -1.294  -0.046  1.00  0.00     0.054 A 
ATOM      9  C   UNL     1       8.472   0.635  -1.546  1.00  0.00     0.051 A 
ATOM     10  C   UNL     1       7.870  -1.617  -1.295  1.00  0.00     0.166 A 
ATOM     11  C   UNL     1       8.460  -0.640  -2.066  1.00  0.00     0.165 A 
ATOM     12  O   UNL     1       7.989  -2.789  -2.031  1.00  0.00    -0.454 OA
ATOM     13  O   UNL     1       8.927  -1.223  -3.251  1.00  0.00    -0.454 OA
ATOM     14  C   UNL     1       9.038  -2.603  -2.969  1.00  0.00     0.468 C 
ENDBRANCH   5   6
ENDBRANCH   1   5
TORSDOF 3
ENDMDL
