@<TRIPOS>MOLECULE
/home/cewinharhar/GITHUB/reincatalyze/data/processed/docking_pred/2023-May-31-1727_sub9_nm5_bs15_s42_ex16_mel10_mts10000_k50_ec075_g099_lra3e-4_lrc3e-3/5f7ce1df4e505eeb6c5bd28a98530cf3f623dbf2_ligand_9.pdbqt
 14 15 0 0 0
SMALL
GASTEIGER

@<TRIPOS>ATOM
      1  C          5.9850    1.2090   -0.2230 C.3     1  UNL1        0.0800
      2  C          5.9690    1.3220    1.2470 C.2     1  UNL1        0.1300
      3  C          5.1700    0.2520    1.9720 C.3     1  UNL1        0.0870
      4  O          6.5060    2.1490    1.9270 O.2     1  UNL1       -0.3000
      5  C          7.3150    1.0580   -0.8500 C.3     1  UNL1        0.0430
      6  C          7.7040   -0.2870   -1.2810 C.2     1  UNL1       -0.0440
      7  C          7.9640   -0.5940   -2.6180 C.2     1  UNL1        0.0080
      8  C          7.8530   -1.2920   -0.3530 C.2     1  UNL1        0.0540
      9  C          8.3500   -1.8680   -2.9460 C.2     1  UNL1        0.0510
     10  C          8.2510   -2.5870   -0.7170 C.2     1  UNL1        0.1660
     11  C          8.5060   -2.8900   -2.0360 C.2     1  UNL1        0.1650
     12  O          8.4760   -3.7670   -0.0180 O.2     1  UNL1       -0.4540
     13  O          8.8810   -4.2370   -2.1240 O.2     1  UNL1       -0.4540
     14  C          9.3040   -4.5920   -0.8250 C.3     1  UNL1        0.4680
@<TRIPOS>BOND
     1     9     7    1
     2     9    11    2
     3     7     6    2
     4    13    11    1
     5    13    14    1
     6    11    10    1
     7     6     5    1
     8     6     8    1
     9     5     1    1
    10    14    12    1
    11    10     8    2
    12    10    12    1
    13     1     2    1
    14     2     4    2
    15     2     3    1
