@<TRIPOS>MOLECULE
/home/cewinharhar/GITHUB/reincatalyze/data/processed/docking_pred/2023-May-31-1727_sub9_nm5_bs15_s42_ex16_mel10_mts10000_k50_ec075_g099_lra3e-4_lrc3e-3/5f7ce1df4e505eeb6c5bd28a98530cf3f623dbf2_ligand_9.pdbqt
 14 15 0 0 0
SMALL
GASTEIGER

@<TRIPOS>ATOM
      1  C          5.6280    0.9970    0.4910 C.3     1  UNL1        0.0800
      2  C          5.2380    0.5460    1.8390 C.2     1  UNL1        0.1300
      3  C          6.2610   -0.3180    2.5570 C.3     1  UNL1        0.0870
      4  O          4.2210    0.7800    2.4270 O.2     1  UNL1       -0.3000
      5  C          7.0540    0.8330    0.1360 C.3     1  UNL1        0.0430
      6  C          7.4270   -0.3840   -0.5900 C.2     1  UNL1       -0.0440
      7  C          7.4470   -0.4410   -1.9850 C.2     1  UNL1        0.0080
      8  C          7.8020   -1.5120    0.1020 C.2     1  UNL1        0.0540
      9  C          7.8330   -1.6050   -2.5990 C.2     1  UNL1        0.0510
     10  C          8.1930   -2.6900   -0.5520 C.2     1  UNL1        0.1660
     11  C          8.2120   -2.7470   -1.9280 C.2     1  UNL1        0.1650
     12  O          8.6100   -3.9450   -0.1260 O.2     1  UNL1       -0.4540
     13  O          8.6360   -4.0230   -2.3200 O.2     1  UNL1       -0.4540
     14  C          9.3150   -4.5510   -1.2000 C.3     1  UNL1        0.4680
@<TRIPOS>BOND
     1     9     7    1
     2     9    11    2
     3    13    11    1
     4    13    14    1
     5     7     6    2
     6    11    10    1
     7    14    12    1
     8     6     8    1
     9     6     5    1
    10    10    12    1
    11    10     8    2
    12     5     1    1
    13     1     2    1
    14     2     4    2
    15     2     3    1
