@<TRIPOS>MOLECULE
/home/cewinharhar/GITHUB/reincatalyze/data/processed/docking_pred/2023-May-31-1727_sub9_nm5_bs15_s42_ex16_mel10_mts10000_k50_ec075_g099_lra3e-4_lrc3e-3/5f7ce1df4e505eeb6c5bd28a98530cf3f623dbf2_ligand_9.pdbqt
 14 15 0 0 0
SMALL
GASTEIGER

@<TRIPOS>ATOM
      1  C          6.2210   -0.3580    2.3260 C.3     1  UNL1        0.0800
      2  C          5.1290    0.5540    1.9390 C.2     1  UNL1        0.1300
      3  C          5.3590    1.3350    0.6570 C.3     1  UNL1        0.0870
      4  O          4.0940    0.7460    2.5110 O.2     1  UNL1       -0.3000
      5  C          7.4920   -0.2020    1.5890 C.3     1  UNL1        0.0430
      6  C          7.7610   -1.1550    0.5080 C.2     1  UNL1       -0.0440
      7  C          7.6950   -0.7920   -0.8380 C.2     1  UNL1        0.0080
      8  C          8.1200   -2.4490    0.8050 C.2     1  UNL1        0.0540
      9  C          7.9860   -1.7280   -1.7960 C.2     1  UNL1        0.0510
     10  C          8.4130   -3.3880   -0.1960 C.2     1  UNL1        0.1660
     11  C          8.3470   -3.0290   -1.5240 C.2     1  UNL1        0.1650
     12  O          8.7920   -4.7250   -0.1940 O.2     1  UNL1       -0.4540
     13  O          8.6830   -4.1410   -2.3080 O.2     1  UNL1       -0.4540
     14  C          9.4010   -5.0010   -1.4470 C.3     1  UNL1        0.4680
@<TRIPOS>BOND
     1    13    11    1
     2    13    14    1
     3     9    11    2
     4     9     7    1
     5    11    10    1
     6    14    12    1
     7     7     6    2
     8    10    12    1
     9    10     8    2
    10     6     8    1
    11     6     5    1
    12     3     2    1
    13     5     1    1
    14     2     1    1
    15     2     4    2
