MODEL 1
REMARK VINA RESULT:      -7.5      0.000      0.000
REMARK SMILES CC(=O)CCc1ccc2c(c1)OCO2
REMARK SMILES IDX 4 1 2 2 1 3 3 4 5 5 6 6 7 7 11 8 8 9 10 10 9 11 12 12 14 13
REMARK SMILES IDX 13 14
REMARK H PARENT
REMARK Flexibility Score: inf
ROOT
ATOM      1  C   UNL     1       5.912   1.506   1.146  1.00  0.00     0.080 C 
ENDROOT
BRANCH   1   2
ATOM      2  C   UNL     1       5.321   0.466   2.007  1.00  0.00     0.130 C 
ATOM      3  C   UNL     1       6.212  -0.733   2.282  1.00  0.00     0.087 C 
ATOM      4  O   UNL     1       4.233   0.457   2.508  1.00  0.00    -0.300 OA
ENDBRANCH   1   2
BRANCH   1   5
ATOM      5  C   UNL     1       5.776   1.301  -0.311  1.00  0.00     0.043 C 
BRANCH   5   6
ATOM      6  C   UNL     1       6.860   0.588  -0.992  1.00  0.00    -0.044 A 
ATOM      7  C   UNL     1       8.162   1.089  -1.046  1.00  0.00     0.008 A 
ATOM      8  C   UNL     1       6.618  -0.632  -1.580  1.00  0.00     0.054 A 
ATOM      9  C   UNL     1       9.133   0.355  -1.676  1.00  0.00     0.051 A 
ATOM     10  C   UNL     1       7.632  -1.363  -2.219  1.00  0.00     0.166 A 
ATOM     11  C   UNL     1       8.916  -0.868  -2.273  1.00  0.00     0.165 A 
ATOM     12  O   UNL     1       7.680  -2.584  -2.880  1.00  0.00    -0.454 OA
ATOM     13  O   UNL     1       9.723  -1.784  -2.960  1.00  0.00    -0.454 OA
ATOM     14  C   UNL     1       9.033  -3.015  -2.890  1.00  0.00     0.468 C 
ENDBRANCH   5   6
ENDBRANCH   1   5
TORSDOF 3
ENDMDL
MODEL 2
REMARK VINA RESULT:      -6.6      1.752      2.194
REMARK SMILES CC(=O)CCc1ccc2c(c1)OCO2
REMARK SMILES IDX 4 1 2 2 1 3 3 4 5 5 6 6 7 7 11 8 8 9 10 10 9 11 12 12 14 13
REMARK SMILES IDX 13 14
REMARK H PARENT
REMARK Flexibility Score: inf
ROOT
ATOM      1  C   UNL     1       5.985   1.209  -0.223  1.00  0.00     0.080 C 
ENDROOT
BRANCH   1   2
ATOM      2  C   UNL     1       5.969   1.322   1.247  1.00  0.00     0.130 C 
ATOM      3  C   UNL     1       5.170   0.252   1.972  1.00  0.00     0.087 C 
ATOM      4  O   UNL     1       6.506   2.149   1.927  1.00  0.00    -0.300 OA
ENDBRANCH   1   2
BRANCH   1   5
ATOM      5  C   UNL     1       7.315   1.058  -0.850  1.00  0.00     0.043 C 
BRANCH   5   6
ATOM      6  C   UNL     1       7.704  -0.287  -1.281  1.00  0.00    -0.044 A 
ATOM      7  C   UNL     1       7.964  -0.594  -2.618  1.00  0.00     0.008 A 
ATOM      8  C   UNL     1       7.853  -1.292  -0.353  1.00  0.00     0.054 A 
ATOM      9  C   UNL     1       8.350  -1.868  -2.946  1.00  0.00     0.051 A 
ATOM     10  C   UNL     1       8.251  -2.587  -0.717  1.00  0.00     0.166 A 
ATOM     11  C   UNL     1       8.506  -2.890  -2.036  1.00  0.00     0.165 A 
ATOM     12  O   UNL     1       8.476  -3.767  -0.018  1.00  0.00    -0.454 OA
ATOM     13  O   UNL     1       8.881  -4.237  -2.124  1.00  0.00    -0.454 OA
ATOM     14  C   UNL     1       9.304  -4.592  -0.825  1.00  0.00     0.468 C 
ENDBRANCH   5   6
ENDBRANCH   1   5
TORSDOF 3
ENDMDL
MODEL 3
REMARK VINA RESULT:      -6.5      1.593      1.908
REMARK SMILES CC(=O)CCc1ccc2c(c1)OCO2
REMARK SMILES IDX 4 1 2 2 1 3 3 4 5 5 6 6 7 7 11 8 8 9 10 10 9 11 12 12 14 13
REMARK SMILES IDX 13 14
REMARK H PARENT
REMARK Flexibility Score: inf
ROOT
ATOM      1  C   UNL     1       5.628   0.997   0.491  1.00  0.00     0.080 C 
ENDROOT
BRANCH   1   2
ATOM      2  C   UNL     1       5.238   0.546   1.839  1.00  0.00     0.130 C 
ATOM      3  C   UNL     1       6.261  -0.318   2.557  1.00  0.00     0.087 C 
ATOM      4  O   UNL     1       4.221   0.780   2.427  1.00  0.00    -0.300 OA
ENDBRANCH   1   2
BRANCH   1   5
ATOM      5  C   UNL     1       7.054   0.833   0.136  1.00  0.00     0.043 C 
BRANCH   5   6
ATOM      6  C   UNL     1       7.427  -0.384  -0.590  1.00  0.00    -0.044 A 
ATOM      7  C   UNL     1       7.447  -0.441  -1.985  1.00  0.00     0.008 A 
ATOM      8  C   UNL     1       7.802  -1.512   0.102  1.00  0.00     0.054 A 
ATOM      9  C   UNL     1       7.833  -1.605  -2.599  1.00  0.00     0.051 A 
ATOM     10  C   UNL     1       8.193  -2.690  -0.552  1.00  0.00     0.166 A 
ATOM     11  C   UNL     1       8.212  -2.747  -1.928  1.00  0.00     0.165 A 
ATOM     12  O   UNL     1       8.610  -3.945  -0.126  1.00  0.00    -0.454 OA
ATOM     13  O   UNL     1       8.636  -4.023  -2.320  1.00  0.00    -0.454 OA
ATOM     14  C   UNL     1       9.315  -4.551  -1.200  1.00  0.00     0.468 C 
ENDBRANCH   5   6
ENDBRANCH   1   5
TORSDOF 3
ENDMDL
MODEL 4
REMARK VINA RESULT:      -6.4      1.057      1.096
REMARK SMILES CC(=O)CCc1ccc2c(c1)OCO2
REMARK SMILES IDX 4 1 2 2 1 3 3 4 5 5 6 6 7 7 11 8 8 9 10 10 9 11 12 12 14 13
REMARK SMILES IDX 13 14
REMARK H PARENT
REMARK Flexibility Score: inf
ROOT
ATOM      1  C   UNL     1       6.431   1.946   1.498  1.00  0.00     0.080 C 
ENDROOT
BRANCH   1   2
ATOM      2  C   UNL     1       6.311   0.581   2.042  1.00  0.00     0.130 C 
ATOM      3  C   UNL     1       4.905   0.004   2.048  1.00  0.00     0.087 C 
ATOM      4  O   UNL     1       7.183  -0.117   2.475  1.00  0.00    -0.300 OA
ENDBRANCH   1   2
BRANCH   1   5
ATOM      5  C   UNL     1       6.427   2.062   0.024  1.00  0.00     0.043 C 
BRANCH   5   6
ATOM      6  C   UNL     1       7.269   1.124  -0.724  1.00  0.00    -0.044 A 
ATOM      7  C   UNL     1       8.648   1.299  -0.848  1.00  0.00     0.008 A 
ATOM      8  C   UNL     1       6.709   0.012  -1.309  1.00  0.00     0.054 A 
ATOM      9  C   UNL     1       9.378   0.368  -1.540  1.00  0.00     0.051 A 
ATOM     10  C   UNL     1       7.481  -0.926  -2.011  1.00  0.00     0.166 A 
ATOM     11  C   UNL     1       8.842  -0.753  -2.135  1.00  0.00     0.165 A 
ATOM     12  O   UNL     1       7.198  -2.108  -2.685  1.00  0.00    -0.454 OA
ATOM     13  O   UNL     1       9.366  -1.820  -2.874  1.00  0.00    -0.454 OA
ATOM     14  C   UNL     1       8.405  -2.850  -2.776  1.00  0.00     0.468 C 
ENDBRANCH   5   6
ENDBRANCH   1   5
TORSDOF 3
ENDMDL
MODEL 5
REMARK VINA RESULT:      -6.3      1.946      2.521
REMARK SMILES CC(=O)CCc1ccc2c(c1)OCO2
REMARK SMILES IDX 4 1 2 2 1 3 3 4 5 5 6 6 7 7 11 8 8 9 10 10 9 11 12 12 14 13
REMARK SMILES IDX 13 14
REMARK H PARENT
REMARK Flexibility Score: inf
ROOT
ATOM      1  C   UNL     1       6.221  -0.358   2.326  1.00  0.00     0.080 C 
ENDROOT
BRANCH   1   2
ATOM      2  C   UNL     1       5.129   0.554   1.939  1.00  0.00     0.130 C 
ATOM      3  C   UNL     1       5.359   1.335   0.657  1.00  0.00     0.087 C 
ATOM      4  O   UNL     1       4.094   0.746   2.511  1.00  0.00    -0.300 OA
ENDBRANCH   1   2
BRANCH   1   5
ATOM      5  C   UNL     1       7.492  -0.202   1.589  1.00  0.00     0.043 C 
BRANCH   5   6
ATOM      6  C   UNL     1       7.761  -1.155   0.508  1.00  0.00    -0.044 A 
ATOM      7  C   UNL     1       7.695  -0.792  -0.838  1.00  0.00     0.008 A 
ATOM      8  C   UNL     1       8.120  -2.449   0.805  1.00  0.00     0.054 A 
ATOM      9  C   UNL     1       7.986  -1.728  -1.796  1.00  0.00     0.051 A 
ATOM     10  C   UNL     1       8.413  -3.388  -0.196  1.00  0.00     0.166 A 
ATOM     11  C   UNL     1       8.347  -3.029  -1.524  1.00  0.00     0.165 A 
ATOM     12  O   UNL     1       8.792  -4.725  -0.194  1.00  0.00    -0.454 OA
ATOM     13  O   UNL     1       8.683  -4.141  -2.308  1.00  0.00    -0.454 OA
ATOM     14  C   UNL     1       9.401  -5.001  -1.447  1.00  0.00     0.468 C 
ENDBRANCH   5   6
ENDBRANCH   1   5
TORSDOF 3
ENDMDL
