@<TRIPOS>MOLECULE
/home/cewinharhar/GITHUB/reincatalyze/data/processed/docking_pred/2023-May-31-1727_sub9_nm5_bs15_s42_ex16_mel10_mts10000_k50_ec075_g099_lra3e-4_lrc3e-3/5f7ce1df4e505eeb6c5bd28a98530cf3f623dbf2_ligand_9.pdbqt
 14 15 0 0 0
SMALL
GASTEIGER

@<TRIPOS>ATOM
      1  C          6.4310    1.9460    1.4980 C.3     1  UNL1        0.0800
      2  C          6.3110    0.5810    2.0420 C.2     1  UNL1        0.1300
      3  C          4.9050    0.0040    2.0480 C.3     1  UNL1        0.0870
      4  O          7.1830   -0.1170    2.4750 O.2     1  UNL1       -0.3000
      5  C          6.4270    2.0620    0.0240 C.3     1  UNL1        0.0430
      6  C          7.2690    1.1240   -0.7240 C.2     1  UNL1       -0.0440
      7  C          8.6480    1.2990   -0.8480 C.2     1  UNL1        0.0080
      8  C          6.7090    0.0120   -1.3090 C.2     1  UNL1        0.0540
      9  C          9.3780    0.3680   -1.5400 C.2     1  UNL1        0.0510
     10  C          7.4810   -0.9260   -2.0110 C.2     1  UNL1        0.1660
     11  C          8.8420   -0.7530   -2.1350 C.2     1  UNL1        0.1650
     12  O          7.1980   -2.1080   -2.6850 O.2     1  UNL1       -0.4540
     13  O          9.3660   -1.8200   -2.8740 O.2     1  UNL1       -0.4540
     14  C          8.4050   -2.8500   -2.7760 C.3     1  UNL1        0.4680
@<TRIPOS>BOND
     1    13    14    1
     2    13    11    1
     3    14    12    1
     4    12    10    1
     5    11    10    2
     6    11     9    1
     7    10     8    1
     8     9     7    2
     9     8     6    2
    10     7     6    1
    11     6     5    1
    12     5     1    1
    13     1     2    1
    14     2     3    1
    15     2     4    2
