@<TRIPOS>MOLECULE
/home/cewinharhar/GITHUB/reincatalyze/data/processed/docking_pred/2023-May-31-1727_sub9_nm5_bs15_s42_ex16_mel10_mts10000_k50_ec075_g099_lra3e-4_lrc3e-3/6070aa1b8336213875ea865ca7f6d729a9af33a9_ligand_9.pdbqt
 14 15 0 0 0
SMALL
GASTEIGER

@<TRIPOS>ATOM
      1  C          5.8170    1.5390    1.0700 C.3     1  UNL1        0.0800
      2  C          5.2440    0.5160    1.9620 C.2     1  UNL1        0.1300
      3  C          6.1210   -0.7010    2.2040 C.3     1  UNL1        0.0870
      4  O          4.1790    0.5320    2.5130 O.2     1  UNL1       -0.3000
      5  C          5.6900    1.2840   -0.3800 C.3     1  UNL1        0.0430
      6  C          6.7980    0.5860   -1.0380 C.2     1  UNL1       -0.0440
      7  C          8.0910    1.1100   -1.0750 C.2     1  UNL1        0.0080
      8  C          6.5880   -0.6420   -1.6210 C.2     1  UNL1        0.0540
      9  C          9.0850    0.3890   -1.6840 C.2     1  UNL1        0.0510
     10  C          7.6250   -1.3590   -2.2380 C.2     1  UNL1        0.1660
     11  C          8.9010   -0.8410   -2.2750 C.2     1  UNL1        0.1650
     12  O          7.7060   -2.5840   -2.8890 O.2     1  UNL1       -0.4540
     13  O          9.7350   -1.7470   -2.9410 O.2     1  UNL1       -0.4540
     14  C          9.0670   -2.9900   -2.8730 C.3     1  UNL1        0.4680
@<TRIPOS>BOND
     1    13    14    1
     2    13    11    1
     3    12    14    1
     4    12    10    1
     5    11    10    2
     6    11     9    1
     7    10     8    1
     8     9     7    2
     9     8     6    2
    10     7     6    1
    11     6     5    1
    12     5     1    1
    13     1     2    1
    14     2     3    1
    15     2     4    2
