@<TRIPOS>MOLECULE
/home/cewinharhar/GITHUB/reincatalyze/data/processed/docking_pred/2023-May-31-1727_sub9_nm5_bs15_s42_ex16_mel10_mts10000_k50_ec075_g099_lra3e-4_lrc3e-3/6070aa1b8336213875ea865ca7f6d729a9af33a9_ligand_9.pdbqt
 14 15 0 0 0
SMALL
GASTEIGER

@<TRIPOS>ATOM
      1  C          5.2640    0.6890    1.4220 C.3     1  UNL1        0.0800
      2  C          6.3330   -0.0390    2.1290 C.2     1  UNL1        0.1300
      3  C          6.2710   -1.5530    2.0180 C.3     1  UNL1        0.0870
      4  O          7.2330    0.4190    2.7730 O.2     1  UNL1       -0.3000
      5  C          5.6490    1.3380    0.1510 C.3     1  UNL1        0.0430
      6  C          6.7310    0.7170   -0.6180 C.2     1  UNL1       -0.0440
      7  C          8.0210    1.2490   -0.6500 C.2     1  UNL1        0.0080
      8  C          6.5000   -0.4450   -1.3170 C.2     1  UNL1        0.0540
      9  C          8.9920    0.6010   -1.3690 C.2     1  UNL1        0.0510
     10  C          7.5130   -1.0880   -2.0440 C.2     1  UNL1        0.1660
     11  C          8.7860   -0.5630   -2.0770 C.2     1  UNL1        0.1650
     12  O          7.5700   -2.2380   -2.8220 O.2     1  UNL1       -0.4540
     13  O          9.5950   -1.3910   -2.8660 O.2     1  UNL1       -0.4540
     14  C          8.9300   -2.6370   -2.9010 C.3     1  UNL1        0.4680
@<TRIPOS>BOND
     1    14    13    1
     2    14    12    1
     3    13    11    1
     4    12    10    1
     5    11    10    2
     6    11     9    1
     7    10     8    1
     8     9     7    2
     9     8     6    2
    10     7     6    1
    11     6     5    1
    12     5     1    1
    13     1     2    1
    14     3     2    1
    15     2     4    2
