MODEL 1
REMARK VINA RESULT:      -7.5      0.000      0.000
REMARK SMILES CC(=O)CCc1ccc2c(c1)OCO2
REMARK SMILES IDX 4 1 2 2 1 3 3 4 5 5 6 6 7 7 11 8 8 9 10 10 9 11 12 12 14 13
REMARK SMILES IDX 13 14
REMARK H PARENT
REMARK Flexibility Score: inf
ROOT
ATOM      1  C   UNL     1       5.817   1.539   1.070  1.00  0.00     0.080 C 
ENDROOT
BRANCH   1   2
ATOM      2  C   UNL     1       5.244   0.516   1.962  1.00  0.00     0.130 C 
ATOM      3  C   UNL     1       6.121  -0.701   2.204  1.00  0.00     0.087 C 
ATOM      4  O   UNL     1       4.179   0.532   2.513  1.00  0.00    -0.300 OA
ENDBRANCH   1   2
BRANCH   1   5
ATOM      5  C   UNL     1       5.690   1.284  -0.380  1.00  0.00     0.043 C 
BRANCH   5   6
ATOM      6  C   UNL     1       6.798   0.586  -1.038  1.00  0.00    -0.044 A 
ATOM      7  C   UNL     1       8.091   1.110  -1.075  1.00  0.00     0.008 A 
ATOM      8  C   UNL     1       6.588  -0.642  -1.621  1.00  0.00     0.054 A 
ATOM      9  C   UNL     1       9.085   0.389  -1.684  1.00  0.00     0.051 A 
ATOM     10  C   UNL     1       7.625  -1.359  -2.238  1.00  0.00     0.166 A 
ATOM     11  C   UNL     1       8.901  -0.841  -2.275  1.00  0.00     0.165 A 
ATOM     12  O   UNL     1       7.706  -2.584  -2.889  1.00  0.00    -0.454 OA
ATOM     13  O   UNL     1       9.735  -1.747  -2.941  1.00  0.00    -0.454 OA
ATOM     14  C   UNL     1       9.067  -2.990  -2.873  1.00  0.00     0.468 C 
ENDBRANCH   5   6
ENDBRANCH   1   5
TORSDOF 3
ENDMDL
MODEL 2
REMARK VINA RESULT:      -6.7      1.735      2.180
REMARK SMILES CC(=O)CCc1ccc2c(c1)OCO2
REMARK SMILES IDX 4 1 2 2 1 3 3 4 5 5 6 6 7 7 11 8 8 9 10 10 9 11 12 12 14 13
REMARK SMILES IDX 13 14
REMARK H PARENT
REMARK Flexibility Score: inf
ROOT
ATOM      1  C   UNL     1       6.158   1.458  -0.170  1.00  0.00     0.080 C 
ENDROOT
BRANCH   1   2
ATOM      2  C   UNL     1       6.034   1.409   1.298  1.00  0.00     0.130 C 
ATOM      3  C   UNL     1       5.173   0.281   1.841  1.00  0.00     0.087 C 
ATOM      4  O   UNL     1       6.528   2.147   2.103  1.00  0.00    -0.300 OA
ENDBRANCH   1   2
BRANCH   1   5
ATOM      5  C   UNL     1       7.504   1.190  -0.719  1.00  0.00     0.043 C 
BRANCH   5   6
ATOM      6  C   UNL     1       7.775  -0.170  -1.193  1.00  0.00    -0.044 A 
ATOM      7  C   UNL     1       7.923  -0.471  -2.548  1.00  0.00     0.008 A 
ATOM      8  C   UNL     1       7.921  -1.198  -0.290  1.00  0.00     0.054 A 
ATOM      9  C   UNL     1       8.204  -1.760  -2.918  1.00  0.00     0.051 A 
ATOM     10  C   UNL     1       8.209  -2.510  -0.696  1.00  0.00     0.166 A 
ATOM     11  C   UNL     1       8.354  -2.806  -2.034  1.00  0.00     0.165 A 
ATOM     12  O   UNL     1       8.405  -3.713  -0.030  1.00  0.00    -0.454 OA
ATOM     13  O   UNL     1       8.634  -4.172  -2.164  1.00  0.00    -0.454 OA
ATOM     14  C   UNL     1       9.121  -4.576  -0.901  1.00  0.00     0.468 C 
ENDBRANCH   5   6
ENDBRANCH   1   5
TORSDOF 3
ENDMDL
MODEL 3
REMARK VINA RESULT:      -6.5      0.956      1.019
REMARK SMILES CC(=O)CCc1ccc2c(c1)OCO2
REMARK SMILES IDX 4 1 2 2 1 3 3 4 5 5 6 6 7 7 11 8 8 9 10 10 9 11 12 12 14 13
REMARK SMILES IDX 13 14
REMARK H PARENT
REMARK Flexibility Score: inf
ROOT
ATOM      1  C   UNL     1       5.264   0.689   1.422  1.00  0.00     0.080 C 
ENDROOT
BRANCH   1   2
ATOM      2  C   UNL     1       6.333  -0.039   2.129  1.00  0.00     0.130 C 
ATOM      3  C   UNL     1       6.271  -1.553   2.018  1.00  0.00     0.087 C 
ATOM      4  O   UNL     1       7.233   0.419   2.773  1.00  0.00    -0.300 OA
ENDBRANCH   1   2
BRANCH   1   5
ATOM      5  C   UNL     1       5.649   1.338   0.151  1.00  0.00     0.043 C 
BRANCH   5   6
ATOM      6  C   UNL     1       6.731   0.717  -0.618  1.00  0.00    -0.044 A 
ATOM      7  C   UNL     1       8.021   1.249  -0.650  1.00  0.00     0.008 A 
ATOM      8  C   UNL     1       6.500  -0.445  -1.317  1.00  0.00     0.054 A 
ATOM      9  C   UNL     1       8.992   0.601  -1.369  1.00  0.00     0.051 A 
ATOM     10  C   UNL     1       7.513  -1.088  -2.044  1.00  0.00     0.166 A 
ATOM     11  C   UNL     1       8.786  -0.563  -2.077  1.00  0.00     0.165 A 
ATOM     12  O   UNL     1       7.570  -2.238  -2.822  1.00  0.00    -0.454 OA
ATOM     13  O   UNL     1       9.595  -1.391  -2.866  1.00  0.00    -0.454 OA
ATOM     14  C   UNL     1       8.930  -2.637  -2.901  1.00  0.00     0.468 C 
ENDBRANCH   5   6
ENDBRANCH   1   5
TORSDOF 3
ENDMDL
MODEL 4
REMARK VINA RESULT:      -6.5      1.644      1.930
REMARK SMILES CC(=O)CCc1ccc2c(c1)OCO2
REMARK SMILES IDX 4 1 2 2 1 3 3 4 5 5 6 6 7 7 11 8 8 9 10 10 9 11 12 12 14 13
REMARK SMILES IDX 13 14
REMARK H PARENT
REMARK Flexibility Score: inf
ROOT
ATOM      1  C   UNL     1       5.612   0.902   0.452  1.00  0.00     0.080 C 
ENDROOT
BRANCH   1   2
ATOM      2  C   UNL     1       5.249   0.515   1.827  1.00  0.00     0.130 C 
ATOM      3  C   UNL     1       6.273  -0.342   2.553  1.00  0.00     0.087 C 
ATOM      4  O   UNL     1       4.253   0.794   2.431  1.00  0.00    -0.300 OA
ENDBRANCH   1   2
BRANCH   1   5
ATOM      5  C   UNL     1       7.045   0.801   0.103  1.00  0.00     0.043 C 
BRANCH   5   6
ATOM      6  C   UNL     1       7.481  -0.409  -0.599  1.00  0.00    -0.044 A 
ATOM      7  C   UNL     1       7.624  -0.454  -1.986  1.00  0.00     0.008 A 
ATOM      8  C   UNL     1       7.791  -1.544   0.114  1.00  0.00     0.054 A 
ATOM      9  C   UNL     1       8.061  -1.612  -2.575  1.00  0.00     0.051 A 
ATOM     10  C   UNL     1       8.238  -2.717  -0.514  1.00  0.00     0.166 A 
ATOM     11  C   UNL     1       8.378  -2.761  -1.884  1.00  0.00     0.165 A 
ATOM     12  O   UNL     1       8.614  -3.977  -0.065  1.00  0.00    -0.454 OA
ATOM     13  O   UNL     1       8.834  -4.034  -2.249  1.00  0.00    -0.454 OA
ATOM     14  C   UNL     1       9.410  -4.574  -1.078  1.00  0.00     0.468 C 
ENDBRANCH   5   6
ENDBRANCH   1   5
TORSDOF 3
ENDMDL
MODEL 5
REMARK VINA RESULT:      -6.3      1.927      2.513
REMARK SMILES CC(=O)CCc1ccc2c(c1)OCO2
REMARK SMILES IDX 4 1 2 2 1 3 3 4 5 5 6 6 7 7 11 8 8 9 10 10 9 11 12 12 14 13
REMARK SMILES IDX 13 14
REMARK H PARENT
REMARK Flexibility Score: inf
ROOT
ATOM      1  C   UNL     1       6.200  -0.345   2.338  1.00  0.00     0.080 C 
ENDROOT
BRANCH   1   2
ATOM      2  C   UNL     1       5.106   0.562   1.945  1.00  0.00     0.130 C 
ATOM      3  C   UNL     1       5.342   1.350   0.668  1.00  0.00     0.087 C 
ATOM      4  O   UNL     1       4.065   0.746   2.509  1.00  0.00    -0.300 OA
ENDBRANCH   1   2
BRANCH   1   5
ATOM      5  C   UNL     1       7.474  -0.186   1.604  1.00  0.00     0.043 C 
BRANCH   5   6
ATOM      6  C   UNL     1       7.742  -1.129   0.515  1.00  0.00    -0.044 A 
ATOM      7  C   UNL     1       7.675  -0.753  -0.828  1.00  0.00     0.008 A 
ATOM      8  C   UNL     1       8.101  -2.426   0.800  1.00  0.00     0.054 A 
ATOM      9  C   UNL     1       7.965  -1.681  -1.794  1.00  0.00     0.051 A 
ATOM     10  C   UNL     1       8.393  -3.355  -0.210  1.00  0.00     0.166 A 
ATOM     11  C   UNL     1       8.326  -2.984  -1.535  1.00  0.00     0.165 A 
ATOM     12  O   UNL     1       8.771  -4.692  -0.221  1.00  0.00    -0.454 OA
ATOM     13  O   UNL     1       8.661  -4.089  -2.329  1.00  0.00    -0.454 OA
ATOM     14  C   UNL     1       9.379  -4.957  -1.476  1.00  0.00     0.468 C 
ENDBRANCH   5   6
ENDBRANCH   1   5
TORSDOF 3
ENDMDL
