@<TRIPOS>MOLECULE
/home/cewinharhar/GITHUB/reincatalyze/data/processed/docking_pred/2023-May-31-1727_sub9_nm5_bs15_s42_ex16_mel10_mts10000_k50_ec075_g099_lra3e-4_lrc3e-3/6139fbb10b4bed4b811c42b0b587a74064045cbc_ligand_9.pdbqt
 14 15 0 0 0
SMALL
GASTEIGER

@<TRIPOS>ATOM
      1  C          6.2590    1.2010    0.8780 C.3     1  UNL1        0.0800
      2  C          5.5450    0.4350    1.9160 C.2     1  UNL1        0.1300
      3  C          6.2870   -0.7760    2.4550 C.3     1  UNL1        0.0870
      4  O          4.4610    0.6540    2.3770 O.2     1  UNL1       -0.3000
      5  C          5.8840    0.9080   -0.5210 C.3     1  UNL1        0.0430
      6  C          6.8210    0.1030   -1.3100 C.2     1  UNL1       -0.0440
      7  C          7.5880    0.6500   -2.3400 C.2     1  UNL1        0.0080
      8  C          6.9870   -1.2330   -1.0290 C.2     1  UNL1        0.0540
      9  C          8.4640   -0.1560   -3.0200 C.2     1  UNL1        0.0510
     10  C          7.8920   -2.0350   -1.7400 C.2     1  UNL1        0.1660
     11  C          8.6480   -1.4950   -2.7570 C.2     1  UNL1        0.1650
     12  O          8.2610   -3.3740   -1.6780 O.2     1  UNL1       -0.4540
     13  O          9.4610   -2.5010   -3.2970 O.2     1  UNL1       -0.4540
     14  C          9.5320   -3.4990   -2.3000 C.3     1  UNL1        0.4680
@<TRIPOS>BOND
     1    13    11    1
     2    13    14    1
     3     9    11    2
     4     9     7    1
     5    11    10    1
     6     7     6    2
     7    14    12    1
     8    10    12    1
     9    10     8    2
    10     6     8    1
    11     6     5    1
    12     5     1    1
    13     1     2    1
    14     2     4    2
    15     2     3    1
