MODEL 1
REMARK VINA RESULT:      -7.6      0.000      0.000
REMARK SMILES CC(=O)CCc1ccc2c(c1)OCO2
REMARK SMILES IDX 4 1 2 2 1 3 3 4 5 5 6 6 7 7 11 8 8 9 10 10 9 11 12 12 14 13
REMARK SMILES IDX 13 14
REMARK H PARENT
REMARK Flexibility Score: inf
ROOT
ATOM      1  C   UNL     1       5.645   1.826   1.294  1.00  0.00     0.080 C 
ENDROOT
BRANCH   1   2
ATOM      2  C   UNL     1       5.022   0.701   2.015  1.00  0.00     0.130 C 
ATOM      3  C   UNL     1       5.869  -0.557   2.111  1.00  0.00     0.087 C 
ATOM      4  O   UNL     1       3.940   0.665   2.528  1.00  0.00    -0.300 OA
ENDBRANCH   1   2
BRANCH   1   5
ATOM      5  C   UNL     1       5.635   1.739  -0.182  1.00  0.00     0.043 C 
BRANCH   5   6
ATOM      6  C   UNL     1       6.718   0.981  -0.815  1.00  0.00    -0.044 A 
ATOM      7  C   UNL     1       8.060   1.332  -0.663  1.00  0.00     0.008 A 
ATOM      8  C   UNL     1       6.429  -0.134  -1.568  1.00  0.00     0.054 A 
ATOM      9  C   UNL     1       9.023   0.561  -1.262  1.00  0.00     0.051 A 
ATOM     10  C   UNL     1       7.435  -0.905  -2.170  1.00  0.00     0.166 A 
ATOM     11  C   UNL     1       8.759  -0.558  -2.020  1.00  0.00     0.165 A 
ATOM     12  O   UNL     1       7.441  -2.047  -2.961  1.00  0.00    -0.454 OA
ATOM     13  O   UNL     1       9.549  -1.484  -2.714  1.00  0.00    -0.454 OA
ATOM     14  C   UNL     1       8.734  -2.627  -2.869  1.00  0.00     0.468 C 
ENDBRANCH   5   6
ENDBRANCH   1   5
TORSDOF 3
ENDMDL
MODEL 2
REMARK VINA RESULT:      -7.0      1.825      2.284
REMARK SMILES CC(=O)CCc1ccc2c(c1)OCO2
REMARK SMILES IDX 4 1 2 2 1 3 3 4 5 5 6 6 7 7 11 8 8 9 10 10 9 11 12 12 14 13
REMARK SMILES IDX 13 14
REMARK H PARENT
REMARK Flexibility Score: inf
ROOT
ATOM      1  C   UNL     1       5.775   1.406  -0.257  1.00  0.00     0.080 C 
ENDROOT
BRANCH   1   2
ATOM      2  C   UNL     1       5.113   1.333   1.058  1.00  0.00     0.130 C 
ATOM      3  C   UNL     1       5.514   0.151   1.924  1.00  0.00     0.087 C 
ATOM      4  O   UNL     1       4.305   2.090   1.517  1.00  0.00    -0.300 OA
ENDBRANCH   1   2
BRANCH   1   5
ATOM      5  C   UNL     1       7.204   1.028  -0.288  1.00  0.00     0.043 C 
BRANCH   5   6
ATOM      6  C   UNL     1       7.541  -0.272  -0.873  1.00  0.00    -0.044 A 
ATOM      7  C   UNL     1       7.612  -0.472  -2.253  1.00  0.00     0.008 A 
ATOM      8  C   UNL     1       7.827  -1.341  -0.056  1.00  0.00     0.054 A 
ATOM      9  C   UNL     1       7.960  -1.709  -2.730  1.00  0.00     0.051 A 
ATOM     10  C   UNL     1       8.181  -2.597  -0.572  1.00  0.00     0.166 A 
ATOM     11  C   UNL     1       8.251  -2.794  -1.934  1.00  0.00     0.165 A 
ATOM     12  O   UNL     1       8.514  -3.822  -0.006  1.00  0.00    -0.454 OA
ATOM     13  O   UNL     1       8.621  -4.122  -2.179  1.00  0.00    -0.454 OA
ATOM     14  C   UNL     1       9.227  -4.567  -0.982  1.00  0.00     0.468 C 
ENDBRANCH   5   6
ENDBRANCH   1   5
TORSDOF 3
ENDMDL
MODEL 3
REMARK VINA RESULT:      -6.9      1.200      1.291
REMARK SMILES CC(=O)CCc1ccc2c(c1)OCO2
REMARK SMILES IDX 4 1 2 2 1 3 3 4 5 5 6 6 7 7 11 8 8 9 10 10 9 11 12 12 14 13
REMARK SMILES IDX 13 14
REMARK H PARENT
REMARK Flexibility Score: inf
ROOT
ATOM      1  C   UNL     1       6.259   1.201   0.878  1.00  0.00     0.080 C 
ENDROOT
BRANCH   1   2
ATOM      2  C   UNL     1       5.545   0.435   1.916  1.00  0.00     0.130 C 
ATOM      3  C   UNL     1       6.287  -0.776   2.455  1.00  0.00     0.087 C 
ATOM      4  O   UNL     1       4.461   0.654   2.377  1.00  0.00    -0.300 OA
ENDBRANCH   1   2
BRANCH   1   5
ATOM      5  C   UNL     1       5.884   0.908  -0.521  1.00  0.00     0.043 C 
BRANCH   5   6
ATOM      6  C   UNL     1       6.821   0.103  -1.310  1.00  0.00    -0.044 A 
ATOM      7  C   UNL     1       7.588   0.650  -2.340  1.00  0.00     0.008 A 
ATOM      8  C   UNL     1       6.987  -1.233  -1.029  1.00  0.00     0.054 A 
ATOM      9  C   UNL     1       8.464  -0.156  -3.020  1.00  0.00     0.051 A 
ATOM     10  C   UNL     1       7.892  -2.035  -1.740  1.00  0.00     0.166 A 
ATOM     11  C   UNL     1       8.648  -1.495  -2.757  1.00  0.00     0.165 A 
ATOM     12  O   UNL     1       8.261  -3.374  -1.678  1.00  0.00    -0.454 OA
ATOM     13  O   UNL     1       9.461  -2.501  -3.297  1.00  0.00    -0.454 OA
ATOM     14  C   UNL     1       9.532  -3.499  -2.300  1.00  0.00     0.468 C 
ENDBRANCH   5   6
ENDBRANCH   1   5
TORSDOF 3
ENDMDL
MODEL 4
REMARK VINA RESULT:      -6.7      1.194      1.644
REMARK SMILES CC(=O)CCc1ccc2c(c1)OCO2
REMARK SMILES IDX 4 1 2 2 1 3 3 4 5 5 6 6 7 7 11 8 8 9 10 10 9 11 12 12 14 13
REMARK SMILES IDX 13 14
REMARK H PARENT
REMARK Flexibility Score: inf
ROOT
ATOM      1  C   UNL     1       5.386  -0.027   1.943  1.00  0.00     0.080 C 
ENDROOT
BRANCH   1   2
ATOM      2  C   UNL     1       4.441   1.099   1.835  1.00  0.00     0.130 C 
ATOM      3  C   UNL     1       4.777   2.130   0.770  1.00  0.00     0.087 C 
ATOM      4  O   UNL     1       3.451   1.293   2.481  1.00  0.00    -0.300 OA
ENDBRANCH   1   2
BRANCH   1   5
ATOM      5  C   UNL     1       6.811   0.294   1.714  1.00  0.00     0.043 C 
BRANCH   5   6
ATOM      6  C   UNL     1       7.383  -0.082   0.419  1.00  0.00    -0.044 A 
ATOM      7  C   UNL     1       7.888   0.864  -0.474  1.00  0.00     0.008 A 
ATOM      8  C   UNL     1       7.462  -1.408   0.060  1.00  0.00     0.054 A 
ATOM      9  C   UNL     1       8.434   0.439  -1.658  1.00  0.00     0.051 A 
ATOM     10  C   UNL     1       8.027  -1.815  -1.159  1.00  0.00     0.166 A 
ATOM     11  C   UNL     1       8.525  -0.881  -2.040  1.00  0.00     0.165 A 
ATOM     12  O   UNL     1       8.236  -3.046  -1.770  1.00  0.00    -0.454 OA
ATOM     13  O   UNL     1       9.026  -1.547  -3.166  1.00  0.00    -0.454 OA
ATOM     14  C   UNL     1       9.255  -2.875  -2.743  1.00  0.00     0.468 C 
ENDBRANCH   5   6
ENDBRANCH   1   5
TORSDOF 3
ENDMDL
MODEL 5
REMARK VINA RESULT:      -6.7      1.888      2.437
REMARK SMILES CC(=O)CCc1ccc2c(c1)OCO2
REMARK SMILES IDX 4 1 2 2 1 3 3 4 5 5 6 6 7 7 11 8 8 9 10 10 9 11 12 12 14 13
REMARK SMILES IDX 13 14
REMARK H PARENT
REMARK Flexibility Score: inf
ROOT
ATOM      1  C   UNL     1       6.833   0.705   1.471  1.00  0.00     0.080 C 
ENDROOT
BRANCH   1   2
ATOM      2  C   UNL     1       5.402   1.034   1.599  1.00  0.00     0.130 C 
ATOM      3  C   UNL     1       4.902   2.131   0.675  1.00  0.00     0.087 C 
ATOM      4  O   UNL     1       4.597   0.541   2.338  1.00  0.00    -0.300 OA
ENDBRANCH   1   2
BRANCH   1   5
ATOM      5  C   UNL     1       7.409   0.818   0.115  1.00  0.00     0.043 C 
BRANCH   5   6
ATOM      6  C   UNL     1       7.687  -0.429  -0.602  1.00  0.00    -0.044 A 
ATOM      7  C   UNL     1       7.682  -0.503  -1.996  1.00  0.00     0.008 A 
ATOM      8  C   UNL     1       7.992  -1.573   0.098  1.00  0.00     0.054 A 
ATOM      9  C   UNL     1       7.978  -1.697  -2.601  1.00  0.00     0.051 A 
ATOM     10  C   UNL     1       8.292  -2.782  -0.547  1.00  0.00     0.166 A 
ATOM     11  C   UNL     1       8.286  -2.855  -1.922  1.00  0.00     0.165 A 
ATOM     12  O   UNL     1       8.626  -4.059  -0.112  1.00  0.00    -0.454 OA
ATOM     13  O   UNL     1       8.615  -4.162  -2.305  1.00  0.00    -0.454 OA
ATOM     14  C   UNL     1       9.272  -4.724  -1.188  1.00  0.00     0.468 C 
ENDBRANCH   5   6
ENDBRANCH   1   5
TORSDOF 3
ENDMDL
