@<TRIPOS>MOLECULE
/home/cewinharhar/GITHUB/reincatalyze/data/processed/docking_pred/2023-May-31-1727_sub9_nm5_bs15_s42_ex16_mel10_mts10000_k50_ec075_g099_lra3e-4_lrc3e-3/642d32954cc9cda539a3d3c05c60b26131de659d_ligand_9.pdbqt
 14 15 0 0 0
SMALL
GASTEIGER

@<TRIPOS>ATOM
      1  C          6.7880    0.8790    1.5550 C.3     1  UNL1        0.0800
      2  C          5.3460    1.1850    1.5690 C.2     1  UNL1        0.1300
      3  C          4.8760    2.1480    0.4920 C.3     1  UNL1        0.0870
      4  O          4.5130    0.7670    2.3210 O.2     1  UNL1       -0.3000
      5  C          7.4630    0.9780    0.2440 C.3     1  UNL1        0.0430
      6  C          7.7100   -0.2730   -0.4790 C.2     1  UNL1       -0.0440
      7  C          7.7170   -0.3370   -1.8730 C.2     1  UNL1        0.0080
      8  C          7.9740   -1.4300    0.2170 C.2     1  UNL1        0.0540
      9  C          7.9820   -1.5350   -2.4840 C.2     1  UNL1        0.0510
     10  C          8.2430   -2.6430   -0.4340 C.2     1  UNL1        0.1660
     11  C          8.2490   -2.7070   -1.8100 C.2     1  UNL1        0.1650
     12  O          8.5340   -3.9320   -0.0050 O.2     1  UNL1       -0.4540
     13  O          8.5410   -4.0200   -2.1990 O.2     1  UNL1       -0.4540
     14  C          9.1700   -4.6100   -1.0790 C.3     1  UNL1        0.4680
@<TRIPOS>BOND
     1     9     7    1
     2     9    11    2
     3    13    11    1
     4    13    14    1
     5     7     6    2
     6    11    10    1
     7    14    12    1
     8     6     8    1
     9     6     5    1
    10    10    12    1
    11    10     8    2
    12     5     1    1
    13     3     2    1
    14     1     2    1
    15     2     4    2
