@<TRIPOS>MOLECULE
/home/cewinharhar/GITHUB/reincatalyze/data/processed/docking_pred/2023-May-31-1727_sub9_nm5_bs15_s42_ex16_mel10_mts10000_k50_ec075_g099_lra3e-4_lrc3e-3/642d32954cc9cda539a3d3c05c60b26131de659d_ligand_9.pdbqt
 14 15 0 0 0
SMALL
GASTEIGER

@<TRIPOS>ATOM
      1  C          6.2200    1.2600    0.8780 C.3     1  UNL1        0.0800
      2  C          5.5620    0.4490    1.9190 C.2     1  UNL1        0.1300
      3  C          6.3550   -0.7520    2.4060 C.3     1  UNL1        0.0870
      4  O          4.4880    0.6270    2.4200 O.2     1  UNL1       -0.3000
      5  C          5.8680    0.9340   -0.5200 C.3     1  UNL1        0.0430
      6  C          6.8400    0.1540   -1.2920 C.2     1  UNL1       -0.0440
      7  C          7.7760    0.7560   -2.1340 C.2     1  UNL1        0.0080
      8  C          6.8700   -1.2160   -1.1780 C.2     1  UNL1        0.0540
      9  C          8.6740   -0.0330   -2.8060 C.2     1  UNL1        0.0510
     10  C          7.8000   -2.0000   -1.8760 C.2     1  UNL1        0.1660
     11  C          8.7230   -1.4060   -2.7090 C.2     1  UNL1        0.1650
     12  O          8.0580   -3.3630   -1.9550 O.2     1  UNL1       -0.4540
     13  O          9.5240   -2.4040   -3.2780 O.2     1  UNL1       -0.4540
     14  C          9.3880   -3.5230   -2.4260 C.3     1  UNL1        0.4680
@<TRIPOS>BOND
     1    13    11    1
     2    13    14    1
     3     9    11    2
     4     9     7    1
     5    11    10    1
     6    14    12    1
     7     7     6    2
     8    12    10    1
     9    10     8    2
    10     6     8    1
    11     6     5    1
    12     5     1    1
    13     1     2    1
    14     2     3    1
    15     2     4    2
