@<TRIPOS>MOLECULE
/home/cewinharhar/GITHUB/reincatalyze/data/processed/docking_pred/2023-May-31-1727_sub9_nm5_bs15_s42_ex16_mel10_mts10000_k50_ec075_g099_lra3e-4_lrc3e-3/64ade7361adfbcba1ebdf367c3e16aacabd62181_ligand_9.pdbqt
 14 15 0 0 0
SMALL
GASTEIGER

@<TRIPOS>ATOM
      1  C          6.2220    1.2300    0.8570 C.3     1  UNL1        0.0800
      2  C          5.5650    0.4250    1.9020 C.2     1  UNL1        0.1300
      3  C          6.3620   -0.7670    2.4020 C.3     1  UNL1        0.0870
      4  O          4.4870    0.6000    2.3960 O.2     1  UNL1       -0.3000
      5  C          5.8680    0.9000   -0.5390 C.3     1  UNL1        0.0430
      6  C          6.8450    0.1310   -1.3150 C.2     1  UNL1       -0.0440
      7  C          7.7660    0.7430   -2.1670 C.2     1  UNL1        0.0080
      8  C          6.8950   -1.2380   -1.1960 C.2     1  UNL1        0.0540
      9  C          8.6700   -0.0360   -2.8420 C.2     1  UNL1        0.0510
     10  C          7.8320   -2.0120   -1.8980 C.2     1  UNL1        0.1660
     11  C          8.7400   -1.4080   -2.7400 C.2     1  UNL1        0.1650
     12  O          8.1090   -3.3710   -1.9720 O.2     1  UNL1       -0.4540
     13  O          9.5510   -2.3970   -3.3100 O.2     1  UNL1       -0.4540
     14  C          9.4370   -3.5140   -2.4530 C.3     1  UNL1        0.4680
@<TRIPOS>BOND
     1    13    11    1
     2    13    14    1
     3     9    11    2
     4     9     7    1
     5    11    10    1
     6    14    12    1
     7     7     6    2
     8    12    10    1
     9    10     8    2
    10     6     8    1
    11     6     5    1
    12     5     1    1
    13     1     2    1
    14     2     4    2
    15     2     3    1
