@<TRIPOS>MOLECULE
/home/cewinharhar/GITHUB/reincatalyze/data/processed/docking_pred/2023-May-31-1727_sub9_nm5_bs15_s42_ex16_mel10_mts10000_k50_ec075_g099_lra3e-4_lrc3e-3/64ade7361adfbcba1ebdf367c3e16aacabd62181_ligand_9.pdbqt
 14 15 0 0 0
SMALL
GASTEIGER

@<TRIPOS>ATOM
      1  C          6.7150    0.9940    1.4980 C.3     1  UNL1        0.0800
      2  C          5.2610    1.2350    1.4740 C.2     1  UNL1        0.1300
      3  C          4.7710    2.1450    0.3600 C.3     1  UNL1        0.0870
      4  O          4.4310    0.8000    2.2210 O.2     1  UNL1       -0.3000
      5  C          7.4110    1.0790    0.1970 C.3     1  UNL1        0.0430
      6  C          7.6580   -0.1790   -0.5140 C.2     1  UNL1       -0.0440
      7  C          7.6430   -0.2610   -1.9070 C.2     1  UNL1        0.0080
      8  C          7.9420   -1.3250    0.1920 C.2     1  UNL1        0.0540
      9  C          7.9090   -1.4640   -2.5070 C.2     1  UNL1        0.0510
     10  C          8.2110   -2.5440   -0.4480 C.2     1  UNL1        0.1660
     11  C          8.1960   -2.6250   -1.8230 C.2     1  UNL1        0.1650
     12  O          8.5210   -3.8250   -0.0080 O.2     1  UNL1       -0.4540
     13  O          8.4940   -3.9410   -2.2000 O.2     1  UNL1       -0.4540
     14  C          9.1450   -4.5110   -1.0840 C.3     1  UNL1        0.4680
@<TRIPOS>BOND
     1     9     7    1
     2     9    11    2
     3    13    11    1
     4    13    14    1
     5     7     6    2
     6    11    10    1
     7    14    12    1
     8     6     8    1
     9     6     5    1
    10    10    12    1
    11    10     8    2
    12     5     1    1
    13     3     2    1
    14     2     1    1
    15     2     4    2
