MODEL 1
REMARK VINA RESULT:      -7.6      0.000      0.000
REMARK SMILES CC(=O)CCc1ccc2c(c1)OCO2
REMARK SMILES IDX 4 1 2 2 1 3 3 4 5 5 6 6 7 7 11 8 8 9 10 10 9 11 12 12 14 13
REMARK SMILES IDX 13 14
REMARK H PARENT
REMARK Flexibility Score: inf
ROOT
ATOM      1  C   UNL     1       5.719   1.787   1.318  1.00  0.00     0.080 C 
ENDROOT
BRANCH   1   2
ATOM      2  C   UNL     1       5.066   0.667   2.019  1.00  0.00     0.130 C 
ATOM      3  C   UNL     1       5.890  -0.606   2.119  1.00  0.00     0.087 C 
ATOM      4  O   UNL     1       3.975   0.644   2.512  1.00  0.00    -0.300 OA
ENDBRANCH   1   2
BRANCH   1   5
ATOM      5  C   UNL     1       5.707   1.728  -0.159  1.00  0.00     0.043 C 
BRANCH   5   6
ATOM      6  C   UNL     1       6.774   0.963  -0.808  1.00  0.00    -0.044 A 
ATOM      7  C   UNL     1       8.120   1.315  -0.689  1.00  0.00     0.008 A 
ATOM      8  C   UNL     1       6.468  -0.160  -1.542  1.00  0.00     0.054 A 
ATOM      9  C   UNL     1       9.069   0.537  -1.301  1.00  0.00     0.051 A 
ATOM     10  C   UNL     1       7.460  -0.938  -2.158  1.00  0.00     0.166 A 
ATOM     11  C   UNL     1       8.788  -0.591  -2.041  1.00  0.00     0.165 A 
ATOM     12  O   UNL     1       7.448  -2.089  -2.936  1.00  0.00    -0.454 OA
ATOM     13  O   UNL     1       9.561  -1.524  -2.743  1.00  0.00    -0.454 OA
ATOM     14  C   UNL     1       8.743  -2.669  -2.867  1.00  0.00     0.468 C 
ENDBRANCH   5   6
ENDBRANCH   1   5
TORSDOF 3
ENDMDL
MODEL 2
REMARK VINA RESULT:      -7.0      1.764      2.210
REMARK SMILES CC(=O)CCc1ccc2c(c1)OCO2
REMARK SMILES IDX 4 1 2 2 1 3 3 4 5 5 6 6 7 7 11 8 8 9 10 10 9 11 12 12 14 13
REMARK SMILES IDX 13 14
REMARK H PARENT
REMARK Flexibility Score: inf
ROOT
ATOM      1  C   UNL     1       5.930   1.622  -0.204  1.00  0.00     0.080 C 
ENDROOT
BRANCH   1   2
ATOM      2  C   UNL     1       5.187   1.467   1.060  1.00  0.00     0.130 C 
ATOM      3  C   UNL     1       5.687   0.363   1.976  1.00  0.00     0.087 C 
ATOM      4  O   UNL     1       4.247   2.103   1.443  1.00  0.00    -0.300 OA
ENDBRANCH   1   2
BRANCH   1   5
ATOM      5  C   UNL     1       7.330   1.148  -0.199  1.00  0.00     0.043 C 
BRANCH   5   6
ATOM      6  C   UNL     1       7.600  -0.152  -0.820  1.00  0.00    -0.044 A 
ATOM      7  C   UNL     1       7.582  -0.333  -2.204  1.00  0.00     0.008 A 
ATOM      8  C   UNL     1       7.909  -1.239  -0.036  1.00  0.00     0.054 A 
ATOM      9  C   UNL     1       7.871  -1.571  -2.718  1.00  0.00     0.051 A 
ATOM     10  C   UNL     1       8.201  -2.495  -0.589  1.00  0.00     0.166 A 
ATOM     11  C   UNL     1       8.183  -2.674  -1.955  1.00  0.00     0.165 A 
ATOM     12  O   UNL     1       8.538  -3.735  -0.060  1.00  0.00    -0.454 OA
ATOM     13  O   UNL     1       8.506  -4.007  -2.239  1.00  0.00    -0.454 OA
ATOM     14  C   UNL     1       9.172  -4.483  -1.088  1.00  0.00     0.468 C 
ENDBRANCH   5   6
ENDBRANCH   1   5
TORSDOF 3
ENDMDL
MODEL 3
REMARK VINA RESULT:      -7.0      1.103      1.171
REMARK SMILES CC(=O)CCc1ccc2c(c1)OCO2
REMARK SMILES IDX 4 1 2 2 1 3 3 4 5 5 6 6 7 7 11 8 8 9 10 10 9 11 12 12 14 13
REMARK SMILES IDX 13 14
REMARK H PARENT
REMARK Flexibility Score: inf
ROOT
ATOM      1  C   UNL     1       6.248   1.170   0.913  1.00  0.00     0.080 C 
ENDROOT
BRANCH   1   2
ATOM      2  C   UNL     1       5.568   0.353   1.935  1.00  0.00     0.130 C 
ATOM      3  C   UNL     1       6.350  -0.853   2.428  1.00  0.00     0.087 C 
ATOM      4  O   UNL     1       4.485   0.528   2.416  1.00  0.00    -0.300 OA
ENDBRANCH   1   2
BRANCH   1   5
ATOM      5  C   UNL     1       5.898   0.878  -0.493  1.00  0.00     0.043 C 
BRANCH   5   6
ATOM      6  C   UNL     1       6.864   0.102  -1.276  1.00  0.00    -0.044 A 
ATOM      7  C   UNL     1       7.773   0.707  -2.146  1.00  0.00     0.008 A 
ATOM      8  C   UNL     1       6.915  -1.266  -1.147  1.00  0.00     0.054 A 
ATOM      9  C   UNL     1       8.667  -0.079  -2.827  1.00  0.00     0.051 A 
ATOM     10  C   UNL     1       7.841  -2.046  -1.856  1.00  0.00     0.166 A 
ATOM     11  C   UNL     1       8.737  -1.449  -2.715  1.00  0.00     0.165 A 
ATOM     12  O   UNL     1       8.116  -3.406  -1.923  1.00  0.00    -0.454 OA
ATOM     13  O   UNL     1       9.540  -2.443  -3.289  1.00  0.00    -0.454 OA
ATOM     14  C   UNL     1       9.438  -3.554  -2.422  1.00  0.00     0.468 C 
ENDBRANCH   5   6
ENDBRANCH   1   5
TORSDOF 3
ENDMDL
MODEL 4
REMARK VINA RESULT:      -6.8      1.184      1.628
REMARK SMILES CC(=O)CCc1ccc2c(c1)OCO2
REMARK SMILES IDX 4 1 2 2 1 3 3 4 5 5 6 6 7 7 11 8 8 9 10 10 9 11 12 12 14 13
REMARK SMILES IDX 13 14
REMARK H PARENT
REMARK Flexibility Score: inf
ROOT
ATOM      1  C   UNL     1       5.367  -0.053   1.953  1.00  0.00     0.080 C 
ENDROOT
BRANCH   1   2
ATOM      2  C   UNL     1       4.422   1.074   1.848  1.00  0.00     0.130 C 
ATOM      3  C   UNL     1       4.753   2.102   0.779  1.00  0.00     0.087 C 
ATOM      4  O   UNL     1       3.436   1.271   2.500  1.00  0.00    -0.300 OA
ENDBRANCH   1   2
BRANCH   1   5
ATOM      5  C   UNL     1       6.788   0.263   1.697  1.00  0.00     0.043 C 
BRANCH   5   6
ATOM      6  C   UNL     1       7.325  -0.086   0.378  1.00  0.00    -0.044 A 
ATOM      7  C   UNL     1       7.741   0.883  -0.536  1.00  0.00     0.008 A 
ATOM      8  C   UNL     1       7.458  -1.407   0.017  1.00  0.00     0.054 A 
ATOM      9  C   UNL     1       8.259   0.484  -1.741  1.00  0.00     0.051 A 
ATOM     10  C   UNL     1       7.992  -1.787  -1.224  1.00  0.00     0.166 A 
ATOM     11  C   UNL     1       8.402  -0.831  -2.126  1.00  0.00     0.165 A 
ATOM     12  O   UNL     1       8.239  -3.007  -1.842  1.00  0.00    -0.454 OA
ATOM     13  O   UNL     1       8.890  -1.473  -3.272  1.00  0.00    -0.454 OA
ATOM     14  C   UNL     1       9.207  -2.786  -2.858  1.00  0.00     0.468 C 
ENDBRANCH   5   6
ENDBRANCH   1   5
TORSDOF 3
ENDMDL
MODEL 5
REMARK VINA RESULT:      -6.8      1.944      2.446
REMARK SMILES CC(=O)CCc1ccc2c(c1)OCO2
REMARK SMILES IDX 4 1 2 2 1 3 3 4 5 5 6 6 7 7 11 8 8 9 10 10 9 11 12 12 14 13
REMARK SMILES IDX 13 14
REMARK H PARENT
REMARK Flexibility Score: inf
ROOT
ATOM      1  C   UNL     1       5.737   0.155   1.945  1.00  0.00     0.080 C 
ENDROOT
BRANCH   1   2
ATOM      2  C   UNL     1       4.713   1.181   1.675  1.00  0.00     0.130 C 
ATOM      3  C   UNL     1       5.026   2.126   0.527  1.00  0.00     0.087 C 
ATOM      4  O   UNL     1       3.676   1.354   2.250  1.00  0.00    -0.300 OA
ENDBRANCH   1   2
BRANCH   1   5
ATOM      5  C   UNL     1       7.033   0.332   1.256  1.00  0.00     0.043 C 
BRANCH   5   6
ATOM      6  C   UNL     1       7.405  -0.678   0.261  1.00  0.00    -0.044 A 
ATOM      7  C   UNL     1       7.351  -0.425  -1.111  1.00  0.00     0.008 A 
ATOM      8  C   UNL     1       7.852  -1.913   0.667  1.00  0.00     0.054 A 
ATOM      9  C   UNL     1       7.740  -1.406  -1.986  1.00  0.00     0.051 A 
ATOM     10  C   UNL     1       8.245  -2.900  -0.250  1.00  0.00     0.166 A 
ATOM     11  C   UNL     1       8.191  -2.651  -1.604  1.00  0.00     0.165 A 
ATOM     12  O   UNL     1       8.724  -4.199  -0.134  1.00  0.00    -0.454 OA
ATOM     13  O   UNL     1       8.634  -3.789  -2.290  1.00  0.00    -0.454 OA
ATOM     14  C   UNL     1       9.389  -4.522  -1.347  1.00  0.00     0.468 C 
ENDBRANCH   5   6
ENDBRANCH   1   5
TORSDOF 3
ENDMDL
