@<TRIPOS>MOLECULE
/home/cewinharhar/GITHUB/reincatalyze/data/processed/docking_pred/2023-May-31-1727_sub9_nm5_bs15_s42_ex16_mel10_mts10000_k50_ec075_g099_lra3e-4_lrc3e-3/650932a4c96e02f0afcc120cab6b741f416c7ae8_ligand_9.pdbqt
 14 15 0 0 0
SMALL
GASTEIGER

@<TRIPOS>ATOM
      1  C          5.7190    1.7870    1.3180 C.3     1  UNL1        0.0800
      2  C          5.0660    0.6670    2.0190 C.2     1  UNL1        0.1300
      3  C          5.8900   -0.6060    2.1190 C.3     1  UNL1        0.0870
      4  O          3.9750    0.6440    2.5120 O.2     1  UNL1       -0.3000
      5  C          5.7070    1.7280   -0.1590 C.3     1  UNL1        0.0430
      6  C          6.7740    0.9630   -0.8080 C.2     1  UNL1       -0.0440
      7  C          8.1200    1.3150   -0.6890 C.2     1  UNL1        0.0080
      8  C          6.4680   -0.1600   -1.5420 C.2     1  UNL1        0.0540
      9  C          9.0690    0.5370   -1.3010 C.2     1  UNL1        0.0510
     10  C          7.4600   -0.9380   -2.1580 C.2     1  UNL1        0.1660
     11  C          8.7880   -0.5910   -2.0410 C.2     1  UNL1        0.1650
     12  O          7.4480   -2.0890   -2.9360 O.2     1  UNL1       -0.4540
     13  O          9.5610   -1.5240   -2.7430 O.2     1  UNL1       -0.4540
     14  C          8.7430   -2.6690   -2.8670 C.3     1  UNL1        0.4680
@<TRIPOS>BOND
     1    12    14    1
     2    12    10    1
     3    14    13    1
     4    13    11    1
     5    10    11    2
     6    10     8    1
     7    11     9    1
     8     8     6    2
     9     9     7    2
    10     6     7    1
    11     6     5    1
    12     5     1    1
    13     1     2    1
    14     2     3    1
    15     2     4    2
