@<TRIPOS>MOLECULE
/home/cewinharhar/GITHUB/reincatalyze/data/processed/docking_pred/2023-May-31-1727_sub9_nm5_bs15_s42_ex16_mel10_mts10000_k50_ec075_g099_lra3e-4_lrc3e-3/650932a4c96e02f0afcc120cab6b741f416c7ae8_ligand_9.pdbqt
 14 15 0 0 0
SMALL
GASTEIGER

@<TRIPOS>ATOM
      1  C          5.7370    0.1550    1.9450 C.3     1  UNL1        0.0800
      2  C          4.7130    1.1810    1.6750 C.2     1  UNL1        0.1300
      3  C          5.0260    2.1260    0.5270 C.3     1  UNL1        0.0870
      4  O          3.6760    1.3540    2.2500 O.2     1  UNL1       -0.3000
      5  C          7.0330    0.3320    1.2560 C.3     1  UNL1        0.0430
      6  C          7.4050   -0.6780    0.2610 C.2     1  UNL1       -0.0440
      7  C          7.3510   -0.4250   -1.1110 C.2     1  UNL1        0.0080
      8  C          7.8520   -1.9130    0.6670 C.2     1  UNL1        0.0540
      9  C          7.7400   -1.4060   -1.9860 C.2     1  UNL1        0.0510
     10  C          8.2450   -2.9000   -0.2500 C.2     1  UNL1        0.1660
     11  C          8.1910   -2.6510   -1.6040 C.2     1  UNL1        0.1650
     12  O          8.7240   -4.1990   -0.1340 O.2     1  UNL1       -0.4540
     13  O          8.6340   -3.7890   -2.2900 O.2     1  UNL1       -0.4540
     14  C          9.3890   -4.5220   -1.3470 C.3     1  UNL1        0.4680
@<TRIPOS>BOND
     1    13    11    1
     2    13    14    1
     3     9    11    2
     4     9     7    1
     5    11    10    1
     6    14    12    1
     7     7     6    2
     8    10    12    1
     9    10     8    2
    10     6     8    1
    11     6     5    1
    12     3     2    1
    13     5     1    1
    14     2     1    1
    15     2     4    2
