@<TRIPOS>MOLECULE
/home/cewinharhar/GITHUB/reincatalyze/data/processed/docking_pred/2023-May-31-1727_sub9_nm5_bs15_s42_ex16_mel10_mts10000_k50_ec075_g099_lra3e-4_lrc3e-3/650932a4c96e02f0afcc120cab6b741f416c7ae8_ligand_9.pdbqt
 14 15 0 0 0
SMALL
GASTEIGER

@<TRIPOS>ATOM
      1  C          5.9300    1.6220   -0.2040 C.3     1  UNL1        0.0800
      2  C          5.1870    1.4670    1.0600 C.2     1  UNL1        0.1300
      3  C          5.6870    0.3630    1.9760 C.3     1  UNL1        0.0870
      4  O          4.2470    2.1030    1.4430 O.2     1  UNL1       -0.3000
      5  C          7.3300    1.1480   -0.1990 C.3     1  UNL1        0.0430
      6  C          7.6000   -0.1520   -0.8200 C.2     1  UNL1       -0.0440
      7  C          7.5820   -0.3330   -2.2040 C.2     1  UNL1        0.0080
      8  C          7.9090   -1.2390   -0.0360 C.2     1  UNL1        0.0540
      9  C          7.8710   -1.5710   -2.7180 C.2     1  UNL1        0.0510
     10  C          8.2010   -2.4950   -0.5890 C.2     1  UNL1        0.1660
     11  C          8.1830   -2.6740   -1.9550 C.2     1  UNL1        0.1650
     12  O          8.5380   -3.7350   -0.0600 O.2     1  UNL1       -0.4540
     13  O          8.5060   -4.0070   -2.2390 O.2     1  UNL1       -0.4540
     14  C          9.1720   -4.4830   -1.0880 C.3     1  UNL1        0.4680
@<TRIPOS>BOND
     1     9     7    1
     2     9    11    2
     3    13    11    1
     4    13    14    1
     5     7     6    2
     6    11    10    1
     7    14    12    1
     8     6     5    1
     9     6     8    1
    10    10    12    1
    11    10     8    2
    12     1     5    1
    13     1     2    1
    14     2     4    2
    15     2     3    1
