@<TRIPOS>MOLECULE
/home/cewinharhar/GITHUB/reincatalyze/data/processed/docking_pred/2023-May-31-1727_sub9_nm5_bs15_s42_ex16_mel10_mts10000_k50_ec075_g099_lra3e-4_lrc3e-3/650932a4c96e02f0afcc120cab6b741f416c7ae8_ligand_9.pdbqt
 14 15 0 0 0
SMALL
GASTEIGER

@<TRIPOS>ATOM
      1  C          5.3670   -0.0530    1.9530 C.3     1  UNL1        0.0800
      2  C          4.4220    1.0740    1.8480 C.2     1  UNL1        0.1300
      3  C          4.7530    2.1020    0.7790 C.3     1  UNL1        0.0870
      4  O          3.4360    1.2710    2.5000 O.2     1  UNL1       -0.3000
      5  C          6.7880    0.2630    1.6970 C.3     1  UNL1        0.0430
      6  C          7.3250   -0.0860    0.3780 C.2     1  UNL1       -0.0440
      7  C          7.7410    0.8830   -0.5360 C.2     1  UNL1        0.0080
      8  C          7.4580   -1.4070    0.0170 C.2     1  UNL1        0.0540
      9  C          8.2590    0.4840   -1.7410 C.2     1  UNL1        0.0510
     10  C          7.9920   -1.7870   -1.2240 C.2     1  UNL1        0.1660
     11  C          8.4020   -0.8310   -2.1260 C.2     1  UNL1        0.1650
     12  O          8.2390   -3.0070   -1.8420 O.2     1  UNL1       -0.4540
     13  O          8.8900   -1.4730   -3.2720 O.2     1  UNL1       -0.4540
     14  C          9.2070   -2.7860   -2.8580 C.3     1  UNL1        0.4680
@<TRIPOS>BOND
     1    13    14    1
     2    13    11    1
     3    14    12    1
     4    11     9    2
     5    11    10    1
     6    12    10    1
     7     9     7    1
     8    10     8    2
     9     7     6    2
    10     8     6    1
    11     6     5    1
    12     3     2    1
    13     5     1    1
    14     2     1    1
    15     2     4    2
