@<TRIPOS>MOLECULE
/home/cewinharhar/GITHUB/reincatalyze/data/processed/docking_pred/2023-May-31-1727_sub9_nm5_bs15_s42_ex16_mel10_mts10000_k50_ec075_g099_lra3e-4_lrc3e-3/650932a4c96e02f0afcc120cab6b741f416c7ae8_ligand_9.pdbqt
 14 15 0 0 0
SMALL
GASTEIGER

@<TRIPOS>ATOM
      1  C          6.2480    1.1700    0.9130 C.3     1  UNL1        0.0800
      2  C          5.5680    0.3530    1.9350 C.2     1  UNL1        0.1300
      3  C          6.3500   -0.8530    2.4280 C.3     1  UNL1        0.0870
      4  O          4.4850    0.5280    2.4160 O.2     1  UNL1       -0.3000
      5  C          5.8980    0.8780   -0.4930 C.3     1  UNL1        0.0430
      6  C          6.8640    0.1020   -1.2760 C.2     1  UNL1       -0.0440
      7  C          7.7730    0.7070   -2.1460 C.2     1  UNL1        0.0080
      8  C          6.9150   -1.2660   -1.1470 C.2     1  UNL1        0.0540
      9  C          8.6670   -0.0790   -2.8270 C.2     1  UNL1        0.0510
     10  C          7.8410   -2.0460   -1.8560 C.2     1  UNL1        0.1660
     11  C          8.7370   -1.4490   -2.7150 C.2     1  UNL1        0.1650
     12  O          8.1160   -3.4060   -1.9230 O.2     1  UNL1       -0.4540
     13  O          9.5400   -2.4430   -3.2890 O.2     1  UNL1       -0.4540
     14  C          9.4380   -3.5540   -2.4220 C.3     1  UNL1        0.4680
@<TRIPOS>BOND
     1    13    11    1
     2    13    14    1
     3     9    11    2
     4     9     7    1
     5    11    10    1
     6    14    12    1
     7     7     6    2
     8    12    10    1
     9    10     8    2
    10     6     8    1
    11     6     5    1
    12     5     1    1
    13     1     2    1
    14     2     4    2
    15     2     3    1
