@<TRIPOS>MOLECULE
/home/cewinharhar/GITHUB/reincatalyze/data/processed/docking_pred/2023-May-31-1727_sub9_nm5_bs15_s42_ex16_mel10_mts10000_k50_ec075_g099_lra3e-4_lrc3e-3/67714d3181cdcfbe83529be90e704c7fe5693ba3_ligand_9.pdbqt
 14 15 0 0 0
SMALL
GASTEIGER

@<TRIPOS>ATOM
      1  C          5.3600   -0.0710    1.9980 C.3     1  UNL1        0.0800
      2  C          4.4240    1.0600    1.8660 C.2     1  UNL1        0.1300
      3  C          4.7730    2.0700    0.7860 C.3     1  UNL1        0.0870
      4  O          3.4320    1.2720    2.5030 O.2     1  UNL1       -0.3000
      5  C          6.7860    0.2310    1.7530 C.3     1  UNL1        0.0430
      6  C          7.3190   -0.0860    0.4250 C.2     1  UNL1       -0.0440
      7  C          7.7320    0.9060   -0.4670 C.2     1  UNL1        0.0080
      8  C          7.4540   -1.3970    0.0320 C.2     1  UNL1        0.0540
      9  C          8.2470    0.5360   -1.6830 C.2     1  UNL1        0.0510
     10  C          7.9850   -1.7470   -1.2190 C.2     1  UNL1        0.1660
     11  C          8.3910   -0.7690   -2.0990 C.2     1  UNL1        0.1650
     12  O          8.2320   -2.9510   -1.8670 O.2     1  UNL1       -0.4540
     13  O          8.8770   -1.3830   -3.2610 O.2     1  UNL1       -0.4540
     14  C          9.1970   -2.7040   -2.8790 C.3     1  UNL1        0.4680
@<TRIPOS>BOND
     1    13    14    1
     2    13    11    1
     3    14    12    1
     4    11     9    2
     5    11    10    1
     6    12    10    1
     7     9     7    1
     8    10     8    2
     9     7     6    2
    10     8     6    1
    11     6     5    1
    12     3     2    1
    13     5     1    1
    14     2     1    1
    15     2     4    2
