@<TRIPOS>MOLECULE
/home/cewinharhar/GITHUB/reincatalyze/data/processed/docking_pred/2023-May-31-1727_sub9_nm5_bs15_s42_ex16_mel10_mts10000_k50_ec075_g099_lra3e-4_lrc3e-3/67714d3181cdcfbe83529be90e704c7fe5693ba3_ligand_9.pdbqt
 14 15 0 0 0
SMALL
GASTEIGER

@<TRIPOS>ATOM
      1  C          6.2040    1.2040    0.8870 C.3     1  UNL1        0.0800
      2  C          5.5390    0.3830    1.9160 C.2     1  UNL1        0.1300
      3  C          6.3290   -0.8210    2.3980 C.3     1  UNL1        0.0870
      4  O          4.4610    0.5560    2.4100 O.2     1  UNL1       -0.3000
      5  C          5.8680    0.8860   -0.5160 C.3     1  UNL1        0.0430
      6  C          6.8510    0.1170   -1.2840 C.2     1  UNL1       -0.0440
      7  C          7.8020    0.7300   -2.1010 C.2     1  UNL1        0.0080
      8  C          6.8760   -1.2550   -1.1910 C.2     1  UNL1        0.0540
      9  C          8.7100   -0.0500   -2.7690 C.2     1  UNL1        0.0510
     10  C          7.8170   -2.0300   -1.8870 C.2     1  UNL1        0.1660
     11  C          8.7550   -1.4250   -2.6940 C.2     1  UNL1        0.1650
     12  O          8.0730   -3.3920   -1.9820 O.2     1  UNL1       -0.4540
     13  O          9.5640   -2.4150   -3.2650 O.2     1  UNL1       -0.4540
     14  C          9.4110   -3.5470   -2.4340 C.3     1  UNL1        0.4680
@<TRIPOS>BOND
     1    13    11    1
     2    13    14    1
     3     9    11    2
     4     9     7    1
     5    11    10    1
     6    14    12    1
     7     7     6    2
     8    12    10    1
     9    10     8    2
    10     6     8    1
    11     6     5    1
    12     5     1    1
    13     1     2    1
    14     2     3    1
    15     2     4    2
