@<TRIPOS>MOLECULE
/home/cewinharhar/GITHUB/reincatalyze/data/processed/docking_pred/2023-May-31-1727_sub9_nm5_bs15_s42_ex16_mel10_mts10000_k50_ec075_g099_lra3e-4_lrc3e-3/67714d3181cdcfbe83529be90e704c7fe5693ba3_ligand_9.pdbqt
 14 15 0 0 0
SMALL
GASTEIGER

@<TRIPOS>ATOM
      1  C          6.7600    1.6340    1.1270 C.3     1  UNL1        0.0800
      2  C          5.3190    1.7980    0.8630 C.2     1  UNL1        0.1300
      3  C          4.9560    2.1490   -0.5700 C.3     1  UNL1        0.0870
      4  O          4.4120    1.6860    1.6380 O.2     1  UNL1       -0.3000
      5  C          7.6430    1.6320   -0.0580 C.3     1  UNL1        0.0430
      6  C          7.7850    0.3680   -0.7860 C.2     1  UNL1       -0.0440
      7  C          7.7560    0.3060   -2.1810 C.2     1  UNL1        0.0080
      8  C          7.9820   -0.8050   -0.0970 C.2     1  UNL1        0.0540
      9  C          7.9230   -0.9080   -2.7970 C.2     1  UNL1        0.0510
     10  C          8.1500   -2.0340   -0.7530 C.2     1  UNL1        0.1660
     11  C          8.1210   -2.0960   -2.1290 C.2     1  UNL1        0.1650
     12  O          8.3600   -3.3410   -0.3310 O.2     1  UNL1       -0.4540
     13  O          8.3110   -3.4260   -2.5240 O.2     1  UNL1       -0.4540
     14  C          8.9210   -4.0600   -1.4190 C.3     1  UNL1        0.4680
@<TRIPOS>BOND
     1     9     7    1
     2     9    11    2
     3    13    11    1
     4    13    14    1
     5     7     6    2
     6    11    10    1
     7    14    12    1
     8     6     8    1
     9     6     5    1
    10    10    12    1
    11    10     8    2
    12     3     2    1
    13     5     1    1
    14     2     1    1
    15     2     4    2
