@<TRIPOS>MOLECULE
/home/cewinharhar/GITHUB/reincatalyze/data/processed/docking_pred/2023-May-31-1727_sub9_nm5_bs15_s42_ex16_mel10_mts10000_k50_ec075_g099_lra3e-4_lrc3e-3/67714d3181cdcfbe83529be90e704c7fe5693ba3_ligand_9.pdbqt
 14 15 0 0 0
SMALL
GASTEIGER

@<TRIPOS>ATOM
      1  C          5.4620    1.6900    0.1160 C.3     1  UNL1        0.0800
      2  C          4.8000    1.3020    1.3750 C.2     1  UNL1        0.1300
      3  C          5.4140    0.1120    2.0930 C.3     1  UNL1        0.0870
      4  O          3.8460    1.8120    1.8910 O.2     1  UNL1       -0.3000
      5  C          6.9000    1.3650    0.0100 C.3     1  UNL1        0.0430
      6  C          7.2610    0.1570   -0.7380 C.2     1  UNL1       -0.0440
      7  C          7.2680    0.1210   -2.1330 C.2     1  UNL1        0.0080
      8  C          7.6360   -0.9820   -0.0650 C.2     1  UNL1        0.0540
      9  C          7.6430   -1.0360   -2.7670 C.2     1  UNL1        0.0510
     10  C          8.0160   -2.1530   -0.7400 C.2     1  UNL1        0.1660
     11  C          8.0220   -2.1890   -2.1170 C.2     1  UNL1        0.1650
     12  O          8.4300   -3.4160   -0.3370 O.2     1  UNL1       -0.4540
     13  O          8.4360   -3.4620   -2.5320 O.2     1  UNL1       -0.4540
     14  C          9.1220   -4.0100   -1.4250 C.3     1  UNL1        0.4680
@<TRIPOS>BOND
     1     9     7    1
     2     9    11    2
     3    13    11    1
     4    13    14    1
     5     7     6    2
     6    11    10    1
     7    14    12    1
     8    10    12    1
     9    10     8    2
    10     6     8    1
    11     6     5    1
    12     5     1    1
    13     1     2    1
    14     2     4    2
    15     2     3    1
