MODEL 1
REMARK VINA RESULT:      -7.6      0.000      0.000
REMARK SMILES CC(=O)CCc1ccc2c(c1)OCO2
REMARK SMILES IDX 4 1 2 2 1 3 3 4 5 5 6 6 7 7 11 8 8 9 10 10 9 11 12 12 14 13
REMARK SMILES IDX 13 14
REMARK H PARENT
REMARK Flexibility Score: inf
ROOT
ATOM      1  C   UNL     1       5.717   1.681   1.130  1.00  0.00     0.080 C 
ENDROOT
BRANCH   1   2
ATOM      2  C   UNL     1       5.183   0.606   1.985  1.00  0.00     0.130 C 
ATOM      3  C   UNL     1       6.121  -0.566   2.218  1.00  0.00     0.087 C 
ATOM      4  O   UNL     1       4.108   0.550   2.511  1.00  0.00    -0.300 OA
ENDBRANCH   1   2
BRANCH   1   5
ATOM      5  C   UNL     1       5.625   1.460  -0.329  1.00  0.00     0.043 C 
BRANCH   5   6
ATOM      6  C   UNL     1       6.725   0.730  -0.967  1.00  0.00    -0.044 A 
ATOM      7  C   UNL     1       8.043   1.186  -0.926  1.00  0.00     0.008 A 
ATOM      8  C   UNL     1       6.479  -0.460  -1.610  1.00  0.00     0.054 A 
ATOM      9  C   UNL     1       9.026   0.438  -1.521  1.00  0.00     0.051 A 
ATOM     10  C   UNL     1       7.504  -1.206  -2.211  1.00  0.00     0.166 A 
ATOM     11  C   UNL     1       8.805  -0.756  -2.171  1.00  0.00     0.165 A 
ATOM     12  O   UNL     1       7.552  -2.407  -2.909  1.00  0.00    -0.454 OA
ATOM     13  O   UNL     1       9.622  -1.678  -2.838  1.00  0.00    -0.454 OA
ATOM     14  C   UNL     1       8.888  -2.885  -2.852  1.00  0.00     0.468 C 
ENDBRANCH   5   6
ENDBRANCH   1   5
TORSDOF 3
ENDMDL
MODEL 2
REMARK VINA RESULT:      -7.0      1.757      2.179
REMARK SMILES CC(=O)CCc1ccc2c(c1)OCO2
REMARK SMILES IDX 4 1 2 2 1 3 3 4 5 5 6 6 7 7 11 8 8 9 10 10 9 11 12 12 14 13
REMARK SMILES IDX 13 14
REMARK H PARENT
REMARK Flexibility Score: inf
ROOT
ATOM      1  C   UNL     1       5.871   1.344  -0.274  1.00  0.00     0.080 C 
ENDROOT
BRANCH   1   2
ATOM      2  C   UNL     1       5.239   1.309   1.057  1.00  0.00     0.130 C 
ATOM      3  C   UNL     1       5.493   0.046   1.864  1.00  0.00     0.087 C 
ATOM      4  O   UNL     1       4.558   2.150   1.571  1.00  0.00    -0.300 OA
ENDBRANCH   1   2
BRANCH   1   5
ATOM      5  C   UNL     1       7.301   0.974  -0.327  1.00  0.00     0.043 C 
BRANCH   5   6
ATOM      6  C   UNL     1       7.634  -0.332  -0.903  1.00  0.00    -0.044 A 
ATOM      7  C   UNL     1       7.741  -0.533  -2.280  1.00  0.00     0.008 A 
ATOM      8  C   UNL     1       7.882  -1.405  -0.079  1.00  0.00     0.054 A 
ATOM      9  C   UNL     1       8.083  -1.775  -2.748  1.00  0.00     0.051 A 
ATOM     10  C   UNL     1       8.231  -2.666  -0.585  1.00  0.00     0.166 A 
ATOM     11  C   UNL     1       8.335  -2.864  -1.944  1.00  0.00     0.165 A 
ATOM     12  O   UNL     1       8.529  -3.896  -0.010  1.00  0.00    -0.454 OA
ATOM     13  O   UNL     1       8.693  -4.198  -2.179  1.00  0.00    -0.454 OA
ATOM     14  C   UNL     1       9.258  -4.652  -0.966  1.00  0.00     0.468 C 
ENDBRANCH   5   6
ENDBRANCH   1   5
TORSDOF 3
ENDMDL
MODEL 3
REMARK VINA RESULT:      -6.8      1.121      1.612
REMARK SMILES CC(=O)CCc1ccc2c(c1)OCO2
REMARK SMILES IDX 4 1 2 2 1 3 3 4 5 5 6 6 7 7 11 8 8 9 10 10 9 11 12 12 14 13
REMARK SMILES IDX 13 14
REMARK H PARENT
REMARK Flexibility Score: inf
ROOT
ATOM      1  C   UNL     1       5.367  -0.046   1.978  1.00  0.00     0.080 C 
ENDROOT
BRANCH   1   2
ATOM      2  C   UNL     1       4.423   1.081   1.882  1.00  0.00     0.130 C 
ATOM      3  C   UNL     1       4.762   2.125   0.830  1.00  0.00     0.087 C 
ATOM      4  O   UNL     1       3.432   1.268   2.528  1.00  0.00    -0.300 OA
ENDBRANCH   1   2
BRANCH   1   5
ATOM      5  C   UNL     1       6.789   0.271   1.725  1.00  0.00     0.043 C 
BRANCH   5   6
ATOM      6  C   UNL     1       7.325  -0.063   0.403  1.00  0.00    -0.044 A 
ATOM      7  C   UNL     1       7.745   0.917  -0.498  1.00  0.00     0.008 A 
ATOM      8  C   UNL     1       7.455  -1.379   0.024  1.00  0.00     0.054 A 
ATOM      9  C   UNL     1       8.262   0.533  -1.708  1.00  0.00     0.051 A 
ATOM     10  C   UNL     1       7.989  -1.744  -1.221  1.00  0.00     0.166 A 
ATOM     11  C   UNL     1       8.402  -0.777  -2.111  1.00  0.00     0.165 A 
ATOM     12  O   UNL     1       8.233  -2.956  -1.856  1.00  0.00    -0.454 OA
ATOM     13  O   UNL     1       8.888  -1.405  -3.264  1.00  0.00    -0.454 OA
ATOM     14  C   UNL     1       9.201  -2.724  -2.868  1.00  0.00     0.468 C 
ENDBRANCH   5   6
ENDBRANCH   1   5
TORSDOF 3
ENDMDL
MODEL 4
REMARK VINA RESULT:      -6.7      1.891      2.384
REMARK SMILES CC(=O)CCc1ccc2c(c1)OCO2
REMARK SMILES IDX 4 1 2 2 1 3 3 4 5 5 6 6 7 7 11 8 8 9 10 10 9 11 12 12 14 13
REMARK SMILES IDX 13 14
REMARK H PARENT
REMARK Flexibility Score: inf
ROOT
ATOM      1  C   UNL     1       5.792   0.346   1.716  1.00  0.00     0.080 C 
ENDROOT
BRANCH   1   2
ATOM      2  C   UNL     1       4.821   1.389   1.339  1.00  0.00     0.130 C 
ATOM      3  C   UNL     1       5.142   2.145   0.061  1.00  0.00     0.087 C 
ATOM      4  O   UNL     1       3.820   1.705   1.916  1.00  0.00    -0.300 OA
ENDBRANCH   1   2
BRANCH   1   5
ATOM      5  C   UNL     1       7.120   0.430   1.073  1.00  0.00     0.043 C 
BRANCH   5   6
ATOM      6  C   UNL     1       7.474  -0.629   0.123  1.00  0.00    -0.044 A 
ATOM      7  C   UNL     1       7.436  -0.432  -1.258  1.00  0.00     0.008 A 
ATOM      8  C   UNL     1       7.886  -1.858   0.583  1.00  0.00     0.054 A 
ATOM      9  C   UNL     1       7.806  -1.458  -2.088  1.00  0.00     0.051 A 
ATOM     10  C   UNL     1       8.260  -2.891  -0.289  1.00  0.00     0.166 A 
ATOM     11  C   UNL     1       8.222  -2.697  -1.652  1.00  0.00     0.165 A 
ATOM     12  O   UNL     1       8.704  -4.196  -0.116  1.00  0.00    -0.454 OA
ATOM     13  O   UNL     1       8.640  -3.874  -2.287  1.00  0.00    -0.454 OA
ATOM     14  C   UNL     1       9.369  -4.586  -1.309  1.00  0.00     0.468 C 
ENDBRANCH   5   6
ENDBRANCH   1   5
TORSDOF 3
ENDMDL
MODEL 5
REMARK VINA RESULT:      -6.5      1.520      2.246
REMARK SMILES CC(=O)CCc1ccc2c(c1)OCO2
REMARK SMILES IDX 4 1 2 2 1 3 3 4 5 5 6 6 7 7 11 8 8 9 10 10 9 11 12 12 14 13
REMARK SMILES IDX 13 14
REMARK H PARENT
REMARK Flexibility Score: inf
ROOT
ATOM      1  C   UNL     1       5.323  -0.080   2.196  1.00  0.00     0.080 C 
ENDROOT
BRANCH   1   2
ATOM      2  C   UNL     1       4.445   1.070   1.913  1.00  0.00     0.130 C 
ATOM      3  C   UNL     1       4.912   1.984   0.793  1.00  0.00     0.087 C 
ATOM      4  O   UNL     1       3.419   1.362   2.457  1.00  0.00    -0.300 OA
ENDBRANCH   1   2
BRANCH   1   5
ATOM      5  C   UNL     1       6.760   0.109   1.903  1.00  0.00     0.043 C 
BRANCH   5   6
ATOM      6  C   UNL     1       7.328  -0.671   0.801  1.00  0.00    -0.044 A 
ATOM      7  C   UNL     1       7.650  -2.023   0.935  1.00  0.00     0.008 A 
ATOM      8  C   UNL     1       7.535  -0.082  -0.425  1.00  0.00     0.054 A 
ATOM      9  C   UNL     1       8.153  -2.698  -0.147  1.00  0.00     0.051 A 
ATOM     10  C   UNL     1       8.052  -0.797  -1.515  1.00  0.00     0.166 A 
ATOM     11  C   UNL     1       8.370  -2.131  -1.383  1.00  0.00     0.165 A 
ATOM     12  O   UNL     1       8.358  -0.475  -2.832  1.00  0.00    -0.454 OA
ATOM     13  O   UNL     1       8.861  -2.601  -2.608  1.00  0.00    -0.454 OA
ATOM     14  C   UNL     1       8.389  -1.685  -3.575  1.00  0.00     0.468 C 
ENDBRANCH   5   6
ENDBRANCH   1   5
TORSDOF 3
ENDMDL
