@<TRIPOS>MOLECULE
/home/cewinharhar/GITHUB/reincatalyze/data/processed/docking_pred/2023-May-31-1727_sub9_nm5_bs15_s42_ex16_mel10_mts10000_k50_ec075_g099_lra3e-4_lrc3e-3/677496c5c46bc5e4ac1ff58ba47d0b72a83fedc5_ligand_9.pdbqt
 14 15 0 0 0
SMALL
GASTEIGER

@<TRIPOS>ATOM
      1  C          5.8710    1.3440   -0.2740 C.3     1  UNL1        0.0800
      2  C          5.2390    1.3090    1.0570 C.2     1  UNL1        0.1300
      3  C          5.4930    0.0460    1.8640 C.3     1  UNL1        0.0870
      4  O          4.5580    2.1500    1.5710 O.2     1  UNL1       -0.3000
      5  C          7.3010    0.9740   -0.3270 C.3     1  UNL1        0.0430
      6  C          7.6340   -0.3320   -0.9030 C.2     1  UNL1       -0.0440
      7  C          7.7410   -0.5330   -2.2800 C.2     1  UNL1        0.0080
      8  C          7.8820   -1.4050   -0.0790 C.2     1  UNL1        0.0540
      9  C          8.0830   -1.7750   -2.7480 C.2     1  UNL1        0.0510
     10  C          8.2310   -2.6660   -0.5850 C.2     1  UNL1        0.1660
     11  C          8.3350   -2.8640   -1.9440 C.2     1  UNL1        0.1650
     12  O          8.5290   -3.8960   -0.0100 O.2     1  UNL1       -0.4540
     13  O          8.6930   -4.1980   -2.1790 O.2     1  UNL1       -0.4540
     14  C          9.2580   -4.6520   -0.9660 C.3     1  UNL1        0.4680
@<TRIPOS>BOND
     1     9     7    1
     2     9    11    2
     3     7     6    2
     4    13    11    1
     5    13    14    1
     6    11    10    1
     7    14    12    1
     8     6     5    1
     9     6     8    1
    10    10     8    2
    11    10    12    1
    12     5     1    1
    13     1     2    1
    14     2     4    2
    15     2     3    1
