@<TRIPOS>MOLECULE
/home/cewinharhar/GITHUB/reincatalyze/data/processed/docking_pred/2023-May-31-1727_sub9_nm5_bs15_s42_ex16_mel10_mts10000_k50_ec075_g099_lra3e-4_lrc3e-3/677496c5c46bc5e4ac1ff58ba47d0b72a83fedc5_ligand_9.pdbqt
 14 15 0 0 0
SMALL
GASTEIGER

@<TRIPOS>ATOM
      1  C          5.3230   -0.0800    2.1960 C.3     1  UNL1        0.0800
      2  C          4.4450    1.0700    1.9130 C.2     1  UNL1        0.1300
      3  C          4.9120    1.9840    0.7930 C.3     1  UNL1        0.0870
      4  O          3.4190    1.3620    2.4570 O.2     1  UNL1       -0.3000
      5  C          6.7600    0.1090    1.9030 C.3     1  UNL1        0.0430
      6  C          7.3280   -0.6710    0.8010 C.2     1  UNL1       -0.0440
      7  C          7.6500   -2.0230    0.9350 C.2     1  UNL1        0.0080
      8  C          7.5350   -0.0820   -0.4250 C.2     1  UNL1        0.0540
      9  C          8.1530   -2.6980   -0.1470 C.2     1  UNL1        0.0510
     10  C          8.0520   -0.7970   -1.5150 C.2     1  UNL1        0.1660
     11  C          8.3700   -2.1310   -1.3830 C.2     1  UNL1        0.1650
     12  O          8.3580   -0.4750   -2.8320 O.2     1  UNL1       -0.4540
     13  O          8.8610   -2.6010   -2.6080 O.2     1  UNL1       -0.4540
     14  C          8.3890   -1.6850   -3.5750 C.3     1  UNL1        0.4680
@<TRIPOS>BOND
     1    14    12    1
     2    14    13    1
     3    12    10    1
     4    13    11    1
     5    10    11    2
     6    10     8    1
     7    11     9    1
     8     8     6    2
     9     9     7    2
    10     3     2    1
    11     6     7    1
    12     6     5    1
    13     5     1    1
    14     2     1    1
    15     2     4    2
