@<TRIPOS>MOLECULE
/home/cewinharhar/GITHUB/reincatalyze/data/processed/docking_pred/2023-May-31-1727_sub9_nm5_bs15_s42_ex16_mel10_mts10000_k50_ec075_g099_lra3e-4_lrc3e-3/677496c5c46bc5e4ac1ff58ba47d0b72a83fedc5_ligand_9.pdbqt
 14 15 0 0 0
SMALL
GASTEIGER

@<TRIPOS>ATOM
      1  C          5.7170    1.6810    1.1300 C.3     1  UNL1        0.0800
      2  C          5.1830    0.6060    1.9850 C.2     1  UNL1        0.1300
      3  C          6.1210   -0.5660    2.2180 C.3     1  UNL1        0.0870
      4  O          4.1080    0.5500    2.5110 O.2     1  UNL1       -0.3000
      5  C          5.6250    1.4600   -0.3290 C.3     1  UNL1        0.0430
      6  C          6.7250    0.7300   -0.9670 C.2     1  UNL1       -0.0440
      7  C          8.0430    1.1860   -0.9260 C.2     1  UNL1        0.0080
      8  C          6.4790   -0.4600   -1.6100 C.2     1  UNL1        0.0540
      9  C          9.0260    0.4380   -1.5210 C.2     1  UNL1        0.0510
     10  C          7.5040   -1.2060   -2.2110 C.2     1  UNL1        0.1660
     11  C          8.8050   -0.7560   -2.1710 C.2     1  UNL1        0.1650
     12  O          7.5520   -2.4070   -2.9090 O.2     1  UNL1       -0.4540
     13  O          9.6220   -1.6780   -2.8380 O.2     1  UNL1       -0.4540
     14  C          8.8880   -2.8850   -2.8520 C.3     1  UNL1        0.4680
@<TRIPOS>BOND
     1    12    14    1
     2    12    10    1
     3    14    13    1
     4    13    11    1
     5    10    11    2
     6    10     8    1
     7    11     9    1
     8     8     6    2
     9     9     7    2
    10     6     7    1
    11     6     5    1
    12     5     1    1
    13     1     2    1
    14     2     3    1
    15     2     4    2
