@<TRIPOS>MOLECULE
/home/cewinharhar/GITHUB/reincatalyze/data/processed/docking_pred/2023-May-31-1727_sub9_nm5_bs15_s42_ex16_mel10_mts10000_k50_ec075_g099_lra3e-4_lrc3e-3/677496c5c46bc5e4ac1ff58ba47d0b72a83fedc5_ligand_9.pdbqt
 14 15 0 0 0
SMALL
GASTEIGER

@<TRIPOS>ATOM
      1  C          5.3670   -0.0460    1.9780 C.3     1  UNL1        0.0800
      2  C          4.4230    1.0810    1.8820 C.2     1  UNL1        0.1300
      3  C          4.7620    2.1250    0.8300 C.3     1  UNL1        0.0870
      4  O          3.4320    1.2680    2.5280 O.2     1  UNL1       -0.3000
      5  C          6.7890    0.2710    1.7250 C.3     1  UNL1        0.0430
      6  C          7.3250   -0.0630    0.4030 C.2     1  UNL1       -0.0440
      7  C          7.7450    0.9170   -0.4980 C.2     1  UNL1        0.0080
      8  C          7.4550   -1.3790    0.0240 C.2     1  UNL1        0.0540
      9  C          8.2620    0.5330   -1.7080 C.2     1  UNL1        0.0510
     10  C          7.9890   -1.7440   -1.2210 C.2     1  UNL1        0.1660
     11  C          8.4020   -0.7770   -2.1110 C.2     1  UNL1        0.1650
     12  O          8.2330   -2.9560   -1.8560 O.2     1  UNL1       -0.4540
     13  O          8.8880   -1.4050   -3.2640 O.2     1  UNL1       -0.4540
     14  C          9.2010   -2.7240   -2.8680 C.3     1  UNL1        0.4680
@<TRIPOS>BOND
     1    13    14    1
     2    13    11    1
     3    14    12    1
     4    11     9    2
     5    11    10    1
     6    12    10    1
     7     9     7    1
     8    10     8    2
     9     7     6    2
    10     8     6    1
    11     6     5    1
    12     3     2    1
    13     5     1    1
    14     2     1    1
    15     2     4    2
