@<TRIPOS>MOLECULE
/home/cewinharhar/GITHUB/reincatalyze/data/processed/docking_pred/2023-May-31-1727_sub9_nm5_bs15_s42_ex16_mel10_mts10000_k50_ec075_g099_lra3e-4_lrc3e-3/677496c5c46bc5e4ac1ff58ba47d0b72a83fedc5_ligand_9.pdbqt
 14 15 0 0 0
SMALL
GASTEIGER

@<TRIPOS>ATOM
      1  C          5.7920    0.3460    1.7160 C.3     1  UNL1        0.0800
      2  C          4.8210    1.3890    1.3390 C.2     1  UNL1        0.1300
      3  C          5.1420    2.1450    0.0610 C.3     1  UNL1        0.0870
      4  O          3.8200    1.7050    1.9160 O.2     1  UNL1       -0.3000
      5  C          7.1200    0.4300    1.0730 C.3     1  UNL1        0.0430
      6  C          7.4740   -0.6290    0.1230 C.2     1  UNL1       -0.0440
      7  C          7.4360   -0.4320   -1.2580 C.2     1  UNL1        0.0080
      8  C          7.8860   -1.8580    0.5830 C.2     1  UNL1        0.0540
      9  C          7.8060   -1.4580   -2.0880 C.2     1  UNL1        0.0510
     10  C          8.2600   -2.8910   -0.2890 C.2     1  UNL1        0.1660
     11  C          8.2220   -2.6970   -1.6520 C.2     1  UNL1        0.1650
     12  O          8.7040   -4.1960   -0.1160 O.2     1  UNL1       -0.4540
     13  O          8.6400   -3.8740   -2.2870 O.2     1  UNL1       -0.4540
     14  C          9.3690   -4.5860   -1.3090 C.3     1  UNL1        0.4680
@<TRIPOS>BOND
     1    13    11    1
     2    13    14    1
     3     9    11    2
     4     9     7    1
     5    11    10    1
     6    14    12    1
     7     7     6    2
     8    10    12    1
     9    10     8    2
    10     3     2    1
    11     6     8    1
    12     6     5    1
    13     5     1    1
    14     2     1    1
    15     2     4    2
