MODEL 1
REMARK VINA RESULT:      -7.6      0.000      0.000
REMARK SMILES CC(=O)CCc1ccc2c(c1)OCO2
REMARK SMILES IDX 4 1 2 2 1 3 3 4 5 5 6 6 7 7 11 8 8 9 10 10 9 11 12 12 14 13
REMARK SMILES IDX 13 14
REMARK H PARENT
REMARK Flexibility Score: inf
ROOT
ATOM      1  C   UNL     1       5.738   1.620   1.087  1.00  0.00     0.080 C 
ENDROOT
BRANCH   1   2
ATOM      2  C   UNL     1       5.194   0.578   1.977  1.00  0.00     0.130 C 
ATOM      3  C   UNL     1       6.122  -0.594   2.247  1.00  0.00     0.087 C 
ATOM      4  O   UNL     1       4.120   0.550   2.506  1.00  0.00    -0.300 OA
ENDBRANCH   1   2
BRANCH   1   5
ATOM      5  C   UNL     1       5.627   1.359  -0.364  1.00  0.00     0.043 C 
BRANCH   5   6
ATOM      6  C   UNL     1       6.744   0.661  -1.006  1.00  0.00    -0.044 A 
ATOM      7  C   UNL     1       8.047   1.161  -0.982  1.00  0.00     0.008 A 
ATOM      8  C   UNL     1       6.533  -0.543  -1.636  1.00  0.00     0.054 A 
ATOM      9  C   UNL     1       9.049   0.442  -1.580  1.00  0.00     0.051 A 
ATOM     10  C   UNL     1       7.577  -1.259  -2.241  1.00  0.00     0.166 A 
ATOM     11  C   UNL     1       8.863  -0.765  -2.217  1.00  0.00     0.165 A 
ATOM     12  O   UNL     1       7.659  -2.464  -2.929  1.00  0.00    -0.454 OA
ATOM     13  O   UNL     1       9.703  -1.666  -2.884  1.00  0.00    -0.454 OA
ATOM     14  C   UNL     1       9.010  -2.896  -2.880  1.00  0.00     0.468 C 
ENDBRANCH   5   6
ENDBRANCH   1   5
TORSDOF 3
ENDMDL
MODEL 2
REMARK VINA RESULT:      -7.0      1.695      2.088
REMARK SMILES CC(=O)CCc1ccc2c(c1)OCO2
REMARK SMILES IDX 4 1 2 2 1 3 3 4 5 5 6 6 7 7 11 8 8 9 10 10 9 11 12 12 14 13
REMARK SMILES IDX 13 14
REMARK H PARENT
REMARK Flexibility Score: inf
ROOT
ATOM      1  C   UNL     1       5.720   1.331  -0.311  1.00  0.00     0.080 C 
ENDROOT
BRANCH   1   2
ATOM      2  C   UNL     1       5.100   1.324   1.026  1.00  0.00     0.130 C 
ATOM      3  C   UNL     1       5.509   0.172   1.927  1.00  0.00     0.087 C 
ATOM      4  O   UNL     1       4.320   2.114   1.480  1.00  0.00    -0.300 OA
ENDBRANCH   1   2
BRANCH   1   5
ATOM      5  C   UNL     1       7.166   1.030  -0.360  1.00  0.00     0.043 C 
BRANCH   5   6
ATOM      6  C   UNL     1       7.564  -0.257  -0.935  1.00  0.00    -0.044 A 
ATOM      7  C   UNL     1       7.749  -0.434  -2.307  1.00  0.00     0.008 A 
ATOM      8  C   UNL     1       7.795  -1.336  -0.114  1.00  0.00     0.054 A 
ATOM      9  C   UNL     1       8.148  -1.660  -2.774  1.00  0.00     0.051 A 
ATOM     10  C   UNL     1       8.204  -2.580  -0.619  1.00  0.00     0.166 A 
ATOM     11  C   UNL     1       8.385  -2.755  -1.973  1.00  0.00     0.165 A 
ATOM     12  O   UNL     1       8.503  -3.811  -0.046  1.00  0.00    -0.454 OA
ATOM     13  O   UNL     1       8.790  -4.075  -2.207  1.00  0.00    -0.454 OA
ATOM     14  C   UNL     1       9.301  -4.533  -0.972  1.00  0.00     0.468 C 
ENDBRANCH   5   6
ENDBRANCH   1   5
TORSDOF 3
ENDMDL
MODEL 3
REMARK VINA RESULT:      -6.7      1.119      1.606
REMARK SMILES CC(=O)CCc1ccc2c(c1)OCO2
REMARK SMILES IDX 4 1 2 2 1 3 3 4 5 5 6 6 7 7 11 8 8 9 10 10 9 11 12 12 14 13
REMARK SMILES IDX 13 14
REMARK H PARENT
REMARK Flexibility Score: inf
ROOT
ATOM      1  C   UNL     1       5.388  -0.075   1.949  1.00  0.00     0.080 C 
ENDROOT
BRANCH   1   2
ATOM      2  C   UNL     1       4.449   1.059   1.867  1.00  0.00     0.130 C 
ATOM      3  C   UNL     1       4.791   2.112   0.827  1.00  0.00     0.087 C 
ATOM      4  O   UNL     1       3.460   1.244   2.518  1.00  0.00    -0.300 OA
ENDBRANCH   1   2
BRANCH   1   5
ATOM      5  C   UNL     1       6.809   0.236   1.692  1.00  0.00     0.043 C 
BRANCH   5   6
ATOM      6  C   UNL     1       7.341  -0.105   0.369  1.00  0.00    -0.044 A 
ATOM      7  C   UNL     1       7.741   0.871  -0.546  1.00  0.00     0.008 A 
ATOM      8  C   UNL     1       7.488  -1.423   0.005  1.00  0.00     0.054 A 
ATOM      9  C   UNL     1       8.255   0.479  -1.755  1.00  0.00     0.051 A 
ATOM     10  C   UNL     1       8.018  -1.795  -1.240  1.00  0.00     0.166 A 
ATOM     11  C   UNL     1       8.411  -0.833  -2.143  1.00  0.00     0.165 A 
ATOM     12  O   UNL     1       8.275  -3.011  -1.862  1.00  0.00    -0.454 OA
ATOM     13  O   UNL     1       8.899  -1.467  -3.293  1.00  0.00    -0.454 OA
ATOM     14  C   UNL     1       9.233  -2.777  -2.884  1.00  0.00     0.468 C 
ENDBRANCH   5   6
ENDBRANCH   1   5
TORSDOF 3
ENDMDL
MODEL 4
REMARK VINA RESULT:      -6.7      1.852      2.344
REMARK SMILES CC(=O)CCc1ccc2c(c1)OCO2
REMARK SMILES IDX 4 1 2 2 1 3 3 4 5 5 6 6 7 7 11 8 8 9 10 10 9 11 12 12 14 13
REMARK SMILES IDX 13 14
REMARK H PARENT
REMARK Flexibility Score: inf
ROOT
ATOM      1  C   UNL     1       5.905   0.267   1.938  1.00  0.00     0.080 C 
ENDROOT
BRANCH   1   2
ATOM      2  C   UNL     1       4.801   1.193   1.624  1.00  0.00     0.130 C 
ATOM      3  C   UNL     1       5.017   2.072   0.404  1.00  0.00     0.087 C 
ATOM      4  O   UNL     1       3.767   1.331   2.213  1.00  0.00    -0.300 OA
ENDBRANCH   1   2
BRANCH   1   5
ATOM      5  C   UNL     1       7.140   0.434   1.143  1.00  0.00     0.043 C 
BRANCH   5   6
ATOM      6  C   UNL     1       7.462  -0.619   0.176  1.00  0.00    -0.044 A 
ATOM      7  C   UNL     1       7.359  -0.420  -1.202  1.00  0.00     0.008 A 
ATOM      8  C   UNL     1       7.910  -1.844   0.615  1.00  0.00     0.054 A 
ATOM      9  C   UNL     1       7.703  -1.441  -2.050  1.00  0.00     0.051 A 
ATOM     10  C   UNL     1       8.255  -2.871  -0.276  1.00  0.00     0.166 A 
ATOM     11  C   UNL     1       8.153  -2.675  -1.636  1.00  0.00     0.165 A 
ATOM     12  O   UNL     1       8.723  -4.171  -0.126  1.00  0.00    -0.454 OA
ATOM     13  O   UNL     1       8.555  -3.846  -2.291  1.00  0.00    -0.454 OA
ATOM     14  C   UNL     1       9.337  -4.551  -1.348  1.00  0.00     0.468 C 
ENDBRANCH   5   6
ENDBRANCH   1   5
TORSDOF 3
ENDMDL
MODEL 5
REMARK VINA RESULT:      -6.5      1.524      2.264
REMARK SMILES CC(=O)CCc1ccc2c(c1)OCO2
REMARK SMILES IDX 4 1 2 2 1 3 3 4 5 5 6 6 7 7 11 8 8 9 10 10 9 11 12 12 14 13
REMARK SMILES IDX 13 14
REMARK H PARENT
REMARK Flexibility Score: inf
ROOT
ATOM      1  C   UNL     1       5.308  -0.078   2.198  1.00  0.00     0.080 C 
ENDROOT
BRANCH   1   2
ATOM      2  C   UNL     1       4.430   1.071   1.913  1.00  0.00     0.130 C 
ATOM      3  C   UNL     1       4.904   1.990   0.800  1.00  0.00     0.087 C 
ATOM      4  O   UNL     1       3.399   1.360   2.450  1.00  0.00    -0.300 OA
ENDBRANCH   1   2
BRANCH   1   5
ATOM      5  C   UNL     1       6.745   0.113   1.909  1.00  0.00     0.043 C 
BRANCH   5   6
ATOM      6  C   UNL     1       7.317  -0.671   0.810  1.00  0.00    -0.044 A 
ATOM      7  C   UNL     1       7.632  -2.024   0.947  1.00  0.00     0.008 A 
ATOM      8  C   UNL     1       7.534  -0.084  -0.415  1.00  0.00     0.054 A 
ATOM      9  C   UNL     1       8.139  -2.703  -0.131  1.00  0.00     0.051 A 
ATOM     10  C   UNL     1       8.053  -0.803  -1.502  1.00  0.00     0.166 A 
ATOM     11  C   UNL     1       8.365  -2.138  -1.366  1.00  0.00     0.165 A 
ATOM     12  O   UNL     1       8.368  -0.483  -2.817  1.00  0.00    -0.454 OA
ATOM     13  O   UNL     1       8.861  -2.611  -2.588  1.00  0.00    -0.454 OA
ATOM     14  C   UNL     1       8.399  -1.694  -3.558  1.00  0.00     0.468 C 
ENDBRANCH   5   6
ENDBRANCH   1   5
TORSDOF 3
ENDMDL
