@<TRIPOS>MOLECULE
/home/cewinharhar/GITHUB/reincatalyze/data/processed/docking_pred/2023-May-31-1727_sub9_nm5_bs15_s42_ex16_mel10_mts10000_k50_ec075_g099_lra3e-4_lrc3e-3/681e80220216c71ec10eb1429598bf11558fcb24_ligand_9.pdbqt
 14 15 0 0 0
SMALL
GASTEIGER

@<TRIPOS>ATOM
      1  C          6.1790   -0.3980    1.5920 C.3     1  UNL1        0.0800
      2  C          5.1140    0.6120    1.7310 C.2     1  UNL1        0.1300
      3  C          5.1790    1.7660    0.7440 C.3     1  UNL1        0.0870
      4  O          4.2140    0.6280    2.5220 O.2     1  UNL1       -0.3000
      5  C          7.4350    0.0630    0.9650 C.3     1  UNL1        0.0430
      6  C          7.7210   -0.4120   -0.3920 C.2     1  UNL1       -0.0440
      7  C          7.9240    0.4640   -1.4590 C.2     1  UNL1        0.0080
      8  C          7.8260   -1.7610   -0.6410 C.2     1  UNL1        0.0540
      9  C          8.2150   -0.0500   -2.6970 C.2     1  UNL1        0.0510
     10  C          8.1250   -2.2590   -1.9180 C.2     1  UNL1        0.1660
     11  C          8.3240   -1.3950   -2.9720 C.2     1  UNL1        0.1650
     12  O          8.2890   -3.5320   -2.4510 O.2     1  UNL1       -0.4540
     13  O          8.6050   -2.1440   -4.1220 O.2     1  UNL1       -0.4540
     14  C          9.0370   -3.4030   -3.6510 C.3     1  UNL1        0.4680
@<TRIPOS>BOND
     1    13    14    1
     2    13    11    1
     3    14    12    1
     4    11     9    2
     5    11    10    1
     6     9     7    1
     7    12    10    1
     8    10     8    2
     9     7     6    2
    10     8     6    1
    11     6     5    1
    12     3     2    1
    13     5     1    1
    14     1     2    1
    15     2     4    2
