@<TRIPOS>MOLECULE
/home/cewinharhar/GITHUB/reincatalyze/data/processed/docking_pred/2023-May-31-1727_sub9_nm5_bs15_s42_ex16_mel10_mts10000_k50_ec075_g099_lra3e-4_lrc3e-3/681e80220216c71ec10eb1429598bf11558fcb24_ligand_9.pdbqt
 14 15 0 0 0
SMALL
GASTEIGER

@<TRIPOS>ATOM
      1  C          5.9710    1.6070    1.1680 C.3     1  UNL1        0.0800
      2  C          5.3530    0.5380    1.9740 C.2     1  UNL1        0.1300
      3  C          6.2300   -0.6780    2.2220 C.3     1  UNL1        0.0870
      4  O          4.2540    0.5170    2.4500 O.2     1  UNL1       -0.3000
      5  C          5.8560    1.4660   -0.2990 C.3     1  UNL1        0.0430
      6  C          6.8750    0.6600   -0.9770 C.2     1  UNL1       -0.0440
      7  C          8.2370    0.9470   -0.8770 C.2     1  UNL1        0.0080
      8  C          6.5040   -0.4370   -1.7190 C.2     1  UNL1        0.0540
      9  C          9.1380    0.1350   -1.5160 C.2     1  UNL1        0.0510
     10  C          7.4480   -1.2520   -2.3630 C.2     1  UNL1        0.1660
     11  C          8.7920   -0.9680   -2.2650 C.2     1  UNL1        0.1650
     12  O          7.3680   -2.3900   -3.1570 O.2     1  UNL1       -0.4540
     13  O          9.5090   -1.9270   -2.9930 O.2     1  UNL1       -0.4540
     14  C          8.6350   -3.0300   -3.1180 C.3     1  UNL1        0.4680
@<TRIPOS>BOND
     1    12    14    1
     2    12    10    1
     3    14    13    1
     4    13    11    1
     5    10    11    2
     6    10     8    1
     7    11     9    1
     8     8     6    2
     9     9     7    2
    10     6     7    1
    11     6     5    1
    12     5     1    1
    13     1     2    1
    14     2     3    1
    15     2     4    2
