@<TRIPOS>MOLECULE
/home/cewinharhar/GITHUB/reincatalyze/data/processed/docking_pred/2023-May-31-1727_sub9_nm5_bs15_s42_ex16_mel10_mts10000_k50_ec075_g099_lra3e-4_lrc3e-3/681e80220216c71ec10eb1429598bf11558fcb24_ligand_9.pdbqt
 14 15 0 0 0
SMALL
GASTEIGER

@<TRIPOS>ATOM
      1  C          5.7650    0.6760    0.3780 C.3     1  UNL1        0.0800
      2  C          5.3990    0.3090    1.7580 C.2     1  UNL1        0.1300
      3  C          6.3050   -0.7150    2.4210 C.3     1  UNL1        0.0870
      4  O          4.4810    0.7210    2.4100 O.2     1  UNL1       -0.3000
      5  C          7.2090    0.6610    0.0620 C.3     1  UNL1        0.0430
      6  C          7.6390   -0.1640   -1.0700 C.2     1  UNL1       -0.0440
      7  C          7.9920    0.3890   -2.3020 C.2     1  UNL1        0.0080
      8  C          7.7330   -1.5290   -0.9300 C.2     1  UNL1        0.0540
      9  C          8.4110   -0.4410   -3.3090 C.2     1  UNL1        0.0510
     10  C          8.1660   -2.3550   -1.9780 C.2     1  UNL1        0.1660
     11  C          8.5140   -1.8100   -3.1940 C.2     1  UNL1        0.1650
     12  O          8.3550   -3.7250   -2.1220 O.2     1  UNL1       -0.4540
     13  O          8.9060   -2.8430   -4.0560 O.2     1  UNL1       -0.4540
     14  C          9.2430   -3.9250   -3.2120 C.3     1  UNL1        0.4680
@<TRIPOS>BOND
     1    13    14    1
     2    13    11    1
     3     9    11    2
     4     9     7    1
     5    14    12    1
     6    11    10    1
     7     7     6    2
     8    12    10    1
     9    10     8    2
    10     6     8    1
    11     6     5    1
    12     5     1    1
    13     1     2    1
    14     2     4    2
    15     2     3    1
