@<TRIPOS>MOLECULE
/home/cewinharhar/GITHUB/reincatalyze/data/processed/docking_pred/2023-May-31-1727_sub9_nm5_bs15_s42_ex16_mel10_mts10000_k50_ec075_g099_lra3e-4_lrc3e-3/681e80220216c71ec10eb1429598bf11558fcb24_ligand_9.pdbqt
 14 15 0 0 0
SMALL
GASTEIGER

@<TRIPOS>ATOM
      1  C          8.2240   -2.2960   -3.5140 C.3     1  UNL1        0.0800
      2  C          9.2590   -3.3370   -3.3840 C.2     1  UNL1        0.1300
      3  C          8.7420   -4.7640   -3.3090 C.3     1  UNL1        0.0870
      4  O         10.4480   -3.1900   -3.3320 O.2     1  UNL1       -0.3000
      5  C          8.5610   -0.9690   -2.9580 C.3     1  UNL1        0.0430
      6  C          7.7790   -0.5070   -1.8070 C.2     1  UNL1       -0.0440
      7  C          6.7480    0.4250   -1.9340 C.2     1  UNL1        0.0080
      8  C          8.0330   -1.0150   -0.5540 C.2     1  UNL1        0.0540
      9  C          6.0400    0.7910   -0.8190 C.2     1  UNL1        0.0510
     10  C          7.2920   -0.6220    0.5710 C.2     1  UNL1        0.1660
     11  C          6.2750    0.2990    0.4460 C.2     1  UNL1        0.1650
     12  O          7.3230   -0.9550    1.9200 O.2     1  UNL1       -0.4540
     13  O          5.7030    0.5120    1.7070 O.2     1  UNL1       -0.4540
     14  C          6.0590   -0.6180    2.4740 C.3     1  UNL1        0.4680
@<TRIPOS>BOND
     1     1     2    1
     2     1     5    1
     3     2     4    2
     4     2     3    1
     5     5     6    1
     6     7     6    2
     7     7     9    1
     8     6     8    1
     9     9    11    2
    10     8    10    2
    11    11    10    1
    12    11    13    1
    13    10    12    1
    14    13    14    1
    15    12    14    1
