@<TRIPOS>MOLECULE
/home/cewinharhar/GITHUB/reincatalyze/data/processed/docking_pred/2023-May-31-1727_sub9_nm5_bs15_s42_ex16_mel10_mts10000_k50_ec075_g099_lra3e-4_lrc3e-3/6b061a7890d75c8b26c884693b3b8f9ee5a9c423_ligand_9.pdbqt
 14 15 0 0 0
SMALL
GASTEIGER

@<TRIPOS>ATOM
      1  C          6.1920    1.2550    0.8680 C.3     1  UNL1        0.0800
      2  C          5.5560    0.4330    1.9140 C.2     1  UNL1        0.1300
      3  C          6.3700   -0.7590    2.3880 C.3     1  UNL1        0.0870
      4  O          4.4850    0.5950    2.4270 O.2     1  UNL1       -0.3000
      5  C          5.8460    0.9140   -0.5280 C.3     1  UNL1        0.0430
      6  C          6.8300    0.1430   -1.2920 C.2     1  UNL1       -0.0440
      7  C          7.7970    0.7540   -2.0920 C.2     1  UNL1        0.0080
      8  C          6.8400   -1.2310   -1.2140 C.2     1  UNL1        0.0540
      9  C          8.7040   -0.0290   -2.7580 C.2     1  UNL1        0.0510
     10  C          7.7800   -2.0080   -1.9070 C.2     1  UNL1        0.1660
     11  C          8.7330   -1.4040   -2.6970 C.2     1  UNL1        0.1650
     12  O          8.0230   -3.3720   -2.0140 O.2     1  UNL1       -0.4540
     13  O          9.5380   -2.3970   -3.2700 O.2     1  UNL1       -0.4540
     14  C          9.3640   -3.5360   -2.4520 C.3     1  UNL1        0.4680
@<TRIPOS>BOND
     1    13    11    1
     2    13    14    1
     3     9    11    2
     4     9     7    1
     5    11    10    1
     6    14    12    1
     7     7     6    2
     8    12    10    1
     9    10     8    2
    10     6     8    1
    11     6     5    1
    12     5     1    1
    13     1     2    1
    14     2     3    1
    15     2     4    2
