MODEL 1
REMARK VINA RESULT:      -7.7      0.000      0.000
REMARK SMILES CC(=O)CCc1ccc2c(c1)OCO2
REMARK SMILES IDX 4 1 2 2 1 3 3 4 5 5 6 6 7 7 11 8 8 9 10 10 9 11 12 12 14 13
REMARK SMILES IDX 13 14
REMARK H PARENT
REMARK Flexibility Score: inf
ROOT
ATOM      1  C   UNL     1       5.491   1.882   1.206  1.00  0.00     0.080 C 
ENDROOT
BRANCH   1   2
ATOM      2  C   UNL     1       4.949   0.762   1.997  1.00  0.00     0.130 C 
ATOM      3  C   UNL     1       5.858  -0.449   2.118  1.00  0.00     0.087 C 
ATOM      4  O   UNL     1       3.887   0.698   2.549  1.00  0.00    -0.300 OA
ENDBRANCH   1   2
BRANCH   1   5
ATOM      5  C   UNL     1       5.478   1.708  -0.262  1.00  0.00     0.043 C 
BRANCH   5   6
ATOM      6  C   UNL     1       6.598   0.975  -0.860  1.00  0.00    -0.044 A 
ATOM      7  C   UNL     1       7.927   1.350  -0.654  1.00  0.00     0.008 A 
ATOM      8  C   UNL     1       6.358  -0.138  -1.632  1.00  0.00     0.054 A 
ATOM      9  C   UNL     1       8.925   0.602  -1.223  1.00  0.00     0.051 A 
ATOM     10  C   UNL     1       7.400  -0.885  -2.202  1.00  0.00     0.166 A 
ATOM     11  C   UNL     1       8.711  -0.516  -1.999  1.00  0.00     0.165 A 
ATOM     12  O   UNL     1       7.457  -2.020  -3.002  1.00  0.00    -0.454 OA
ATOM     13  O   UNL     1       9.543  -1.421  -2.671  1.00  0.00    -0.454 OA
ATOM     14  C   UNL     1       8.756  -2.577  -2.865  1.00  0.00     0.468 C 
ENDBRANCH   5   6
ENDBRANCH   1   5
TORSDOF 3
ENDMDL
MODEL 2
REMARK VINA RESULT:      -7.0      1.835      2.275
REMARK SMILES CC(=O)CCc1ccc2c(c1)OCO2
REMARK SMILES IDX 4 1 2 2 1 3 3 4 5 5 6 6 7 7 11 8 8 9 10 10 9 11 12 12 14 13
REMARK SMILES IDX 13 14
REMARK H PARENT
REMARK Flexibility Score: inf
ROOT
ATOM      1  C   UNL     1       5.749   1.423  -0.299  1.00  0.00     0.080 C 
ENDROOT
BRANCH   1   2
ATOM      2  C   UNL     1       5.076   1.363   1.011  1.00  0.00     0.130 C 
ATOM      3  C   UNL     1       5.531   0.239   1.925  1.00  0.00     0.087 C 
ATOM      4  O   UNL     1       4.222   2.090   1.433  1.00  0.00    -0.300 OA
ENDBRANCH   1   2
BRANCH   1   5
ATOM      5  C   UNL     1       7.185   1.073  -0.310  1.00  0.00     0.043 C 
BRANCH   5   6
ATOM      6  C   UNL     1       7.555  -0.219  -0.894  1.00  0.00    -0.044 A 
ATOM      7  C   UNL     1       7.703  -0.398  -2.271  1.00  0.00     0.008 A 
ATOM      8  C   UNL     1       7.797  -1.300  -0.078  1.00  0.00     0.054 A 
ATOM      9  C   UNL     1       8.078  -1.628  -2.746  1.00  0.00     0.051 A 
ATOM     10  C   UNL     1       8.181  -2.548  -0.592  1.00  0.00     0.166 A 
ATOM     11  C   UNL     1       8.326  -2.725  -1.951  1.00  0.00     0.165 A 
ATOM     12  O   UNL     1       8.483  -3.781  -0.026  1.00  0.00    -0.454 OA
ATOM     13  O   UNL     1       8.711  -4.049  -2.194  1.00  0.00    -0.454 OA
ATOM     14  C   UNL     1       9.250  -4.512  -0.972  1.00  0.00     0.468 C 
ENDBRANCH   5   6
ENDBRANCH   1   5
TORSDOF 3
ENDMDL
MODEL 3
REMARK VINA RESULT:      -6.9      1.095      1.182
REMARK SMILES CC(=O)CCc1ccc2c(c1)OCO2
REMARK SMILES IDX 4 1 2 2 1 3 3 4 5 5 6 6 7 7 11 8 8 9 10 10 9 11 12 12 14 13
REMARK SMILES IDX 13 14
REMARK H PARENT
REMARK Flexibility Score: inf
ROOT
ATOM      1  C   UNL     1       6.192   1.255   0.868  1.00  0.00     0.080 C 
ENDROOT
BRANCH   1   2
ATOM      2  C   UNL     1       5.556   0.433   1.914  1.00  0.00     0.130 C 
ATOM      3  C   UNL     1       6.370  -0.759   2.388  1.00  0.00     0.087 C 
ATOM      4  O   UNL     1       4.485   0.595   2.427  1.00  0.00    -0.300 OA
ENDBRANCH   1   2
BRANCH   1   5
ATOM      5  C   UNL     1       5.846   0.914  -0.528  1.00  0.00     0.043 C 
BRANCH   5   6
ATOM      6  C   UNL     1       6.830   0.143  -1.292  1.00  0.00    -0.044 A 
ATOM      7  C   UNL     1       7.797   0.754  -2.092  1.00  0.00     0.008 A 
ATOM      8  C   UNL     1       6.840  -1.231  -1.214  1.00  0.00     0.054 A 
ATOM      9  C   UNL     1       8.704  -0.029  -2.758  1.00  0.00     0.051 A 
ATOM     10  C   UNL     1       7.780  -2.008  -1.907  1.00  0.00     0.166 A 
ATOM     11  C   UNL     1       8.733  -1.404  -2.697  1.00  0.00     0.165 A 
ATOM     12  O   UNL     1       8.023  -3.372  -2.014  1.00  0.00    -0.454 OA
ATOM     13  O   UNL     1       9.538  -2.397  -3.270  1.00  0.00    -0.454 OA
ATOM     14  C   UNL     1       9.364  -3.536  -2.452  1.00  0.00     0.468 C 
ENDBRANCH   5   6
ENDBRANCH   1   5
TORSDOF 3
ENDMDL
MODEL 4
REMARK VINA RESULT:      -6.8      1.167      1.657
REMARK SMILES CC(=O)CCc1ccc2c(c1)OCO2
REMARK SMILES IDX 4 1 2 2 1 3 3 4 5 5 6 6 7 7 11 8 8 9 10 10 9 11 12 12 14 13
REMARK SMILES IDX 13 14
REMARK H PARENT
REMARK Flexibility Score: inf
ROOT
ATOM      1  C   UNL     1       5.389  -0.094   1.940  1.00  0.00     0.080 C 
ENDROOT
BRANCH   1   2
ATOM      2  C   UNL     1       4.449   1.040   1.878  1.00  0.00     0.130 C 
ATOM      3  C   UNL     1       4.767   2.091   0.828  1.00  0.00     0.087 C 
ATOM      4  O   UNL     1       3.475   1.226   2.551  1.00  0.00    -0.300 OA
ENDBRANCH   1   2
BRANCH   1   5
ATOM      5  C   UNL     1       6.810   0.224   1.687  1.00  0.00     0.043 C 
BRANCH   5   6
ATOM      6  C   UNL     1       7.347  -0.114   0.366  1.00  0.00    -0.044 A 
ATOM      7  C   UNL     1       7.765   0.863  -0.539  1.00  0.00     0.008 A 
ATOM      8  C   UNL     1       7.481  -1.432  -0.006  1.00  0.00     0.054 A 
ATOM      9  C   UNL     1       8.283   0.474  -1.747  1.00  0.00     0.051 A 
ATOM     10  C   UNL     1       8.015  -1.802  -1.250  1.00  0.00     0.166 A 
ATOM     11  C   UNL     1       8.426  -0.838  -2.144  1.00  0.00     0.165 A 
ATOM     12  O   UNL     1       8.263  -3.016  -1.879  1.00  0.00    -0.454 OA
ATOM     13  O   UNL     1       8.915  -1.470  -3.294  1.00  0.00    -0.454 OA
ATOM     14  C   UNL     1       9.231  -2.786  -2.892  1.00  0.00     0.468 C 
ENDBRANCH   5   6
ENDBRANCH   1   5
TORSDOF 3
ENDMDL
MODEL 5
REMARK VINA RESULT:      -6.6      1.989      2.494
REMARK SMILES CC(=O)CCc1ccc2c(c1)OCO2
REMARK SMILES IDX 4 1 2 2 1 3 3 4 5 5 6 6 7 7 11 8 8 9 10 10 9 11 12 12 14 13
REMARK SMILES IDX 13 14
REMARK H PARENT
REMARK Flexibility Score: inf
ROOT
ATOM      1  C   UNL     1       6.398   0.362   2.009  1.00  0.00     0.080 C 
ENDROOT
BRANCH   1   2
ATOM      2  C   UNL     1       5.070   0.965   1.798  1.00  0.00     0.130 C 
ATOM      3  C   UNL     1       4.967   1.911   0.614  1.00  0.00     0.087 C 
ATOM      4  O   UNL     1       4.075   0.798   2.445  1.00  0.00    -0.300 OA
ENDBRANCH   1   2
BRANCH   1   5
ATOM      5  C   UNL     1       7.388   0.572   0.932  1.00  0.00     0.043 C 
BRANCH   5   6
ATOM      6  C   UNL     1       7.642  -0.552   0.026  1.00  0.00    -0.044 A 
ATOM      7  C   UNL     1       7.532  -0.430  -1.360  1.00  0.00     0.008 A 
ATOM      8  C   UNL     1       8.031  -1.770   0.533  1.00  0.00     0.054 A 
ATOM      9  C   UNL     1       7.811  -1.517  -2.148  1.00  0.00     0.051 A 
ATOM     10  C   UNL     1       8.311  -2.866  -0.298  1.00  0.00     0.166 A 
ATOM     11  C   UNL     1       8.201  -2.746  -1.666  1.00  0.00     0.165 A 
ATOM     12  O   UNL     1       8.711  -4.177  -0.074  1.00  0.00    -0.454 OA
ATOM     13  O   UNL     1       8.533  -3.973  -2.253  1.00  0.00    -0.454 OA
ATOM     14  C   UNL     1       9.289  -4.662  -1.278  1.00  0.00     0.468 C 
ENDBRANCH   5   6
ENDBRANCH   1   5
TORSDOF 3
ENDMDL
