@<TRIPOS>MOLECULE
/home/cewinharhar/GITHUB/reincatalyze/data/processed/docking_pred/2023-May-31-1727_sub9_nm5_bs15_s42_ex16_mel10_mts10000_k50_ec075_g099_lra3e-4_lrc3e-3/6b061a7890d75c8b26c884693b3b8f9ee5a9c423_ligand_9.pdbqt
 14 15 0 0 0
SMALL
GASTEIGER

@<TRIPOS>ATOM
      1  C          6.3980    0.3620    2.0090 C.3     1  UNL1        0.0800
      2  C          5.0700    0.9650    1.7980 C.2     1  UNL1        0.1300
      3  C          4.9670    1.9110    0.6140 C.3     1  UNL1        0.0870
      4  O          4.0750    0.7980    2.4450 O.2     1  UNL1       -0.3000
      5  C          7.3880    0.5720    0.9320 C.3     1  UNL1        0.0430
      6  C          7.6420   -0.5520    0.0260 C.2     1  UNL1       -0.0440
      7  C          7.5320   -0.4300   -1.3600 C.2     1  UNL1        0.0080
      8  C          8.0310   -1.7700    0.5330 C.2     1  UNL1        0.0540
      9  C          7.8110   -1.5170   -2.1480 C.2     1  UNL1        0.0510
     10  C          8.3110   -2.8660   -0.2980 C.2     1  UNL1        0.1660
     11  C          8.2010   -2.7460   -1.6660 C.2     1  UNL1        0.1650
     12  O          8.7110   -4.1770   -0.0740 O.2     1  UNL1       -0.4540
     13  O          8.5330   -3.9730   -2.2530 O.2     1  UNL1       -0.4540
     14  C          9.2890   -4.6620   -1.2780 C.3     1  UNL1        0.4680
@<TRIPOS>BOND
     1    13    11    1
     2    13    14    1
     3     9    11    2
     4     9     7    1
     5    11    10    1
     6     7     6    2
     7    14    12    1
     8    10    12    1
     9    10     8    2
    10     6     8    1
    11     6     5    1
    12     3     2    1
    13     5     1    1
    14     2     1    1
    15     2     4    2
