@<TRIPOS>MOLECULE
/home/cewinharhar/GITHUB/reincatalyze/data/processed/docking_pred/2023-May-31-1727_sub9_nm5_bs15_s42_ex16_mel10_mts10000_k50_ec075_g099_lra3e-4_lrc3e-3/6ceeb54199aca0c96a32aff90fdf9e1d9b8e1f8c_ligand_9.pdbqt
 14 15 0 0 0
SMALL
GASTEIGER

@<TRIPOS>ATOM
      1  C          5.7770    1.7590    1.3010 C.3     1  UNL1        0.0800
      2  C          5.1840    0.6230    2.0300 C.2     1  UNL1        0.1300
      3  C          6.0900   -0.5850    2.1980 C.3     1  UNL1        0.0870
      4  O          4.0850    0.5440    2.5010 O.2     1  UNL1       -0.3000
      5  C          5.7390    1.6770   -0.1740 C.3     1  UNL1        0.0430
      6  C          6.8000    0.9060   -0.8290 C.2     1  UNL1       -0.0440
      7  C          8.1450    1.2690   -0.7440 C.2     1  UNL1        0.0080
      8  C          6.4870   -0.2330   -1.5350 C.2     1  UNL1        0.0540
      9  C          9.0870    0.4860   -1.3590 C.2     1  UNL1        0.0510
     10  C          7.4720   -1.0170   -2.1550 C.2     1  UNL1        0.1660
     11  C          8.8000   -0.6580   -2.0710 C.2     1  UNL1        0.1650
     12  O          7.4530   -2.1820   -2.9110 O.2     1  UNL1       -0.4540
     13  O          9.5660   -1.6000   -2.7700 O.2     1  UNL1       -0.4540
     14  C          8.7530   -2.7520   -2.8550 C.3     1  UNL1        0.4680
@<TRIPOS>BOND
     1    12    14    1
     2    12    10    1
     3    14    13    1
     4    13    11    1
     5    10    11    2
     6    10     8    1
     7    11     9    1
     8     8     6    2
     9     9     7    2
    10     6     7    1
    11     6     5    1
    12     5     1    1
    13     1     2    1
    14     2     3    1
    15     2     4    2
