@<TRIPOS>MOLECULE
/home/cewinharhar/GITHUB/reincatalyze/data/processed/docking_pred/2023-May-31-1727_sub9_nm5_bs15_s42_ex16_mel10_mts10000_k50_ec075_g099_lra3e-4_lrc3e-3/6ceeb54199aca0c96a32aff90fdf9e1d9b8e1f8c_ligand_9.pdbqt
 14 15 0 0 0
SMALL
GASTEIGER

@<TRIPOS>ATOM
      1  C          5.3050   -0.0850    2.1930 C.3     1  UNL1        0.0800
      2  C          4.4310    1.0680    1.9090 C.2     1  UNL1        0.1300
      3  C          4.9050    1.9820    0.7920 C.3     1  UNL1        0.0870
      4  O          3.4030    1.3630    2.4490 O.2     1  UNL1       -0.3000
      5  C          6.7430    0.1020    1.9090 C.3     1  UNL1        0.0430
      6  C          7.3160   -0.6800    0.8100 C.2     1  UNL1       -0.0440
      7  C          7.6340   -2.0320    0.9450 C.2     1  UNL1        0.0080
      8  C          7.5310   -0.0910   -0.4150 C.2     1  UNL1        0.0540
      9  C          8.1410   -2.7090   -0.1330 C.2     1  UNL1        0.0510
     10  C          8.0520   -0.8080   -1.5020 C.2     1  UNL1        0.1660
     11  C          8.3660   -2.1430   -1.3680 C.2     1  UNL1        0.1650
     12  O          8.3660   -0.4870   -2.8170 O.2     1  UNL1       -0.4540
     13  O          8.8630   -2.6130   -2.5910 O.2     1  UNL1       -0.4540
     14  C          8.3990   -1.6970   -3.5600 C.3     1  UNL1        0.4680
@<TRIPOS>BOND
     1    14    12    1
     2    14    13    1
     3    12    10    1
     4    13    11    1
     5    10    11    2
     6    10     8    1
     7    11     9    1
     8     8     6    2
     9     9     7    2
    10     3     2    1
    11     6     7    1
    12     6     5    1
    13     2     1    1
    14     2     4    2
    15     5     1    1
