MODEL 1
REMARK VINA RESULT:      -7.7      0.000      0.000
REMARK SMILES CC(=O)CCc1ccc2c(c1)OCO2
REMARK SMILES IDX 4 1 2 2 1 3 3 4 5 5 6 6 7 7 11 8 8 9 10 10 9 11 12 12 14 13
REMARK SMILES IDX 13 14
REMARK H PARENT
REMARK Flexibility Score: inf
ROOT
ATOM      1  C   UNL     1       5.518   1.904   1.210  1.00  0.00     0.080 C 
ENDROOT
BRANCH   1   2
ATOM      2  C   UNL     1       5.007   0.763   1.991  1.00  0.00     0.130 C 
ATOM      3  C   UNL     1       5.963  -0.409   2.133  1.00  0.00     0.087 C 
ATOM      4  O   UNL     1       3.937   0.654   2.521  1.00  0.00    -0.300 OA
ENDBRANCH   1   2
BRANCH   1   5
ATOM      5  C   UNL     1       5.508   1.744  -0.259  1.00  0.00     0.043 C 
BRANCH   5   6
ATOM      6  C   UNL     1       6.622   1.004  -0.860  1.00  0.00    -0.044 A 
ATOM      7  C   UNL     1       7.953   1.376  -0.666  1.00  0.00     0.008 A 
ATOM      8  C   UNL     1       6.374  -0.114  -1.621  1.00  0.00     0.054 A 
ATOM      9  C   UNL     1       8.945   0.622  -1.237  1.00  0.00     0.051 A 
ATOM     10  C   UNL     1       7.409  -0.869  -2.193  1.00  0.00     0.166 A 
ATOM     11  C   UNL     1       8.723  -0.501  -2.003  1.00  0.00     0.165 A 
ATOM     12  O   UNL     1       7.458  -2.010  -2.985  1.00  0.00    -0.454 OA
ATOM     13  O   UNL     1       9.548  -1.413  -2.674  1.00  0.00    -0.454 OA
ATOM     14  C   UNL     1       8.757  -2.569  -2.854  1.00  0.00     0.468 C 
ENDBRANCH   5   6
ENDBRANCH   1   5
TORSDOF 3
ENDMDL
MODEL 2
REMARK VINA RESULT:      -7.0      1.837      2.304
REMARK SMILES CC(=O)CCc1ccc2c(c1)OCO2
REMARK SMILES IDX 4 1 2 2 1 3 3 4 5 5 6 6 7 7 11 8 8 9 10 10 9 11 12 12 14 13
REMARK SMILES IDX 13 14
REMARK H PARENT
REMARK Flexibility Score: inf
ROOT
ATOM      1  C   UNL     1       5.823   1.483  -0.306  1.00  0.00     0.080 C 
ENDROOT
BRANCH   1   2
ATOM      2  C   UNL     1       5.098   1.423   0.976  1.00  0.00     0.130 C 
ATOM      3  C   UNL     1       5.518   0.299   1.908  1.00  0.00     0.087 C 
ATOM      4  O   UNL     1       4.228   2.150   1.363  1.00  0.00    -0.300 OA
ENDBRANCH   1   2
BRANCH   1   5
ATOM      5  C   UNL     1       7.242   1.069  -0.273  1.00  0.00     0.043 C 
BRANCH   5   6
ATOM      6  C   UNL     1       7.576  -0.227  -0.869  1.00  0.00    -0.044 A 
ATOM      7  C   UNL     1       7.657  -0.412  -2.250  1.00  0.00     0.008 A 
ATOM      8  C   UNL     1       7.850  -1.306  -0.061  1.00  0.00     0.054 A 
ATOM      9  C   UNL     1       8.001  -1.646  -2.738  1.00  0.00     0.051 A 
ATOM     10  C   UNL     1       8.200  -2.559  -0.588  1.00  0.00     0.166 A 
ATOM     11  C   UNL     1       8.280  -2.741  -1.951  1.00  0.00     0.165 A 
ATOM     12  O   UNL     1       8.521  -3.791  -0.033  1.00  0.00    -0.454 OA
ATOM     13  O   UNL     1       8.645  -4.069  -2.207  1.00  0.00    -0.454 OA
ATOM     14  C   UNL     1       9.238  -4.531  -1.011  1.00  0.00     0.468 C 
ENDBRANCH   5   6
ENDBRANCH   1   5
TORSDOF 3
ENDMDL
MODEL 3
REMARK VINA RESULT:      -7.0      1.043      1.135
REMARK SMILES CC(=O)CCc1ccc2c(c1)OCO2
REMARK SMILES IDX 4 1 2 2 1 3 3 4 5 5 6 6 7 7 11 8 8 9 10 10 9 11 12 12 14 13
REMARK SMILES IDX 13 14
REMARK H PARENT
REMARK Flexibility Score: inf
ROOT
ATOM      1  C   UNL     1       6.185   1.249   0.894  1.00  0.00     0.080 C 
ENDROOT
BRANCH   1   2
ATOM      2  C   UNL     1       5.555   0.398   1.920  1.00  0.00     0.130 C 
ATOM      3  C   UNL     1       6.370  -0.808   2.356  1.00  0.00     0.087 C 
ATOM      4  O   UNL     1       4.487   0.546   2.444  1.00  0.00    -0.300 OA
ENDBRANCH   1   2
BRANCH   1   5
ATOM      5  C   UNL     1       5.873   0.914  -0.511  1.00  0.00     0.043 C 
BRANCH   5   6
ATOM      6  C   UNL     1       6.876   0.150  -1.257  1.00  0.00    -0.044 A 
ATOM      7  C   UNL     1       7.915   0.769  -1.955  1.00  0.00     0.008 A 
ATOM      8  C   UNL     1       6.831  -1.225  -1.263  1.00  0.00     0.054 A 
ATOM      9  C   UNL     1       8.835  -0.009  -2.609  1.00  0.00     0.051 A 
ATOM     10  C   UNL     1       7.787  -1.997  -1.941  1.00  0.00     0.166 A 
ATOM     11  C   UNL     1       8.811  -1.386  -2.630  1.00  0.00     0.165 A 
ATOM     12  O   UNL     1       7.987  -3.360  -2.116  1.00  0.00    -0.454 OA
ATOM     13  O   UNL     1       9.616  -2.375  -3.210  1.00  0.00    -0.454 OA
ATOM     14  C   UNL     1       9.348  -3.552  -2.477  1.00  0.00     0.468 C 
ENDBRANCH   5   6
ENDBRANCH   1   5
TORSDOF 3
ENDMDL
MODEL 4
REMARK VINA RESULT:      -6.8      1.176      1.668
REMARK SMILES CC(=O)CCc1ccc2c(c1)OCO2
REMARK SMILES IDX 4 1 2 2 1 3 3 4 5 5 6 6 7 7 11 8 8 9 10 10 9 11 12 12 14 13
REMARK SMILES IDX 13 14
REMARK H PARENT
REMARK Flexibility Score: inf
ROOT
ATOM      1  C   UNL     1       5.377  -0.086   1.930  1.00  0.00     0.080 C 
ENDROOT
BRANCH   1   2
ATOM      2  C   UNL     1       4.442   1.052   1.871  1.00  0.00     0.130 C 
ATOM      3  C   UNL     1       4.757   2.097   0.815  1.00  0.00     0.087 C 
ATOM      4  O   UNL     1       3.474   1.245   2.550  1.00  0.00    -0.300 OA
ENDBRANCH   1   2
BRANCH   1   5
ATOM      5  C   UNL     1       6.801   0.227   1.688  1.00  0.00     0.043 C 
BRANCH   5   6
ATOM      6  C   UNL     1       7.349  -0.119   0.374  1.00  0.00    -0.044 A 
ATOM      7  C   UNL     1       7.793   0.851  -0.526  1.00  0.00     0.008 A 
ATOM      8  C   UNL     1       7.467  -1.438   0.003  1.00  0.00     0.054 A 
ATOM      9  C   UNL     1       8.320   0.454  -1.728  1.00  0.00     0.051 A 
ATOM     10  C   UNL     1       8.011  -1.817  -1.234  1.00  0.00     0.166 A 
ATOM     11  C   UNL     1       8.448  -0.859  -2.122  1.00  0.00     0.165 A 
ATOM     12  O   UNL     1       8.247  -3.035  -1.860  1.00  0.00    -0.454 OA
ATOM     13  O   UNL     1       8.941  -1.499  -3.267  1.00  0.00    -0.454 OA
ATOM     14  C   UNL     1       9.231  -2.820  -2.861  1.00  0.00     0.468 C 
ENDBRANCH   5   6
ENDBRANCH   1   5
TORSDOF 3
ENDMDL
MODEL 5
REMARK VINA RESULT:      -6.7      1.976      2.552
REMARK SMILES CC(=O)CCc1ccc2c(c1)OCO2
REMARK SMILES IDX 4 1 2 2 1 3 3 4 5 5 6 6 7 7 11 8 8 9 10 10 9 11 12 12 14 13
REMARK SMILES IDX 13 14
REMARK H PARENT
REMARK Flexibility Score: inf
ROOT
ATOM      1  C   UNL     1       5.608   0.013   2.036  1.00  0.00     0.080 C 
ENDROOT
BRANCH   1   2
ATOM      2  C   UNL     1       4.641   1.102   1.810  1.00  0.00     0.130 C 
ATOM      3  C   UNL     1       4.986   2.053   0.676  1.00  0.00     0.087 C 
ATOM      4  O   UNL     1       3.626   1.322   2.409  1.00  0.00    -0.300 OA
ENDBRANCH   1   2
BRANCH   1   5
ATOM      5  C   UNL     1       6.940   0.186   1.420  1.00  0.00     0.043 C 
BRANCH   5   6
ATOM      6  C   UNL     1       7.336  -0.783   0.395  1.00  0.00    -0.044 A 
ATOM      7  C   UNL     1       7.246  -0.501  -0.970  1.00  0.00     0.008 A 
ATOM      8  C   UNL     1       7.840  -2.008   0.763  1.00  0.00     0.054 A 
ATOM      9  C   UNL     1       7.660  -1.445  -1.874  1.00  0.00     0.051 A 
ATOM     10  C   UNL     1       8.257  -2.956  -0.184  1.00  0.00     0.166 A 
ATOM     11  C   UNL     1       8.168  -2.678  -1.530  1.00  0.00     0.165 A 
ATOM     12  O   UNL     1       8.791  -4.236  -0.107  1.00  0.00    -0.454 OA
ATOM     13  O   UNL     1       8.645  -3.781  -2.250  1.00  0.00    -0.454 OA
ATOM     14  C   UNL     1       9.446  -4.504  -1.339  1.00  0.00     0.468 C 
ENDBRANCH   5   6
ENDBRANCH   1   5
TORSDOF 3
ENDMDL
