@<TRIPOS>MOLECULE
/home/cewinharhar/GITHUB/reincatalyze/data/processed/docking_pred/2023-May-31-1727_sub9_nm5_bs15_s42_ex16_mel10_mts10000_k50_ec075_g099_lra3e-4_lrc3e-3/6dc168e099aae66a1c19408847f7f9495b2b5216_ligand_9.pdbqt
 14 15 0 0 0
SMALL
GASTEIGER

@<TRIPOS>ATOM
      1  C          6.1850    1.2490    0.8940 C.3     1  UNL1        0.0800
      2  C          5.5550    0.3980    1.9200 C.2     1  UNL1        0.1300
      3  C          6.3700   -0.8080    2.3560 C.3     1  UNL1        0.0870
      4  O          4.4870    0.5460    2.4440 O.2     1  UNL1       -0.3000
      5  C          5.8730    0.9140   -0.5110 C.3     1  UNL1        0.0430
      6  C          6.8760    0.1500   -1.2570 C.2     1  UNL1       -0.0440
      7  C          7.9150    0.7690   -1.9550 C.2     1  UNL1        0.0080
      8  C          6.8310   -1.2250   -1.2630 C.2     1  UNL1        0.0540
      9  C          8.8350   -0.0090   -2.6090 C.2     1  UNL1        0.0510
     10  C          7.7870   -1.9970   -1.9410 C.2     1  UNL1        0.1660
     11  C          8.8110   -1.3860   -2.6300 C.2     1  UNL1        0.1650
     12  O          7.9870   -3.3600   -2.1160 O.2     1  UNL1       -0.4540
     13  O          9.6160   -2.3750   -3.2100 O.2     1  UNL1       -0.4540
     14  C          9.3480   -3.5520   -2.4770 C.3     1  UNL1        0.4680
@<TRIPOS>BOND
     1    13    11    1
     2    13    14    1
     3    11     9    2
     4    11    10    1
     5     9     7    1
     6    14    12    1
     7    12    10    1
     8     7     6    2
     9    10     8    2
    10     8     6    1
    11     6     5    1
    12     5     1    1
    13     1     2    1
    14     2     3    1
    15     2     4    2
