@<TRIPOS>MOLECULE
/home/cewinharhar/GITHUB/reincatalyze/data/processed/docking_pred/2023-May-31-1727_sub9_nm5_bs15_s42_ex16_mel10_mts10000_k50_ec075_g099_lra3e-4_lrc3e-3/6dc168e099aae66a1c19408847f7f9495b2b5216_ligand_9.pdbqt
 14 15 0 0 0
SMALL
GASTEIGER

@<TRIPOS>ATOM
      1  C          5.8230    1.4830   -0.3060 C.3     1  UNL1        0.0800
      2  C          5.0980    1.4230    0.9760 C.2     1  UNL1        0.1300
      3  C          5.5180    0.2990    1.9080 C.3     1  UNL1        0.0870
      4  O          4.2280    2.1500    1.3630 O.2     1  UNL1       -0.3000
      5  C          7.2420    1.0690   -0.2730 C.3     1  UNL1        0.0430
      6  C          7.5760   -0.2270   -0.8690 C.2     1  UNL1       -0.0440
      7  C          7.6570   -0.4120   -2.2500 C.2     1  UNL1        0.0080
      8  C          7.8500   -1.3060   -0.0610 C.2     1  UNL1        0.0540
      9  C          8.0010   -1.6460   -2.7380 C.2     1  UNL1        0.0510
     10  C          8.2000   -2.5590   -0.5880 C.2     1  UNL1        0.1660
     11  C          8.2800   -2.7410   -1.9510 C.2     1  UNL1        0.1650
     12  O          8.5210   -3.7910   -0.0330 O.2     1  UNL1       -0.4540
     13  O          8.6450   -4.0690   -2.2070 O.2     1  UNL1       -0.4540
     14  C          9.2380   -4.5310   -1.0110 C.3     1  UNL1        0.4680
@<TRIPOS>BOND
     1     9     7    1
     2     9    11    2
     3     7     6    2
     4    13    11    1
     5    13    14    1
     6    11    10    1
     7    14    12    1
     8     6     5    1
     9     6     8    1
    10    10     8    2
    11    10    12    1
    12     1     5    1
    13     1     2    1
    14     2     4    2
    15     2     3    1
