@<TRIPOS>MOLECULE
/home/cewinharhar/GITHUB/reincatalyze/data/processed/docking_pred/2023-May-31-1727_sub9_nm5_bs15_s42_ex16_mel10_mts10000_k50_ec075_g099_lra3e-4_lrc3e-3/6e01533e6265e20f53eb8495178921d7241890ed_ligand_9.pdbqt
 14 15 0 0 0
SMALL
GASTEIGER

@<TRIPOS>ATOM
      1  C          5.7890    0.2030    1.9340 C.3     1  UNL1        0.0800
      2  C          4.7330    1.1900    1.6440 C.2     1  UNL1        0.1300
      3  C          4.9980    2.0930    0.4520 C.3     1  UNL1        0.0870
      4  O          3.7040    1.3600    2.2330 O.2     1  UNL1       -0.3000
      5  C          7.0670    0.3850    1.2140 C.3     1  UNL1        0.0430
      6  C          7.4330   -0.6370    0.2300 C.2     1  UNL1       -0.0440
      7  C          7.4020   -0.3920   -1.1440 C.2     1  UNL1        0.0080
      8  C          7.8510   -1.8790    0.6500 C.2     1  UNL1        0.0540
      9  C          7.7850   -1.3860   -2.0070 C.2     1  UNL1        0.0510
     10  C          8.2370   -2.8780   -0.2560 C.2     1  UNL1        0.1660
     11  C          8.2060   -2.6370   -1.6120 C.2     1  UNL1        0.1650
     12  O          8.6900   -4.1860   -0.1250 O.2     1  UNL1       -0.4540
     13  O          8.6360   -3.7880   -2.2840 O.2     1  UNL1       -0.4540
     14  C          9.3640   -4.5290   -1.3270 C.3     1  UNL1        0.4680
@<TRIPOS>BOND
     1    13    11    1
     2    13    14    1
     3     9    11    2
     4     9     7    1
     5    11    10    1
     6    14    12    1
     7     7     6    2
     8    10    12    1
     9    10     8    2
    10     6     8    1
    11     6     5    1
    12     3     2    1
    13     5     1    1
    14     2     1    1
    15     2     4    2
