@<TRIPOS>MOLECULE
/home/cewinharhar/GITHUB/reincatalyze/data/processed/docking_pred/2023-May-31-1727_sub9_nm5_bs15_s42_ex16_mel10_mts10000_k50_ec075_g099_lra3e-4_lrc3e-3/6e01533e6265e20f53eb8495178921d7241890ed_ligand_9.pdbqt
 14 15 0 0 0
SMALL
GASTEIGER

@<TRIPOS>ATOM
      1  C          6.2880    1.1780    0.9050 C.3     1  UNL1        0.0800
      2  C          5.5600    0.3970    1.9220 C.2     1  UNL1        0.1300
      3  C          6.2620   -0.8610    2.4010 C.3     1  UNL1        0.0870
      4  O          4.4910    0.6380    2.4070 O.2     1  UNL1       -0.3000
      5  C          5.9370    0.9020   -0.5030 C.3     1  UNL1        0.0430
      6  C          6.8880    0.1110   -1.2890 C.2     1  UNL1       -0.0440
      7  C          7.7730    0.6970   -2.1950 C.2     1  UNL1        0.0080
      8  C          6.9490   -1.2530   -1.1260 C.2     1  UNL1        0.0540
      9  C          8.6550   -0.1010   -2.8770 C.2     1  UNL1        0.0510
     10  C          7.8620   -2.0470   -1.8370 C.2     1  UNL1        0.1660
     11  C          8.7350   -1.4680   -2.7320 C.2     1  UNL1        0.1650
     12  O          8.1430   -3.4070   -1.8760 O.2     1  UNL1       -0.4540
     13  O          9.5300   -2.4730   -3.2990 O.2     1  UNL1       -0.4540
     14  C          9.4530   -3.5610   -2.4020 C.3     1  UNL1        0.4680
@<TRIPOS>BOND
     1    13    11    1
     2    13    14    1
     3     9    11    2
     4     9     7    1
     5    11    10    1
     6    14    12    1
     7     7     6    2
     8    12    10    1
     9    10     8    2
    10     6     8    1
    11     6     5    1
    12     5     1    1
    13     1     2    1
    14     2     3    1
    15     2     4    2
