@<TRIPOS>MOLECULE
/home/cewinharhar/GITHUB/reincatalyze/data/processed/docking_pred/2023-May-31-1727_sub9_nm5_bs15_s42_ex16_mel10_mts10000_k50_ec075_g099_lra3e-4_lrc3e-3/6e6a373552f8835a6ba7a6c6fa001d8bbefa4498_ligand_9.pdbqt
 14 15 0 0 0
SMALL
GASTEIGER

@<TRIPOS>ATOM
      1  C          6.1600    1.2320    0.8840 C.3     1  UNL1        0.0800
      2  C          5.5160    0.4080    1.9230 C.2     1  UNL1        0.1300
      3  C          6.3020   -0.8170    2.3600 C.3     1  UNL1        0.0870
      4  O          4.4590    0.5900    2.4560 O.2     1  UNL1       -0.3000
      5  C          5.8260    0.8950   -0.5150 C.3     1  UNL1        0.0430
      6  C          6.8220    0.1380   -1.2780 C.2     1  UNL1       -0.0440
      7  C          7.7960    0.7660   -2.0570 C.2     1  UNL1        0.0080
      8  C          6.8370   -1.2360   -1.2200 C.2     1  UNL1        0.0540
      9  C          8.7140   -0.0040   -2.7240 C.2     1  UNL1        0.0510
     10  C          7.7890   -1.9990   -1.9120 C.2     1  UNL1        0.1660
     11  C          8.7490   -1.3800   -2.6820 C.2     1  UNL1        0.1650
     12  O          8.0390   -3.3610   -2.0360 O.2     1  UNL1       -0.4540
     13  O          9.5650   -2.3620   -3.2590 O.2     1  UNL1       -0.4540
     14  C          9.3860   -3.5130   -2.4600 C.3     1  UNL1        0.4680
@<TRIPOS>BOND
     1    13    11    1
     2    13    14    1
     3     9    11    2
     4     9     7    1
     5    11    10    1
     6    14    12    1
     7     7     6    2
     8    12    10    1
     9    10     8    2
    10     6     8    1
    11     6     5    1
    12     5     1    1
    13     1     2    1
    14     2     3    1
    15     2     4    2
