MODEL 1
REMARK VINA RESULT:      -7.7      0.000      0.000
REMARK SMILES CC(=O)CCc1ccc2c(c1)OCO2
REMARK SMILES IDX 4 1 2 2 1 3 3 4 5 5 6 6 7 7 11 8 8 9 10 10 9 11 12 12 14 13
REMARK SMILES IDX 13 14
REMARK H PARENT
REMARK Flexibility Score: inf
ROOT
ATOM      1  C   UNL     1       5.477   1.892   1.212  1.00  0.00     0.080 C 
ENDROOT
BRANCH   1   2
ATOM      2  C   UNL     1       4.949   0.758   1.992  1.00  0.00     0.130 C 
ATOM      3  C   UNL     1       5.864  -0.451   2.082  1.00  0.00     0.087 C 
ATOM      4  O   UNL     1       3.895   0.681   2.557  1.00  0.00    -0.300 OA
ENDBRANCH   1   2
BRANCH   1   5
ATOM      5  C   UNL     1       5.470   1.731  -0.257  1.00  0.00     0.043 C 
BRANCH   5   6
ATOM      6  C   UNL     1       6.588   0.996  -0.856  1.00  0.00    -0.044 A 
ATOM      7  C   UNL     1       7.916   1.383  -0.671  1.00  0.00     0.008 A 
ATOM      8  C   UNL     1       6.348  -0.132  -1.606  1.00  0.00     0.054 A 
ATOM      9  C   UNL     1       8.914   0.632  -1.238  1.00  0.00     0.051 A 
ATOM     10  C   UNL     1       7.388  -0.882  -2.175  1.00  0.00     0.166 A 
ATOM     11  C   UNL     1       8.699  -0.499  -1.993  1.00  0.00     0.165 A 
ATOM     12  O   UNL     1       7.444  -2.029  -2.956  1.00  0.00    -0.454 OA
ATOM     13  O   UNL     1       9.530  -1.410  -2.659  1.00  0.00    -0.454 OA
ATOM     14  C   UNL     1       8.749  -2.575  -2.825  1.00  0.00     0.468 C 
ENDBRANCH   5   6
ENDBRANCH   1   5
TORSDOF 3
ENDMDL
MODEL 2
REMARK VINA RESULT:      -7.1      1.827      2.318
REMARK SMILES CC(=O)CCc1ccc2c(c1)OCO2
REMARK SMILES IDX 4 1 2 2 1 3 3 4 5 5 6 6 7 7 11 8 8 9 10 10 9 11 12 12 14 13
REMARK SMILES IDX 13 14
REMARK H PARENT
REMARK Flexibility Score: inf
ROOT
ATOM      1  C   UNL     1       5.814   1.487  -0.296  1.00  0.00     0.080 C 
ENDROOT
BRANCH   1   2
ATOM      2  C   UNL     1       5.104   1.417   0.994  1.00  0.00     0.130 C 
ATOM      3  C   UNL     1       5.544   0.295   1.919  1.00  0.00     0.087 C 
ATOM      4  O   UNL     1       4.230   2.134   1.392  1.00  0.00    -0.300 OA
ENDBRANCH   1   2
BRANCH   1   5
ATOM      5  C   UNL     1       7.229   1.061  -0.283  1.00  0.00     0.043 C 
BRANCH   5   6
ATOM      6  C   UNL     1       7.541  -0.245  -0.871  1.00  0.00    -0.044 A 
ATOM      7  C   UNL     1       7.563  -0.454  -2.251  1.00  0.00     0.008 A 
ATOM      8  C   UNL     1       7.853  -1.310  -0.058  1.00  0.00     0.054 A 
ATOM      9  C   UNL     1       7.889  -1.695  -2.733  1.00  0.00     0.051 A 
ATOM     10  C   UNL     1       8.184  -2.570  -0.578  1.00  0.00     0.166 A 
ATOM     11  C   UNL     1       8.204  -2.776  -1.940  1.00  0.00     0.165 A 
ATOM     12  O   UNL     1       8.532  -3.792  -0.016  1.00  0.00    -0.454 OA
ATOM     13  O   UNL     1       8.562  -4.108  -2.188  1.00  0.00    -0.454 OA
ATOM     14  C   UNL     1       9.208  -4.547  -1.011  1.00  0.00     0.468 C 
ENDBRANCH   5   6
ENDBRANCH   1   5
TORSDOF 3
ENDMDL
MODEL 3
REMARK VINA RESULT:      -7.0      1.077      1.166
REMARK SMILES CC(=O)CCc1ccc2c(c1)OCO2
REMARK SMILES IDX 4 1 2 2 1 3 3 4 5 5 6 6 7 7 11 8 8 9 10 10 9 11 12 12 14 13
REMARK SMILES IDX 13 14
REMARK H PARENT
REMARK Flexibility Score: inf
ROOT
ATOM      1  C   UNL     1       6.160   1.232   0.884  1.00  0.00     0.080 C 
ENDROOT
BRANCH   1   2
ATOM      2  C   UNL     1       5.516   0.408   1.923  1.00  0.00     0.130 C 
ATOM      3  C   UNL     1       6.302  -0.817   2.360  1.00  0.00     0.087 C 
ATOM      4  O   UNL     1       4.459   0.590   2.456  1.00  0.00    -0.300 OA
ENDBRANCH   1   2
BRANCH   1   5
ATOM      5  C   UNL     1       5.826   0.895  -0.515  1.00  0.00     0.043 C 
BRANCH   5   6
ATOM      6  C   UNL     1       6.822   0.138  -1.278  1.00  0.00    -0.044 A 
ATOM      7  C   UNL     1       7.796   0.766  -2.057  1.00  0.00     0.008 A 
ATOM      8  C   UNL     1       6.837  -1.236  -1.220  1.00  0.00     0.054 A 
ATOM      9  C   UNL     1       8.714  -0.004  -2.724  1.00  0.00     0.051 A 
ATOM     10  C   UNL     1       7.789  -1.999  -1.912  1.00  0.00     0.166 A 
ATOM     11  C   UNL     1       8.749  -1.380  -2.682  1.00  0.00     0.165 A 
ATOM     12  O   UNL     1       8.039  -3.361  -2.036  1.00  0.00    -0.454 OA
ATOM     13  O   UNL     1       9.565  -2.362  -3.259  1.00  0.00    -0.454 OA
ATOM     14  C   UNL     1       9.386  -3.513  -2.460  1.00  0.00     0.468 C 
ENDBRANCH   5   6
ENDBRANCH   1   5
TORSDOF 3
ENDMDL
MODEL 4
REMARK VINA RESULT:      -6.8      1.098      1.599
REMARK SMILES CC(=O)CCc1ccc2c(c1)OCO2
REMARK SMILES IDX 4 1 2 2 1 3 3 4 5 5 6 6 7 7 11 8 8 9 10 10 9 11 12 12 14 13
REMARK SMILES IDX 13 14
REMARK H PARENT
REMARK Flexibility Score: inf
ROOT
ATOM      1  C   UNL     1       5.335  -0.022   1.989  1.00  0.00     0.080 C 
ENDROOT
BRANCH   1   2
ATOM      2  C   UNL     1       4.388   1.101   1.869  1.00  0.00     0.130 C 
ATOM      3  C   UNL     1       4.733   2.132   0.807  1.00  0.00     0.087 C 
ATOM      4  O   UNL     1       3.390   1.293   2.504  1.00  0.00    -0.300 OA
ENDBRANCH   1   2
BRANCH   1   5
ATOM      5  C   UNL     1       6.760   0.300   1.762  1.00  0.00     0.043 C 
BRANCH   5   6
ATOM      6  C   UNL     1       7.312  -0.000   0.438  1.00  0.00    -0.044 A 
ATOM      7  C   UNL     1       7.870   0.987  -0.377  1.00  0.00     0.008 A 
ATOM      8  C   UNL     1       7.317  -1.294  -0.029  1.00  0.00     0.054 A 
ATOM      9  C   UNL     1       8.393   0.630  -1.592  1.00  0.00     0.051 A 
ATOM     10  C   UNL     1       7.859  -1.631  -1.278  1.00  0.00     0.166 A 
ATOM     11  C   UNL     1       8.410  -0.657  -2.082  1.00  0.00     0.165 A 
ATOM     12  O   UNL     1       7.999  -2.817  -1.989  1.00  0.00    -0.454 OA
ATOM     13  O   UNL     1       8.874  -1.256  -3.261  1.00  0.00    -0.454 OA
ATOM     14  C   UNL     1       9.028  -2.625  -2.948  1.00  0.00     0.468 C 
ENDBRANCH   5   6
ENDBRANCH   1   5
TORSDOF 3
ENDMDL
MODEL 5
REMARK VINA RESULT:      -6.8      1.968      2.541
REMARK SMILES CC(=O)CCc1ccc2c(c1)OCO2
REMARK SMILES IDX 4 1 2 2 1 3 3 4 5 5 6 6 7 7 11 8 8 9 10 10 9 11 12 12 14 13
REMARK SMILES IDX 13 14
REMARK H PARENT
REMARK Flexibility Score: inf
ROOT
ATOM      1  C   UNL     1       5.608   0.013   2.036  1.00  0.00     0.080 C 
ENDROOT
BRANCH   1   2
ATOM      2  C   UNL     1       4.641   1.102   1.810  1.00  0.00     0.130 C 
ATOM      3  C   UNL     1       4.986   2.053   0.676  1.00  0.00     0.087 C 
ATOM      4  O   UNL     1       3.626   1.322   2.409  1.00  0.00    -0.300 OA
ENDBRANCH   1   2
BRANCH   1   5
ATOM      5  C   UNL     1       6.940   0.186   1.420  1.00  0.00     0.043 C 
BRANCH   5   6
ATOM      6  C   UNL     1       7.336  -0.783   0.395  1.00  0.00    -0.044 A 
ATOM      7  C   UNL     1       7.246  -0.501  -0.970  1.00  0.00     0.008 A 
ATOM      8  C   UNL     1       7.840  -2.008   0.763  1.00  0.00     0.054 A 
ATOM      9  C   UNL     1       7.660  -1.445  -1.874  1.00  0.00     0.051 A 
ATOM     10  C   UNL     1       8.257  -2.956  -0.184  1.00  0.00     0.166 A 
ATOM     11  C   UNL     1       8.168  -2.678  -1.530  1.00  0.00     0.165 A 
ATOM     12  O   UNL     1       8.791  -4.236  -0.107  1.00  0.00    -0.454 OA
ATOM     13  O   UNL     1       8.645  -3.781  -2.250  1.00  0.00    -0.454 OA
ATOM     14  C   UNL     1       9.446  -4.504  -1.339  1.00  0.00     0.468 C 
ENDBRANCH   5   6
ENDBRANCH   1   5
TORSDOF 3
ENDMDL
