MODEL 1
REMARK VINA RESULT:      -7.6      0.000      0.000
REMARK SMILES CC(=O)CCc1ccc2c(c1)OCO2
REMARK SMILES IDX 4 1 2 2 1 3 3 4 5 5 6 6 7 7 11 8 8 9 10 10 9 11 12 12 14 13
REMARK SMILES IDX 13 14
REMARK H PARENT
REMARK Flexibility Score: inf
ROOT
ATOM      1  C   UNL     1       5.728   1.666   1.151  1.00  0.00     0.080 C 
ENDROOT
BRANCH   1   2
ATOM      2  C   UNL     1       5.185   0.584   1.991  1.00  0.00     0.130 C 
ATOM      3  C   UNL     1       6.113  -0.600   2.208  1.00  0.00     0.087 C 
ATOM      4  O   UNL     1       4.109   0.531   2.517  1.00  0.00    -0.300 OA
ENDBRANCH   1   2
BRANCH   1   5
ATOM      5  C   UNL     1       5.640   1.462  -0.311  1.00  0.00     0.043 C 
BRANCH   5   6
ATOM      6  C   UNL     1       6.736   0.730  -0.952  1.00  0.00    -0.044 A 
ATOM      7  C   UNL     1       8.057   1.179  -0.910  1.00  0.00     0.008 A 
ATOM      8  C   UNL     1       6.484  -0.457  -1.601  1.00  0.00     0.054 A 
ATOM      9  C   UNL     1       9.035   0.430  -1.509  1.00  0.00     0.051 A 
ATOM     10  C   UNL     1       7.506  -1.205  -2.205  1.00  0.00     0.166 A 
ATOM     11  C   UNL     1       8.809  -0.761  -2.164  1.00  0.00     0.165 A 
ATOM     12  O   UNL     1       7.548  -2.403  -2.909  1.00  0.00    -0.454 OA
ATOM     13  O   UNL     1       9.621  -1.684  -2.836  1.00  0.00    -0.454 OA
ATOM     14  C   UNL     1       8.882  -2.887  -2.854  1.00  0.00     0.468 C 
ENDBRANCH   5   6
ENDBRANCH   1   5
TORSDOF 3
ENDMDL
MODEL 2
REMARK VINA RESULT:      -7.0      1.755      2.160
REMARK SMILES CC(=O)CCc1ccc2c(c1)OCO2
REMARK SMILES IDX 4 1 2 2 1 3 3 4 5 5 6 6 7 7 11 8 8 9 10 10 9 11 12 12 14 13
REMARK SMILES IDX 13 14
REMARK H PARENT
REMARK Flexibility Score: inf
ROOT
ATOM      1  C   UNL     1       5.975   1.528  -0.169  1.00  0.00     0.080 C 
ENDROOT
BRANCH   1   2
ATOM      2  C   UNL     1       5.161   1.391   1.053  1.00  0.00     0.130 C 
ATOM      3  C   UNL     1       5.474   0.176   1.909  1.00  0.00     0.087 C 
ATOM      4  O   UNL     1       4.293   2.118   1.443  1.00  0.00    -0.300 OA
ENDBRANCH   1   2
BRANCH   1   5
ATOM      5  C   UNL     1       7.359   1.015  -0.090  1.00  0.00     0.043 C 
BRANCH   5   6
ATOM      6  C   UNL     1       7.633  -0.276  -0.727  1.00  0.00    -0.044 A 
ATOM      7  C   UNL     1       7.623  -0.438  -2.114  1.00  0.00     0.008 A 
ATOM      8  C   UNL     1       7.939  -1.373   0.044  1.00  0.00     0.054 A 
ATOM      9  C   UNL     1       7.915  -1.669  -2.643  1.00  0.00     0.051 A 
ATOM     10  C   UNL     1       8.234  -2.622  -0.525  1.00  0.00     0.166 A 
ATOM     11  C   UNL     1       8.224  -2.782  -1.893  1.00  0.00     0.165 A 
ATOM     12  O   UNL     1       8.568  -3.869  -0.011  1.00  0.00    -0.454 OA
ATOM     13  O   UNL     1       8.549  -4.111  -2.193  1.00  0.00    -0.454 OA
ATOM     14  C   UNL     1       9.209  -4.602  -1.044  1.00  0.00     0.468 C 
ENDBRANCH   5   6
ENDBRANCH   1   5
TORSDOF 3
ENDMDL
MODEL 3
REMARK VINA RESULT:      -6.7      1.121      1.606
REMARK SMILES CC(=O)CCc1ccc2c(c1)OCO2
REMARK SMILES IDX 4 1 2 2 1 3 3 4 5 5 6 6 7 7 11 8 8 9 10 10 9 11 12 12 14 13
REMARK SMILES IDX 13 14
REMARK H PARENT
REMARK Flexibility Score: inf
ROOT
ATOM      1  C   UNL     1       5.362  -0.050   1.958  1.00  0.00     0.080 C 
ENDROOT
BRANCH   1   2
ATOM      2  C   UNL     1       4.409   1.070   1.859  1.00  0.00     0.130 C 
ATOM      3  C   UNL     1       4.737   2.111   0.802  1.00  0.00     0.087 C 
ATOM      4  O   UNL     1       3.418   1.252   2.507  1.00  0.00    -0.300 OA
ENDBRANCH   1   2
BRANCH   1   5
ATOM      5  C   UNL     1       6.781   0.277   1.703  1.00  0.00     0.043 C 
BRANCH   5   6
ATOM      6  C   UNL     1       7.318  -0.058   0.381  1.00  0.00    -0.044 A 
ATOM      7  C   UNL     1       7.735   0.920  -0.523  1.00  0.00     0.008 A 
ATOM      8  C   UNL     1       7.453  -1.375   0.006  1.00  0.00     0.054 A 
ATOM      9  C   UNL     1       8.254   0.534  -1.731  1.00  0.00     0.051 A 
ATOM     10  C   UNL     1       7.987  -1.743  -1.238  1.00  0.00     0.166 A 
ATOM     11  C   UNL     1       8.398  -0.777  -2.130  1.00  0.00     0.165 A 
ATOM     12  O   UNL     1       8.236  -2.956  -1.868  1.00  0.00    -0.454 OA
ATOM     13  O   UNL     1       8.887  -1.407  -3.282  1.00  0.00    -0.454 OA
ATOM     14  C   UNL     1       9.204  -2.723  -2.881  1.00  0.00     0.468 C 
ENDBRANCH   5   6
ENDBRANCH   1   5
TORSDOF 3
ENDMDL
MODEL 4
REMARK VINA RESULT:      -6.5      1.868      2.318
REMARK SMILES CC(=O)CCc1ccc2c(c1)OCO2
REMARK SMILES IDX 4 1 2 2 1 3 3 4 5 5 6 6 7 7 11 8 8 9 10 10 9 11 12 12 14 13
REMARK SMILES IDX 13 14
REMARK H PARENT
REMARK Flexibility Score: inf
ROOT
ATOM      1  C   UNL     1       6.245   0.349   1.924  1.00  0.00     0.080 C 
ENDROOT
BRANCH   1   2
ATOM      2  C   UNL     1       4.973   1.065   1.722  1.00  0.00     0.130 C 
ATOM      3  C   UNL     1       4.929   1.985   0.514  1.00  0.00     0.087 C 
ATOM      4  O   UNL     1       3.981   1.005   2.392  1.00  0.00    -0.300 OA
ENDBRANCH   1   2
BRANCH   1   5
ATOM      5  C   UNL     1       7.285   0.565   0.896  1.00  0.00     0.043 C 
BRANCH   5   6
ATOM      6  C   UNL     1       7.573  -0.550  -0.010  1.00  0.00    -0.044 A 
ATOM      7  C   UNL     1       7.486  -0.424  -1.397  1.00  0.00     0.008 A 
ATOM      8  C   UNL     1       7.973  -1.764   0.498  1.00  0.00     0.054 A 
ATOM      9  C   UNL     1       7.797  -1.501  -2.186  1.00  0.00     0.051 A 
ATOM     10  C   UNL     1       8.286  -2.851  -0.332  1.00  0.00     0.166 A 
ATOM     11  C   UNL     1       8.198  -2.726  -1.701  1.00  0.00     0.165 A 
ATOM     12  O   UNL     1       8.704  -4.157  -0.108  1.00  0.00    -0.454 OA
ATOM     13  O   UNL     1       8.561  -3.945  -2.289  1.00  0.00    -0.454 OA
ATOM     14  C   UNL     1       9.311  -4.626  -1.303  1.00  0.00     0.468 C 
ENDBRANCH   5   6
ENDBRANCH   1   5
TORSDOF 3
ENDMDL
MODEL 5
REMARK VINA RESULT:      -6.5      1.519      2.250
REMARK SMILES CC(=O)CCc1ccc2c(c1)OCO2
REMARK SMILES IDX 4 1 2 2 1 3 3 4 5 5 6 6 7 7 11 8 8 9 10 10 9 11 12 12 14 13
REMARK SMILES IDX 13 14
REMARK H PARENT
REMARK Flexibility Score: inf
ROOT
ATOM      1  C   UNL     1       5.323  -0.089   2.204  1.00  0.00     0.080 C 
ENDROOT
BRANCH   1   2
ATOM      2  C   UNL     1       4.449   1.060   1.909  1.00  0.00     0.130 C 
ATOM      3  C   UNL     1       4.927   1.970   0.790  1.00  0.00     0.087 C 
ATOM      4  O   UNL     1       3.417   1.355   2.442  1.00  0.00    -0.300 OA
ENDBRANCH   1   2
BRANCH   1   5
ATOM      5  C   UNL     1       6.761   0.095   1.915  1.00  0.00     0.043 C 
BRANCH   5   6
ATOM      6  C   UNL     1       7.329  -0.688   0.814  1.00  0.00    -0.044 A 
ATOM      7  C   UNL     1       7.638  -2.042   0.946  1.00  0.00     0.008 A 
ATOM      8  C   UNL     1       7.547  -0.097  -0.410  1.00  0.00     0.054 A 
ATOM      9  C   UNL     1       8.142  -2.719  -0.134  1.00  0.00     0.051 A 
ATOM     10  C   UNL     1       8.063  -0.815  -1.499  1.00  0.00     0.166 A 
ATOM     11  C   UNL     1       8.370  -2.152  -1.368  1.00  0.00     0.165 A 
ATOM     12  O   UNL     1       8.379  -0.492  -2.814  1.00  0.00    -0.454 OA
ATOM     13  O   UNL     1       8.863  -2.622  -2.592  1.00  0.00    -0.454 OA
ATOM     14  C   UNL     1       8.404  -1.701  -3.559  1.00  0.00     0.468 C 
ENDBRANCH   5   6
ENDBRANCH   1   5
TORSDOF 3
ENDMDL
