@<TRIPOS>MOLECULE
/home/cewinharhar/GITHUB/reincatalyze/data/processed/docking_pred/2023-May-31-1727_sub9_nm5_bs15_s42_ex16_mel10_mts10000_k50_ec075_g099_lra3e-4_lrc3e-3/6eca206a948153dc2868ed9d680cd756ab453321_ligand_9.pdbqt
 14 15 0 0 0
SMALL
GASTEIGER

@<TRIPOS>ATOM
      1  C          6.2450    0.3490    1.9240 C.3     1  UNL1        0.0800
      2  C          4.9730    1.0650    1.7220 C.2     1  UNL1        0.1300
      3  C          4.9290    1.9850    0.5140 C.3     1  UNL1        0.0870
      4  O          3.9810    1.0050    2.3920 O.2     1  UNL1       -0.3000
      5  C          7.2850    0.5650    0.8960 C.3     1  UNL1        0.0430
      6  C          7.5730   -0.5500   -0.0100 C.2     1  UNL1       -0.0440
      7  C          7.4860   -0.4240   -1.3970 C.2     1  UNL1        0.0080
      8  C          7.9730   -1.7640    0.4980 C.2     1  UNL1        0.0540
      9  C          7.7970   -1.5010   -2.1860 C.2     1  UNL1        0.0510
     10  C          8.2860   -2.8510   -0.3320 C.2     1  UNL1        0.1660
     11  C          8.1980   -2.7260   -1.7010 C.2     1  UNL1        0.1650
     12  O          8.7040   -4.1570   -0.1080 O.2     1  UNL1       -0.4540
     13  O          8.5610   -3.9450   -2.2890 O.2     1  UNL1       -0.4540
     14  C          9.3110   -4.6260   -1.3030 C.3     1  UNL1        0.4680
@<TRIPOS>BOND
     1    13    11    1
     2    13    14    1
     3     9    11    2
     4     9     7    1
     5    11    10    1
     6     7     6    2
     7    14    12    1
     8    10    12    1
     9    10     8    2
    10     6     8    1
    11     6     5    1
    12     3     2    1
    13     5     1    1
    14     2     1    1
    15     2     4    2
