@<TRIPOS>MOLECULE
/home/cewinharhar/GITHUB/reincatalyze/data/processed/docking_pred/2023-May-31-1727_sub9_nm5_bs15_s42_ex16_mel10_mts10000_k50_ec075_g099_lra3e-4_lrc3e-3/7076afde4386affa59e586c5ec9b2181426a643f_ligand_9.pdbqt
 14 15 0 0 0
SMALL
GASTEIGER

@<TRIPOS>ATOM
      1  C          5.5970    1.8730    1.2560 C.3     1  UNL1        0.0800
      2  C          5.0200    0.7350    1.9950 C.2     1  UNL1        0.1300
      3  C          5.9210   -0.4820    2.1210 C.3     1  UNL1        0.0870
      4  O          3.9370    0.6610    2.5020 O.2     1  UNL1       -0.3000
      5  C          5.5910    1.7630   -0.2180 C.3     1  UNL1        0.0430
      6  C          6.6800    1.0040   -0.8380 C.2     1  UNL1       -0.0440
      7  C          8.0190    1.3710   -0.6930 C.2     1  UNL1        0.0080
      8  C          6.4020   -0.1280   -1.5680 C.2     1  UNL1        0.0540
      9  C          8.9890    0.5990   -1.2790 C.2     1  UNL1        0.0510
     10  C          7.4150   -0.9000   -2.1570 C.2     1  UNL1        0.1660
     11  C          8.7360   -0.5380   -2.0150 C.2     1  UNL1        0.1650
     12  O          7.4310   -2.0570   -2.9260 O.2     1  UNL1       -0.4540
     13  O          9.5340   -1.4690   -2.6930 O.2     1  UNL1       -0.4540
     14  C          8.7300   -2.6230   -2.8240 C.3     1  UNL1        0.4680
@<TRIPOS>BOND
     1    12    14    1
     2    12    10    1
     3    14    13    1
     4    13    11    1
     5    10    11    2
     6    10     8    1
     7    11     9    1
     8     8     6    2
     9     9     7    2
    10     6     7    1
    11     6     5    1
    12     5     1    1
    13     1     2    1
    14     2     3    1
    15     2     4    2
