@<TRIPOS>MOLECULE
/home/cewinharhar/GITHUB/reincatalyze/data/processed/docking_pred/2023-May-31-1727_sub9_nm5_bs15_s42_ex16_mel10_mts10000_k50_ec075_g099_lra3e-4_lrc3e-3/72c4800fcc396c08a923544a0defa9269110c5e0_ligand_9.pdbqt
 14 15 0 0 0
SMALL
GASTEIGER

@<TRIPOS>ATOM
      1  C          5.3780    0.0360    2.0020 C.3     1  UNL1        0.0800
      2  C          4.4710    1.1950    1.9160 C.2     1  UNL1        0.1300
      3  C          4.7430    2.1500    0.7660 C.3     1  UNL1        0.0870
      4  O          3.5540    1.4660    2.6380 O.2     1  UNL1       -0.3000
      5  C          6.8130    0.3150    1.7830 C.3     1  UNL1        0.0430
      6  C          7.3610    0.0100    0.4590 C.2     1  UNL1       -0.0440
      7  C          7.9540    0.9850   -0.3440 C.2     1  UNL1        0.0080
      8  C          7.3270   -1.2800   -0.0200 C.2     1  UNL1        0.0540
      9  C          8.4710    0.6230   -1.5610 C.2     1  UNL1        0.0510
     10  C          7.8640   -1.6230   -1.2700 C.2     1  UNL1        0.1660
     11  C          8.4480   -0.6600   -2.0630 C.2     1  UNL1        0.1650
     12  O          7.9700   -2.8060   -1.9900 O.2     1  UNL1       -0.4540
     13  O          8.8990   -1.2620   -3.2440 O.2     1  UNL1       -0.4540
     14  C          9.0080   -2.6380   -2.9440 C.3     1  UNL1        0.4680
@<TRIPOS>BOND
     1    13    14    1
     2    13    11    1
     3    14    12    1
     4    11     9    2
     5    11    10    1
     6    12    10    1
     7     9     7    1
     8    10     8    2
     9     7     6    2
    10     8     6    1
    11     6     5    1
    12     3     2    1
    13     5     1    1
    14     2     1    1
    15     2     4    2
