MODEL 1
REMARK VINA RESULT:      -7.9      0.000      0.000
REMARK SMILES CC(=O)CCc1ccc2c(c1)OCO2
REMARK SMILES IDX 4 1 2 2 1 3 3 4 5 5 6 6 7 7 11 8 8 9 10 10 9 11 12 12 14 13
REMARK SMILES IDX 13 14
REMARK H PARENT
REMARK Flexibility Score: inf
ROOT
ATOM      1  C   UNL     1       5.407   2.150   1.167  1.00  0.00     0.080 C 
ENDROOT
BRANCH   1   2
ATOM      2  C   UNL     1       4.711   1.161   2.010  1.00  0.00     0.130 C 
ATOM      3  C   UNL     1       5.388  -0.194   2.117  1.00  0.00     0.087 C 
ATOM      4  O   UNL     1       3.686   1.302   2.614  1.00  0.00    -0.300 OA
ENDBRANCH   1   2
BRANCH   1   5
ATOM      5  C   UNL     1       5.395   1.888  -0.288  1.00  0.00     0.043 C 
BRANCH   5   6
ATOM      6  C   UNL     1       6.523   1.136  -0.843  1.00  0.00    -0.044 A 
ATOM      7  C   UNL     1       7.849   1.459  -0.549  1.00  0.00     0.008 A 
ATOM      8  C   UNL     1       6.294   0.055  -1.662  1.00  0.00     0.054 A 
ATOM      9  C   UNL     1       8.855   0.694  -1.083  1.00  0.00     0.051 A 
ATOM     10  C   UNL     1       7.342  -0.710  -2.194  1.00  0.00     0.166 A 
ATOM     11  C   UNL     1       8.651  -0.392  -1.905  1.00  0.00     0.165 A 
ATOM     12  O   UNL     1       7.410  -1.823  -3.024  1.00  0.00    -0.454 OA
ATOM     13  O   UNL     1       9.491  -1.304  -2.555  1.00  0.00    -0.454 OA
ATOM     14  C   UNL     1       8.680  -2.428  -2.831  1.00  0.00     0.468 C 
ENDBRANCH   5   6
ENDBRANCH   1   5
TORSDOF 3
ENDMDL
MODEL 2
REMARK VINA RESULT:      -7.4      1.001      1.104
REMARK SMILES CC(=O)CCc1ccc2c(c1)OCO2
REMARK SMILES IDX 4 1 2 2 1 3 3 4 5 5 6 6 7 7 11 8 8 9 10 10 9 11 12 12 14 13
REMARK SMILES IDX 13 14
REMARK H PARENT
REMARK Flexibility Score: inf
ROOT
ATOM      1  C   UNL     1       5.049   1.037   1.558  1.00  0.00     0.080 C 
ENDROOT
BRANCH   1   2
ATOM      2  C   UNL     1       6.053   0.317   2.363  1.00  0.00     0.130 C 
ATOM      3  C   UNL     1       6.168  -1.171   2.081  1.00  0.00     0.087 C 
ATOM      4  O   UNL     1       6.780   0.765   3.204  1.00  0.00    -0.300 OA
ENDBRANCH   1   2
BRANCH   1   5
ATOM      5  C   UNL     1       5.552   1.716   0.345  1.00  0.00     0.043 C 
BRANCH   5   6
ATOM      6  C   UNL     1       6.608   1.039  -0.412  1.00  0.00    -0.044 A 
ATOM      7  C   UNL     1       7.945   1.436  -0.341  1.00  0.00     0.008 A 
ATOM      8  C   UNL     1       6.303  -0.043  -1.205  1.00  0.00     0.054 A 
ATOM      9  C   UNL     1       8.885   0.741  -1.056  1.00  0.00     0.051 A 
ATOM     10  C   UNL     1       7.286  -0.737  -1.926  1.00  0.00     0.166 A 
ATOM     11  C   UNL     1       8.605  -0.344  -1.856  1.00  0.00     0.165 A 
ATOM     12  O   UNL     1       7.273  -1.832  -2.781  1.00  0.00    -0.454 OA
ATOM     13  O   UNL     1       9.371  -1.197  -2.662  1.00  0.00    -0.454 OA
ATOM     14  C   UNL     1       8.589  -2.362  -2.821  1.00  0.00     0.468 C 
ENDBRANCH   5   6
ENDBRANCH   1   5
TORSDOF 3
ENDMDL
MODEL 3
REMARK VINA RESULT:      -7.0      2.047      2.590
REMARK SMILES CC(=O)CCc1ccc2c(c1)OCO2
REMARK SMILES IDX 4 1 2 2 1 3 3 4 5 5 6 6 7 7 11 8 8 9 10 10 9 11 12 12 14 13
REMARK SMILES IDX 13 14
REMARK H PARENT
REMARK Flexibility Score: inf
ROOT
ATOM      1  C   UNL     1       5.476   0.026   2.109  1.00  0.00     0.080 C 
ENDROOT
BRANCH   1   2
ATOM      2  C   UNL     1       4.615   1.207   1.915  1.00  0.00     0.130 C 
ATOM      3  C   UNL     1       4.969   2.081   0.724  1.00  0.00     0.087 C 
ATOM      4  O   UNL     1       3.679   1.552   2.580  1.00  0.00    -0.300 OA
ENDBRANCH   1   2
BRANCH   1   5
ATOM      5  C   UNL     1       6.863   0.143   1.610  1.00  0.00     0.043 C 
BRANCH   5   6
ATOM      6  C   UNL     1       7.269  -0.771   0.539  1.00  0.00    -0.044 A 
ATOM      7  C   UNL     1       7.197  -0.416  -0.809  1.00  0.00     0.008 A 
ATOM      8  C   UNL     1       7.767  -2.015   0.847  1.00  0.00     0.054 A 
ATOM      9  C   UNL     1       7.620  -1.311  -1.757  1.00  0.00     0.051 A 
ATOM     10  C   UNL     1       8.194  -2.912  -0.144  1.00  0.00     0.166 A 
ATOM     11  C   UNL     1       8.122  -2.562  -1.474  1.00  0.00     0.165 A 
ATOM     12  O   UNL     1       8.724  -4.196  -0.130  1.00  0.00    -0.454 OA
ATOM     13  O   UNL     1       8.605  -3.626  -2.247  1.00  0.00    -0.454 OA
ATOM     14  C   UNL     1       9.394  -4.398  -1.366  1.00  0.00     0.468 C 
ENDBRANCH   5   6
ENDBRANCH   1   5
TORSDOF 3
ENDMDL
MODEL 4
REMARK VINA RESULT:      -6.9      1.643      2.013
REMARK SMILES CC(=O)CCc1ccc2c(c1)OCO2
REMARK SMILES IDX 4 1 2 2 1 3 3 4 5 5 6 6 7 7 11 8 8 9 10 10 9 11 12 12 14 13
REMARK SMILES IDX 13 14
REMARK H PARENT
REMARK Flexibility Score: inf
ROOT
ATOM      1  C   UNL     1       5.525   1.545   0.371  1.00  0.00     0.080 C 
ENDROOT
BRANCH   1   2
ATOM      2  C   UNL     1       5.188   1.277   1.780  1.00  0.00     0.130 C 
ATOM      3  C   UNL     1       6.334   0.767   2.637  1.00  0.00     0.087 C 
ATOM      4  O   UNL     1       4.128   1.413   2.322  1.00  0.00    -0.300 OA
ENDBRANCH   1   2
BRANCH   1   5
ATOM      5  C   UNL     1       6.942   1.359  -0.007  1.00  0.00     0.043 C 
BRANCH   5   6
ATOM      6  C   UNL     1       7.287   0.135  -0.736  1.00  0.00    -0.044 A 
ATOM      7  C   UNL     1       7.290   0.076  -2.130  1.00  0.00     0.008 A 
ATOM      8  C   UNL     1       7.649  -0.998  -0.046  1.00  0.00     0.054 A 
ATOM      9  C   UNL     1       7.650  -1.095  -2.746  1.00  0.00     0.051 A 
ATOM     10  C   UNL     1       8.012  -2.184  -0.702  1.00  0.00     0.166 A 
ATOM     11  C   UNL     1       8.015  -2.243  -2.078  1.00  0.00     0.165 A 
ATOM     12  O   UNL     1       8.411  -3.446  -0.279  1.00  0.00    -0.454 OA
ATOM     13  O   UNL     1       8.412  -3.527  -2.473  1.00  0.00    -0.454 OA
ATOM     14  C   UNL     1       9.094  -4.066  -1.359  1.00  0.00     0.468 C 
ENDBRANCH   5   6
ENDBRANCH   1   5
TORSDOF 3
ENDMDL
MODEL 5
REMARK VINA RESULT:      -6.9      1.124      1.628
REMARK SMILES CC(=O)CCc1ccc2c(c1)OCO2
REMARK SMILES IDX 4 1 2 2 1 3 3 4 5 5 6 6 7 7 11 8 8 9 10 10 9 11 12 12 14 13
REMARK SMILES IDX 13 14
REMARK H PARENT
REMARK Flexibility Score: inf
ROOT
ATOM      1  C   UNL     1       5.378   0.036   2.002  1.00  0.00     0.080 C 
ENDROOT
BRANCH   1   2
ATOM      2  C   UNL     1       4.471   1.195   1.916  1.00  0.00     0.130 C 
ATOM      3  C   UNL     1       4.743   2.150   0.766  1.00  0.00     0.087 C 
ATOM      4  O   UNL     1       3.554   1.466   2.638  1.00  0.00    -0.300 OA
ENDBRANCH   1   2
BRANCH   1   5
ATOM      5  C   UNL     1       6.813   0.315   1.783  1.00  0.00     0.043 C 
BRANCH   5   6
ATOM      6  C   UNL     1       7.361   0.010   0.459  1.00  0.00    -0.044 A 
ATOM      7  C   UNL     1       7.954   0.985  -0.344  1.00  0.00     0.008 A 
ATOM      8  C   UNL     1       7.327  -1.280  -0.020  1.00  0.00     0.054 A 
ATOM      9  C   UNL     1       8.471   0.623  -1.561  1.00  0.00     0.051 A 
ATOM     10  C   UNL     1       7.864  -1.623  -1.270  1.00  0.00     0.166 A 
ATOM     11  C   UNL     1       8.448  -0.660  -2.063  1.00  0.00     0.165 A 
ATOM     12  O   UNL     1       7.970  -2.806  -1.990  1.00  0.00    -0.454 OA
ATOM     13  O   UNL     1       8.899  -1.262  -3.244  1.00  0.00    -0.454 OA
ATOM     14  C   UNL     1       9.008  -2.638  -2.944  1.00  0.00     0.468 C 
ENDBRANCH   5   6
ENDBRANCH   1   5
TORSDOF 3
ENDMDL
