@<TRIPOS>MOLECULE
/home/cewinharhar/GITHUB/reincatalyze/data/processed/docking_pred/2023-May-31-1727_sub9_nm5_bs15_s42_ex16_mel10_mts10000_k50_ec075_g099_lra3e-4_lrc3e-3/72c4800fcc396c08a923544a0defa9269110c5e0_ligand_9.pdbqt
 14 15 0 0 0
SMALL
GASTEIGER

@<TRIPOS>ATOM
      1  C          5.0490    1.0370    1.5580 C.3     1  UNL1        0.0800
      2  C          6.0530    0.3170    2.3630 C.2     1  UNL1        0.1300
      3  C          6.1680   -1.1710    2.0810 C.3     1  UNL1        0.0870
      4  O          6.7800    0.7650    3.2040 O.2     1  UNL1       -0.3000
      5  C          5.5520    1.7160    0.3450 C.3     1  UNL1        0.0430
      6  C          6.6080    1.0390   -0.4120 C.2     1  UNL1       -0.0440
      7  C          7.9450    1.4360   -0.3410 C.2     1  UNL1        0.0080
      8  C          6.3030   -0.0430   -1.2050 C.2     1  UNL1        0.0540
      9  C          8.8850    0.7410   -1.0560 C.2     1  UNL1        0.0510
     10  C          7.2860   -0.7370   -1.9260 C.2     1  UNL1        0.1660
     11  C          8.6050   -0.3440   -1.8560 C.2     1  UNL1        0.1650
     12  O          7.2730   -1.8320   -2.7810 O.2     1  UNL1       -0.4540
     13  O          9.3710   -1.1970   -2.6620 O.2     1  UNL1       -0.4540
     14  C          8.5890   -2.3620   -2.8210 C.3     1  UNL1        0.4680
@<TRIPOS>BOND
     1    14    12    1
     2    14    13    1
     3    12    10    1
     4    13    11    1
     5    10    11    2
     6    10     8    1
     7    11     9    1
     8     8     6    2
     9     9     7    2
    10     6     7    1
    11     6     5    1
    12     5     1    1
    13     1     2    1
    14     3     2    1
    15     2     4    2
