@<TRIPOS>MOLECULE
/home/cewinharhar/GITHUB/reincatalyze/data/processed/docking_pred/2023-May-31-1727_sub9_nm5_bs15_s42_ex16_mel10_mts10000_k50_ec075_g099_lra3e-4_lrc3e-3/72c4800fcc396c08a923544a0defa9269110c5e0_ligand_9.pdbqt
 14 15 0 0 0
SMALL
GASTEIGER

@<TRIPOS>ATOM
      1  C          5.4070    2.1500    1.1670 C.3     1  UNL1        0.0800
      2  C          4.7110    1.1610    2.0100 C.2     1  UNL1        0.1300
      3  C          5.3880   -0.1940    2.1170 C.3     1  UNL1        0.0870
      4  O          3.6860    1.3020    2.6140 O.2     1  UNL1       -0.3000
      5  C          5.3950    1.8880   -0.2880 C.3     1  UNL1        0.0430
      6  C          6.5230    1.1360   -0.8430 C.2     1  UNL1       -0.0440
      7  C          7.8490    1.4590   -0.5490 C.2     1  UNL1        0.0080
      8  C          6.2940    0.0550   -1.6620 C.2     1  UNL1        0.0540
      9  C          8.8550    0.6940   -1.0830 C.2     1  UNL1        0.0510
     10  C          7.3420   -0.7100   -2.1940 C.2     1  UNL1        0.1660
     11  C          8.6510   -0.3920   -1.9050 C.2     1  UNL1        0.1650
     12  O          7.4100   -1.8230   -3.0240 O.2     1  UNL1       -0.4540
     13  O          9.4910   -1.3040   -2.5550 O.2     1  UNL1       -0.4540
     14  C          8.6800   -2.4280   -2.8310 C.3     1  UNL1        0.4680
@<TRIPOS>BOND
     1    12    14    1
     2    12    10    1
     3    14    13    1
     4    13    11    1
     5    10    11    2
     6    10     8    1
     7    11     9    1
     8     8     6    2
     9     9     7    2
    10     6     7    1
    11     6     5    1
    12     5     1    1
    13     1     2    1
    14     2     3    1
    15     2     4    2
