@<TRIPOS>MOLECULE
/home/cewinharhar/GITHUB/reincatalyze/data/processed/docking_pred/2023-May-31-1727_sub9_nm5_bs15_s42_ex16_mel10_mts10000_k50_ec075_g099_lra3e-4_lrc3e-3/72c4800fcc396c08a923544a0defa9269110c5e0_ligand_9.pdbqt
 14 15 0 0 0
SMALL
GASTEIGER

@<TRIPOS>ATOM
      1  C          5.5250    1.5450    0.3710 C.3     1  UNL1        0.0800
      2  C          5.1880    1.2770    1.7800 C.2     1  UNL1        0.1300
      3  C          6.3340    0.7670    2.6370 C.3     1  UNL1        0.0870
      4  O          4.1280    1.4130    2.3220 O.2     1  UNL1       -0.3000
      5  C          6.9420    1.3590   -0.0070 C.3     1  UNL1        0.0430
      6  C          7.2870    0.1350   -0.7360 C.2     1  UNL1       -0.0440
      7  C          7.2900    0.0760   -2.1300 C.2     1  UNL1        0.0080
      8  C          7.6490   -0.9980   -0.0460 C.2     1  UNL1        0.0540
      9  C          7.6500   -1.0950   -2.7460 C.2     1  UNL1        0.0510
     10  C          8.0120   -2.1840   -0.7020 C.2     1  UNL1        0.1660
     11  C          8.0150   -2.2430   -2.0780 C.2     1  UNL1        0.1650
     12  O          8.4110   -3.4460   -0.2790 O.2     1  UNL1       -0.4540
     13  O          8.4120   -3.5270   -2.4730 O.2     1  UNL1       -0.4540
     14  C          9.0940   -4.0660   -1.3590 C.3     1  UNL1        0.4680
@<TRIPOS>BOND
     1     9     7    1
     2     9    11    2
     3    13    11    1
     4    13    14    1
     5     7     6    2
     6    11    10    1
     7    14    12    1
     8     6     8    1
     9     6     5    1
    10    10    12    1
    11    10     8    2
    12     5     1    1
    13     1     2    1
    14     2     4    2
    15     2     3    1
