@<TRIPOS>MOLECULE
/home/cewinharhar/GITHUB/reincatalyze/data/processed/docking_pred/2023-May-31-1727_sub9_nm5_bs15_s42_ex16_mel10_mts10000_k50_ec075_g099_lra3e-4_lrc3e-3/73f03501d88ed0f960f592fe5f6124e73644cb01_ligand_9.pdbqt
 14 15 0 0 0
SMALL
GASTEIGER

@<TRIPOS>ATOM
      1  C          6.2560    1.1870    0.8770 C.3     1  UNL1        0.0800
      2  C          5.5570    0.4060    1.9130 C.2     1  UNL1        0.1300
      3  C          6.2870   -0.8370    2.3930 C.3     1  UNL1        0.0870
      4  O          4.4930    0.6350    2.4150 O.2     1  UNL1       -0.3000
      5  C          5.8890    0.8870   -0.5230 C.3     1  UNL1        0.0430
      6  C          6.8410    0.1000   -1.3120 C.2     1  UNL1       -0.0440
      7  C          7.6960    0.6860   -2.2460 C.2     1  UNL1        0.0080
      8  C          6.9320   -1.2600   -1.1240 C.2     1  UNL1        0.0540
      9  C          8.5810   -0.1080   -2.9290 C.2     1  UNL1        0.0510
     10  C          7.8480   -2.0490   -1.8370 C.2     1  UNL1        0.1660
     11  C          8.6920   -1.4710   -2.7600 C.2     1  UNL1        0.1650
     12  O          8.1550   -3.4040   -1.8560 O.2     1  UNL1       -0.4540
     13  O          9.4950   -2.4700   -3.3230 O.2     1  UNL1       -0.4540
     14  C          9.4580   -3.5420   -2.4040 C.3     1  UNL1        0.4680
@<TRIPOS>BOND
     1    13    11    1
     2    13    14    1
     3     9    11    2
     4     9     7    1
     5    11    10    1
     6    14    12    1
     7     7     6    2
     8    12    10    1
     9    10     8    2
    10     6     8    1
    11     6     5    1
    12     5     1    1
    13     1     2    1
    14     2     3    1
    15     2     4    2
