MODEL 1
REMARK VINA RESULT:      -7.6      0.000      0.000
REMARK SMILES CC(=O)CCc1ccc2c(c1)OCO2
REMARK SMILES IDX 4 1 2 2 1 3 3 4 5 5 6 6 7 7 11 8 8 9 10 10 9 11 12 12 14 13
REMARK SMILES IDX 13 14
REMARK H PARENT
REMARK Flexibility Score: inf
ROOT
ATOM      1  C   UNL     1       5.564   1.893   1.240  1.00  0.00     0.080 C 
ENDROOT
BRANCH   1   2
ATOM      2  C   UNL     1       5.013   0.754   1.996  1.00  0.00     0.130 C 
ATOM      3  C   UNL     1       5.936  -0.446   2.129  1.00  0.00     0.087 C 
ATOM      4  O   UNL     1       3.935   0.666   2.511  1.00  0.00    -0.300 OA
ENDBRANCH   1   2
BRANCH   1   5
ATOM      5  C   UNL     1       5.556   1.763  -0.232  1.00  0.00     0.043 C 
BRANCH   5   6
ATOM      6  C   UNL     1       6.652   1.007  -0.845  1.00  0.00    -0.044 A 
ATOM      7  C   UNL     1       7.989   1.379  -0.692  1.00  0.00     0.008 A 
ATOM      8  C   UNL     1       6.382  -0.126  -1.576  1.00  0.00     0.054 A 
ATOM      9  C   UNL     1       8.965   0.610  -1.270  1.00  0.00     0.051 A 
ATOM     10  C   UNL     1       7.401  -0.896  -2.157  1.00  0.00     0.166 A 
ATOM     11  C   UNL     1       8.720  -0.528  -2.007  1.00  0.00     0.165 A 
ATOM     12  O   UNL     1       7.427  -2.053  -2.925  1.00  0.00    -0.454 OA
ATOM     13  O   UNL     1       9.526  -1.457  -2.679  1.00  0.00    -0.454 OA
ATOM     14  C   UNL     1       8.727  -2.614  -2.815  1.00  0.00     0.468 C 
ENDBRANCH   5   6
ENDBRANCH   1   5
TORSDOF 3
ENDMDL
MODEL 2
REMARK VINA RESULT:      -7.1      1.793      2.242
REMARK SMILES CC(=O)CCc1ccc2c(c1)OCO2
REMARK SMILES IDX 4 1 2 2 1 3 3 4 5 5 6 6 7 7 11 8 8 9 10 10 9 11 12 12 14 13
REMARK SMILES IDX 13 14
REMARK H PARENT
REMARK Flexibility Score: inf
ROOT
ATOM      1  C   UNL     1       5.716   1.315  -0.319  1.00  0.00     0.080 C 
ENDROOT
BRANCH   1   2
ATOM      2  C   UNL     1       5.125   1.334   1.032  1.00  0.00     0.130 C 
ATOM      3  C   UNL     1       5.515   0.171   1.928  1.00  0.00     0.087 C 
ATOM      4  O   UNL     1       4.382   2.150   1.498  1.00  0.00    -0.300 OA
ENDBRANCH   1   2
BRANCH   1   5
ATOM      5  C   UNL     1       7.168   1.047  -0.391  1.00  0.00     0.043 C 
BRANCH   5   6
ATOM      6  C   UNL     1       7.585  -0.236  -0.963  1.00  0.00    -0.044 A 
ATOM      7  C   UNL     1       7.826  -0.398  -2.329  1.00  0.00     0.008 A 
ATOM      8  C   UNL     1       7.778  -1.325  -0.145  1.00  0.00     0.054 A 
ATOM      9  C   UNL     1       8.240  -1.620  -2.792  1.00  0.00     0.051 A 
ATOM     10  C   UNL     1       8.203  -2.565  -0.646  1.00  0.00     0.166 A 
ATOM     11  C   UNL     1       8.440  -2.725  -1.994  1.00  0.00     0.165 A 
ATOM     12  O   UNL     1       8.474  -3.802  -0.075  1.00  0.00    -0.454 OA
ATOM     13  O   UNL     1       8.850  -4.044  -2.225  1.00  0.00    -0.454 OA
ATOM     14  C   UNL     1       9.308  -4.518  -0.976  1.00  0.00     0.468 C 
ENDBRANCH   5   6
ENDBRANCH   1   5
TORSDOF 3
ENDMDL
MODEL 3
REMARK VINA RESULT:      -7.0      1.148      1.254
REMARK SMILES CC(=O)CCc1ccc2c(c1)OCO2
REMARK SMILES IDX 4 1 2 2 1 3 3 4 5 5 6 6 7 7 11 8 8 9 10 10 9 11 12 12 14 13
REMARK SMILES IDX 13 14
REMARK H PARENT
REMARK Flexibility Score: inf
ROOT
ATOM      1  C   UNL     1       6.256   1.187   0.877  1.00  0.00     0.080 C 
ENDROOT
BRANCH   1   2
ATOM      2  C   UNL     1       5.557   0.406   1.913  1.00  0.00     0.130 C 
ATOM      3  C   UNL     1       6.287  -0.837   2.393  1.00  0.00     0.087 C 
ATOM      4  O   UNL     1       4.493   0.635   2.415  1.00  0.00    -0.300 OA
ENDBRANCH   1   2
BRANCH   1   5
ATOM      5  C   UNL     1       5.889   0.887  -0.523  1.00  0.00     0.043 C 
BRANCH   5   6
ATOM      6  C   UNL     1       6.841   0.100  -1.312  1.00  0.00    -0.044 A 
ATOM      7  C   UNL     1       7.696   0.686  -2.246  1.00  0.00     0.008 A 
ATOM      8  C   UNL     1       6.932  -1.260  -1.124  1.00  0.00     0.054 A 
ATOM      9  C   UNL     1       8.581  -0.108  -2.929  1.00  0.00     0.051 A 
ATOM     10  C   UNL     1       7.848  -2.049  -1.837  1.00  0.00     0.166 A 
ATOM     11  C   UNL     1       8.692  -1.471  -2.760  1.00  0.00     0.165 A 
ATOM     12  O   UNL     1       8.155  -3.404  -1.856  1.00  0.00    -0.454 OA
ATOM     13  O   UNL     1       9.495  -2.470  -3.323  1.00  0.00    -0.454 OA
ATOM     14  C   UNL     1       9.458  -3.542  -2.404  1.00  0.00     0.468 C 
ENDBRANCH   5   6
ENDBRANCH   1   5
TORSDOF 3
ENDMDL
MODEL 4
REMARK VINA RESULT:      -6.9      1.781      2.422
REMARK SMILES CC(=O)CCc1ccc2c(c1)OCO2
REMARK SMILES IDX 4 1 2 2 1 3 3 4 5 5 6 6 7 7 11 8 8 9 10 10 9 11 12 12 14 13
REMARK SMILES IDX 13 14
REMARK H PARENT
REMARK Flexibility Score: inf
ROOT
ATOM      1  C   UNL     1       6.835   1.452   1.000  1.00  0.00     0.080 C 
ENDROOT
BRANCH   1   2
ATOM      2  C   UNL     1       5.395   1.731   0.855  1.00  0.00     0.130 C 
ATOM      3  C   UNL     1       4.951   2.147  -0.537  1.00  0.00     0.087 C 
ATOM      4  O   UNL     1       4.545   1.668   1.697  1.00  0.00    -0.300 OA
ENDBRANCH   1   2
BRANCH   1   5
ATOM      5  C   UNL     1       7.611   1.364  -0.255  1.00  0.00     0.043 C 
BRANCH   5   6
ATOM      6  C   UNL     1       7.805   0.031  -0.831  1.00  0.00    -0.044 A 
ATOM      7  C   UNL     1       7.830  -0.188  -2.210  1.00  0.00     0.008 A 
ATOM      8  C   UNL     1       7.998  -1.054  -0.007  1.00  0.00     0.054 A 
ATOM      9  C   UNL     1       8.043  -1.458  -2.679  1.00  0.00     0.051 A 
ATOM     10  C   UNL     1       8.214  -2.344  -0.516  1.00  0.00     0.166 A 
ATOM     11  C   UNL     1       8.238  -2.559  -1.876  1.00  0.00     0.165 A 
ATOM     12  O   UNL     1       8.433  -3.590   0.058  1.00  0.00    -0.454 OA
ATOM     13  O   UNL     1       8.469  -3.921  -2.112  1.00  0.00    -0.454 OA
ATOM     14  C   UNL     1       9.049  -4.413  -0.922  1.00  0.00     0.468 C 
ENDBRANCH   5   6
ENDBRANCH   1   5
TORSDOF 3
ENDMDL
MODEL 5
REMARK VINA RESULT:      -6.8      1.161      1.643
REMARK SMILES CC(=O)CCc1ccc2c(c1)OCO2
REMARK SMILES IDX 4 1 2 2 1 3 3 4 5 5 6 6 7 7 11 8 8 9 10 10 9 11 12 12 14 13
REMARK SMILES IDX 13 14
REMARK H PARENT
REMARK Flexibility Score: inf
ROOT
ATOM      1  C   UNL     1       5.382  -0.035   1.960  1.00  0.00     0.080 C 
ENDROOT
BRANCH   1   2
ATOM      2  C   UNL     1       4.431   1.088   1.870  1.00  0.00     0.130 C 
ATOM      3  C   UNL     1       4.755   2.132   0.815  1.00  0.00     0.087 C 
ATOM      4  O   UNL     1       3.444   1.270   2.525  1.00  0.00    -0.300 OA
ENDBRANCH   1   2
BRANCH   1   5
ATOM      5  C   UNL     1       6.799   0.290   1.694  1.00  0.00     0.043 C 
BRANCH   5   6
ATOM      6  C   UNL     1       7.331  -0.060   0.374  1.00  0.00    -0.044 A 
ATOM      7  C   UNL     1       7.747   0.908  -0.541  1.00  0.00     0.008 A 
ATOM      8  C   UNL     1       7.461  -1.381   0.012  1.00  0.00     0.054 A 
ATOM      9  C   UNL     1       8.260   0.508  -1.748  1.00  0.00     0.051 A 
ATOM     10  C   UNL     1       7.991  -1.763  -1.230  1.00  0.00     0.166 A 
ATOM     11  C   UNL     1       8.400  -0.807  -2.133  1.00  0.00     0.165 A 
ATOM     12  O   UNL     1       8.234  -2.982  -1.849  1.00  0.00    -0.454 OA
ATOM     13  O   UNL     1       8.883  -1.449  -3.280  1.00  0.00    -0.454 OA
ATOM     14  C   UNL     1       9.199  -2.763  -2.868  1.00  0.00     0.468 C 
ENDBRANCH   5   6
ENDBRANCH   1   5
TORSDOF 3
ENDMDL
