@<TRIPOS>MOLECULE
/home/cewinharhar/GITHUB/reincatalyze/data/processed/docking_pred/2023-May-31-1727_sub9_nm5_bs15_s42_ex16_mel10_mts10000_k50_ec075_g099_lra3e-4_lrc3e-3/73f03501d88ed0f960f592fe5f6124e73644cb01_ligand_9.pdbqt
 14 15 0 0 0
SMALL
GASTEIGER

@<TRIPOS>ATOM
      1  C          6.8350    1.4520    1.0000 C.3     1  UNL1        0.0800
      2  C          5.3950    1.7310    0.8550 C.2     1  UNL1        0.1300
      3  C          4.9510    2.1470   -0.5370 C.3     1  UNL1        0.0870
      4  O          4.5450    1.6680    1.6970 O.2     1  UNL1       -0.3000
      5  C          7.6110    1.3640   -0.2550 C.3     1  UNL1        0.0430
      6  C          7.8050    0.0310   -0.8310 C.2     1  UNL1       -0.0440
      7  C          7.8300   -0.1880   -2.2100 C.2     1  UNL1        0.0080
      8  C          7.9980   -1.0540   -0.0070 C.2     1  UNL1        0.0540
      9  C          8.0430   -1.4580   -2.6790 C.2     1  UNL1        0.0510
     10  C          8.2140   -2.3440   -0.5160 C.2     1  UNL1        0.1660
     11  C          8.2380   -2.5590   -1.8760 C.2     1  UNL1        0.1650
     12  O          8.4330   -3.5900    0.0580 O.2     1  UNL1       -0.4540
     13  O          8.4690   -3.9210   -2.1120 O.2     1  UNL1       -0.4540
     14  C          9.0490   -4.4130   -0.9220 C.3     1  UNL1        0.4680
@<TRIPOS>BOND
     1     9     7    1
     2     9    11    2
     3     7     6    2
     4    13    11    1
     5    13    14    1
     6    11    10    1
     7    14    12    1
     8     6     5    1
     9     6     8    1
    10     3     2    1
    11    10     8    2
    12    10    12    1
    13     5     1    1
    14     2     1    1
    15     2     4    2
