@<TRIPOS>MOLECULE
/home/cewinharhar/GITHUB/reincatalyze/data/processed/docking_pred/2023-May-31-1727_sub9_nm5_bs15_s42_ex16_mel10_mts10000_k50_ec075_g099_lra3e-4_lrc3e-3/7473f82790d6809f011fa27bf7bcba9a4b9bdb46_ligand_9.pdbqt
 14 15 0 0 0
SMALL
GASTEIGER

@<TRIPOS>ATOM
      1  C          5.5490    1.8830    1.2290 C.3     1  UNL1        0.0800
      2  C          4.9820    0.7500    1.9820 C.2     1  UNL1        0.1300
      3  C          5.8820   -0.4680    2.0990 C.3     1  UNL1        0.0870
      4  O          3.9070    0.6800    2.5070 O.2     1  UNL1       -0.3000
      5  C          5.5460    1.7530   -0.2440 C.3     1  UNL1        0.0430
      6  C          6.6440    0.9970   -0.8520 C.2     1  UNL1       -0.0440
      7  C          7.9810    1.3590   -0.6790 C.2     1  UNL1        0.0080
      8  C          6.3760   -0.1260   -1.5990 C.2     1  UNL1        0.0540
      9  C          8.9600    0.5900   -1.2540 C.2     1  UNL1        0.0510
     10  C          7.3980   -0.8950   -2.1770 C.2     1  UNL1        0.1660
     11  C          8.7170   -0.5380   -2.0070 C.2     1  UNL1        0.1650
     12  O          7.4250   -2.0440   -2.9580 O.2     1  UNL1       -0.4540
     13  O          9.5250   -1.4640   -2.6790 O.2     1  UNL1       -0.4540
     14  C          8.7200   -2.6140   -2.8390 C.3     1  UNL1        0.4680
@<TRIPOS>BOND
     1    12    14    1
     2    12    10    1
     3    14    13    1
     4    13    11    1
     5    10    11    2
     6    10     8    1
     7    11     9    1
     8     8     6    2
     9     9     7    2
    10     6     7    1
    11     6     5    1
    12     5     1    1
    13     1     2    1
    14     2     3    1
    15     2     4    2
