@<TRIPOS>MOLECULE
/home/cewinharhar/GITHUB/reincatalyze/data/processed/docking_pred/2023-May-31-1727_sub9_nm5_bs15_s42_ex16_mel10_mts10000_k50_ec075_g099_lra3e-4_lrc3e-3/7473f82790d6809f011fa27bf7bcba9a4b9bdb46_ligand_9.pdbqt
 14 15 0 0 0
SMALL
GASTEIGER

@<TRIPOS>ATOM
      1  C          5.7320    1.2910   -0.2830 C.3     1  UNL1        0.0800
      2  C          5.1120    1.3280    1.0540 C.2     1  UNL1        0.1300
      3  C          5.5390    0.2170    1.9990 C.3     1  UNL1        0.0870
      4  O          4.3220    2.1230    1.4760 O.2     1  UNL1       -0.3000
      5  C          7.1790    0.9920   -0.3220 C.3     1  UNL1        0.0430
      6  C          7.5840   -0.2880   -0.9100 C.2     1  UNL1       -0.0440
      7  C          7.7840   -0.4460   -2.2830 C.2     1  UNL1        0.0080
      8  C          7.8070   -1.3780   -0.1010 C.2     1  UNL1        0.0540
      9  C          8.1890   -1.6650   -2.7610 C.2     1  UNL1        0.0510
     10  C          8.2210   -2.6150   -0.6180 C.2     1  UNL1        0.1660
     11  C          8.4180   -2.7710   -1.9720 C.2     1  UNL1        0.1650
     12  O          8.5140   -3.8520   -0.0580 O.2     1  UNL1       -0.4540
     13  O          8.8250   -4.0880   -2.2190 O.2     1  UNL1       -0.4540
     14  C          9.3230   -4.5620   -0.9850 C.3     1  UNL1        0.4680
@<TRIPOS>BOND
     1     9     7    1
     2     9    11    2
     3     7     6    2
     4    13    11    1
     5    13    14    1
     6    11    10    1
     7    14    12    1
     8     6     5    1
     9     6     8    1
    10    10     8    2
    11    10    12    1
    12     5     1    1
    13     1     2    1
    14     2     4    2
    15     2     3    1
