@<TRIPOS>MOLECULE
/home/cewinharhar/GITHUB/reincatalyze/data/processed/docking_pred/2023-May-31-1727_sub9_nm5_bs15_s42_ex16_mel10_mts10000_k50_ec075_g099_lra3e-4_lrc3e-3/7473f82790d6809f011fa27bf7bcba9a4b9bdb46_ligand_9.pdbqt
 14 15 0 0 0
SMALL
GASTEIGER

@<TRIPOS>ATOM
      1  C          6.1920    1.2380    0.8680 C.3     1  UNL1        0.0800
      2  C          5.5370    0.4300    1.9130 C.2     1  UNL1        0.1300
      3  C          6.3280   -0.7750    2.3940 C.3     1  UNL1        0.0870
      4  O          4.4670    0.6120    2.4210 O.2     1  UNL1       -0.3000
      5  C          5.8500    0.8970   -0.5290 C.3     1  UNL1        0.0430
      6  C          6.8340    0.1240   -1.2900 C.2     1  UNL1       -0.0440
      7  C          7.7870    0.7330   -2.1090 C.2     1  UNL1        0.0080
      8  C          6.8590   -1.2480   -1.1910 C.2     1  UNL1        0.0540
      9  C          8.6960   -0.0500   -2.7710 C.2     1  UNL1        0.0510
     10  C          7.8010   -2.0260   -1.8810 C.2     1  UNL1        0.1660
     11  C          8.7410   -1.4240   -2.6890 C.2     1  UNL1        0.1650
     12  O          8.0580   -3.3890   -1.9690 O.2     1  UNL1       -0.4540
     13  O          9.5510   -2.4180   -3.2540 O.2     1  UNL1       -0.4540
     14  C          9.3970   -3.5460   -2.4180 C.3     1  UNL1        0.4680
@<TRIPOS>BOND
     1    13    11    1
     2    13    14    1
     3     9    11    2
     4     9     7    1
     5    11    10    1
     6    14    12    1
     7     7     6    2
     8    12    10    1
     9    10     8    2
    10     6     8    1
    11     6     5    1
    12     5     1    1
    13     1     2    1
    14     2     3    1
    15     2     4    2
