@<TRIPOS>MOLECULE
/home/cewinharhar/GITHUB/reincatalyze/data/processed/docking_pred/2023-May-31-1727_sub9_nm5_bs15_s42_ex16_mel10_mts10000_k50_ec075_g099_lra3e-4_lrc3e-3/7473f82790d6809f011fa27bf7bcba9a4b9bdb46_ligand_9.pdbqt
 14 15 0 0 0
SMALL
GASTEIGER

@<TRIPOS>ATOM
      1  C          5.3970   -0.0830    1.9320 C.3     1  UNL1        0.0800
      2  C          4.4590    1.0520    1.8660 C.2     1  UNL1        0.1300
      3  C          4.7850    2.1050    0.8210 C.3     1  UNL1        0.0870
      4  O          3.4810    1.2370    2.5330 O.2     1  UNL1       -0.3000
      5  C          6.8190    0.2320    1.6800 C.3     1  UNL1        0.0430
      6  C          7.3580   -0.1130    0.3610 C.2     1  UNL1       -0.0440
      7  C          7.7820    0.8580   -0.5470 C.2     1  UNL1        0.0080
      8  C          7.4870   -1.4330   -0.0060 C.2     1  UNL1        0.0540
      9  C          8.3020    0.4630   -1.7520 C.2     1  UNL1        0.0510
     10  C          8.0230   -1.8100   -1.2470 C.2     1  UNL1        0.1660
     11  C          8.4410   -0.8510   -2.1430 C.2     1  UNL1        0.1650
     12  O          8.2670   -3.0270   -1.8700 O.2     1  UNL1       -0.4540
     13  O          8.9300   -1.4890   -3.2900 O.2     1  UNL1       -0.4540
     14  C          9.2390   -2.8050   -2.8820 C.3     1  UNL1        0.4680
@<TRIPOS>BOND
     1    13    14    1
     2    13    11    1
     3    14    12    1
     4    11     9    2
     5    11    10    1
     6    12    10    1
     7     9     7    1
     8    10     8    2
     9     7     6    2
    10     8     6    1
    11     6     5    1
    12     3     2    1
    13     5     1    1
    14     2     1    1
    15     2     4    2
