MODEL 1
REMARK VINA RESULT:      -7.6      0.000      0.000
REMARK SMILES CC(=O)CCc1ccc2c(c1)OCO2
REMARK SMILES IDX 4 1 2 2 1 3 3 4 5 5 6 6 7 7 11 8 8 9 10 10 9 11 12 12 14 13
REMARK SMILES IDX 13 14
REMARK H PARENT
REMARK Flexibility Score: inf
ROOT
ATOM      1  C   UNL     1       5.549   1.883   1.229  1.00  0.00     0.080 C 
ENDROOT
BRANCH   1   2
ATOM      2  C   UNL     1       4.982   0.750   1.982  1.00  0.00     0.130 C 
ATOM      3  C   UNL     1       5.882  -0.468   2.099  1.00  0.00     0.087 C 
ATOM      4  O   UNL     1       3.907   0.680   2.507  1.00  0.00    -0.300 OA
ENDBRANCH   1   2
BRANCH   1   5
ATOM      5  C   UNL     1       5.546   1.753  -0.244  1.00  0.00     0.043 C 
BRANCH   5   6
ATOM      6  C   UNL     1       6.644   0.997  -0.852  1.00  0.00    -0.044 A 
ATOM      7  C   UNL     1       7.981   1.359  -0.679  1.00  0.00     0.008 A 
ATOM      8  C   UNL     1       6.376  -0.126  -1.599  1.00  0.00     0.054 A 
ATOM      9  C   UNL     1       8.960   0.590  -1.254  1.00  0.00     0.051 A 
ATOM     10  C   UNL     1       7.398  -0.895  -2.177  1.00  0.00     0.166 A 
ATOM     11  C   UNL     1       8.717  -0.538  -2.007  1.00  0.00     0.165 A 
ATOM     12  O   UNL     1       7.425  -2.044  -2.958  1.00  0.00    -0.454 OA
ATOM     13  O   UNL     1       9.525  -1.464  -2.679  1.00  0.00    -0.454 OA
ATOM     14  C   UNL     1       8.720  -2.614  -2.839  1.00  0.00     0.468 C 
ENDBRANCH   5   6
ENDBRANCH   1   5
TORSDOF 3
ENDMDL
MODEL 2
REMARK VINA RESULT:      -6.9      1.826      2.275
REMARK SMILES CC(=O)CCc1ccc2c(c1)OCO2
REMARK SMILES IDX 4 1 2 2 1 3 3 4 5 5 6 6 7 7 11 8 8 9 10 10 9 11 12 12 14 13
REMARK SMILES IDX 13 14
REMARK H PARENT
REMARK Flexibility Score: inf
ROOT
ATOM      1  C   UNL     1       5.732   1.291  -0.283  1.00  0.00     0.080 C 
ENDROOT
BRANCH   1   2
ATOM      2  C   UNL     1       5.112   1.328   1.054  1.00  0.00     0.130 C 
ATOM      3  C   UNL     1       5.539   0.217   1.999  1.00  0.00     0.087 C 
ATOM      4  O   UNL     1       4.322   2.123   1.476  1.00  0.00    -0.300 OA
ENDBRANCH   1   2
BRANCH   1   5
ATOM      5  C   UNL     1       7.179   0.992  -0.322  1.00  0.00     0.043 C 
BRANCH   5   6
ATOM      6  C   UNL     1       7.584  -0.288  -0.910  1.00  0.00    -0.044 A 
ATOM      7  C   UNL     1       7.784  -0.446  -2.283  1.00  0.00     0.008 A 
ATOM      8  C   UNL     1       7.807  -1.378  -0.101  1.00  0.00     0.054 A 
ATOM      9  C   UNL     1       8.189  -1.665  -2.761  1.00  0.00     0.051 A 
ATOM     10  C   UNL     1       8.221  -2.615  -0.618  1.00  0.00     0.166 A 
ATOM     11  C   UNL     1       8.418  -2.771  -1.972  1.00  0.00     0.165 A 
ATOM     12  O   UNL     1       8.514  -3.852  -0.058  1.00  0.00    -0.454 OA
ATOM     13  O   UNL     1       8.825  -4.088  -2.219  1.00  0.00    -0.454 OA
ATOM     14  C   UNL     1       9.323  -4.562  -0.985  1.00  0.00     0.468 C 
ENDBRANCH   5   6
ENDBRANCH   1   5
TORSDOF 3
ENDMDL
MODEL 3
REMARK VINA RESULT:      -6.9      1.095      1.183
REMARK SMILES CC(=O)CCc1ccc2c(c1)OCO2
REMARK SMILES IDX 4 1 2 2 1 3 3 4 5 5 6 6 7 7 11 8 8 9 10 10 9 11 12 12 14 13
REMARK SMILES IDX 13 14
REMARK H PARENT
REMARK Flexibility Score: inf
ROOT
ATOM      1  C   UNL     1       6.192   1.238   0.868  1.00  0.00     0.080 C 
ENDROOT
BRANCH   1   2
ATOM      2  C   UNL     1       5.537   0.430   1.913  1.00  0.00     0.130 C 
ATOM      3  C   UNL     1       6.328  -0.775   2.394  1.00  0.00     0.087 C 
ATOM      4  O   UNL     1       4.467   0.612   2.421  1.00  0.00    -0.300 OA
ENDBRANCH   1   2
BRANCH   1   5
ATOM      5  C   UNL     1       5.850   0.897  -0.529  1.00  0.00     0.043 C 
BRANCH   5   6
ATOM      6  C   UNL     1       6.834   0.124  -1.290  1.00  0.00    -0.044 A 
ATOM      7  C   UNL     1       7.787   0.733  -2.109  1.00  0.00     0.008 A 
ATOM      8  C   UNL     1       6.859  -1.248  -1.191  1.00  0.00     0.054 A 
ATOM      9  C   UNL     1       8.696  -0.050  -2.771  1.00  0.00     0.051 A 
ATOM     10  C   UNL     1       7.801  -2.026  -1.881  1.00  0.00     0.166 A 
ATOM     11  C   UNL     1       8.741  -1.424  -2.689  1.00  0.00     0.165 A 
ATOM     12  O   UNL     1       8.058  -3.389  -1.969  1.00  0.00    -0.454 OA
ATOM     13  O   UNL     1       9.551  -2.418  -3.254  1.00  0.00    -0.454 OA
ATOM     14  C   UNL     1       9.397  -3.546  -2.418  1.00  0.00     0.468 C 
ENDBRANCH   5   6
ENDBRANCH   1   5
TORSDOF 3
ENDMDL
MODEL 4
REMARK VINA RESULT:      -6.7      1.849      2.378
REMARK SMILES CC(=O)CCc1ccc2c(c1)OCO2
REMARK SMILES IDX 4 1 2 2 1 3 3 4 5 5 6 6 7 7 11 8 8 9 10 10 9 11 12 12 14 13
REMARK SMILES IDX 13 14
REMARK H PARENT
REMARK Flexibility Score: inf
ROOT
ATOM      1  C   UNL     1       6.932   1.235   1.216  1.00  0.00     0.080 C 
ENDROOT
BRANCH   1   2
ATOM      2  C   UNL     1       5.468   1.231   1.386  1.00  0.00     0.130 C 
ATOM      3  C   UNL     1       4.702   2.149   0.448  1.00  0.00     0.087 C 
ATOM      4  O   UNL     1       4.820   0.595   2.168  1.00  0.00    -0.300 OA
ENDBRANCH   1   2
BRANCH   1   5
ATOM      5  C   UNL     1       7.427   1.202  -0.177  1.00  0.00     0.043 C 
BRANCH   5   6
ATOM      6  C   UNL     1       7.672  -0.115  -0.770  1.00  0.00    -0.044 A 
ATOM      7  C   UNL     1       7.696  -0.316  -2.152  1.00  0.00     0.008 A 
ATOM      8  C   UNL     1       7.917  -1.200   0.039  1.00  0.00     0.054 A 
ATOM      9  C   UNL     1       7.958  -1.570  -2.638  1.00  0.00     0.051 A 
ATOM     10  C   UNL     1       8.184  -2.473  -0.487  1.00  0.00     0.166 A 
ATOM     11  C   UNL     1       8.206  -2.672  -1.850  1.00  0.00     0.165 A 
ATOM     12  O   UNL     1       8.459  -3.716   0.070  1.00  0.00    -0.454 OA
ATOM     13  O   UNL     1       8.493  -4.019  -2.104  1.00  0.00    -0.454 OA
ATOM     14  C   UNL     1       9.102  -4.500  -0.924  1.00  0.00     0.468 C 
ENDBRANCH   5   6
ENDBRANCH   1   5
TORSDOF 3
ENDMDL
MODEL 5
REMARK VINA RESULT:      -6.7      1.166      1.652
REMARK SMILES CC(=O)CCc1ccc2c(c1)OCO2
REMARK SMILES IDX 4 1 2 2 1 3 3 4 5 5 6 6 7 7 11 8 8 9 10 10 9 11 12 12 14 13
REMARK SMILES IDX 13 14
REMARK H PARENT
REMARK Flexibility Score: inf
ROOT
ATOM      1  C   UNL     1       5.397  -0.083   1.932  1.00  0.00     0.080 C 
ENDROOT
BRANCH   1   2
ATOM      2  C   UNL     1       4.459   1.052   1.866  1.00  0.00     0.130 C 
ATOM      3  C   UNL     1       4.785   2.105   0.821  1.00  0.00     0.087 C 
ATOM      4  O   UNL     1       3.481   1.237   2.533  1.00  0.00    -0.300 OA
ENDBRANCH   1   2
BRANCH   1   5
ATOM      5  C   UNL     1       6.819   0.232   1.680  1.00  0.00     0.043 C 
BRANCH   5   6
ATOM      6  C   UNL     1       7.358  -0.113   0.361  1.00  0.00    -0.044 A 
ATOM      7  C   UNL     1       7.782   0.858  -0.547  1.00  0.00     0.008 A 
ATOM      8  C   UNL     1       7.487  -1.433  -0.006  1.00  0.00     0.054 A 
ATOM      9  C   UNL     1       8.302   0.463  -1.752  1.00  0.00     0.051 A 
ATOM     10  C   UNL     1       8.023  -1.810  -1.247  1.00  0.00     0.166 A 
ATOM     11  C   UNL     1       8.441  -0.851  -2.143  1.00  0.00     0.165 A 
ATOM     12  O   UNL     1       8.267  -3.027  -1.870  1.00  0.00    -0.454 OA
ATOM     13  O   UNL     1       8.930  -1.489  -3.290  1.00  0.00    -0.454 OA
ATOM     14  C   UNL     1       9.239  -2.805  -2.882  1.00  0.00     0.468 C 
ENDBRANCH   5   6
ENDBRANCH   1   5
TORSDOF 3
ENDMDL
