@<TRIPOS>MOLECULE
/home/cewinharhar/GITHUB/reincatalyze/data/processed/docking_pred/2023-May-31-1727_sub9_nm5_bs15_s42_ex16_mel10_mts10000_k50_ec075_g099_lra3e-4_lrc3e-3/74779f0acdc33af5e799d1a9fedcf93a1153eaaf_ligand_9.pdbqt
 14 15 0 0 0
SMALL
GASTEIGER

@<TRIPOS>ATOM
      1  C          5.7490    0.1470    1.9690 C.3     1  UNL1        0.0800
      2  C          4.7220    1.1660    1.6910 C.2     1  UNL1        0.1300
      3  C          5.0360    2.1110    0.5430 C.3     1  UNL1        0.0870
      4  O          3.6800    1.3340    2.2590 O.2     1  UNL1       -0.3000
      5  C          7.0440    0.3210    1.2770 C.3     1  UNL1        0.0430
      6  C          7.4100   -0.6850    0.2760 C.2     1  UNL1       -0.0440
      7  C          7.3470   -0.4280   -1.0950 C.2     1  UNL1        0.0080
      8  C          7.8600   -1.9210    0.6760 C.2     1  UNL1        0.0540
      9  C          7.7300   -1.4070   -1.9740 C.2     1  UNL1        0.0510
     10  C          8.2470   -2.9050   -0.2470 C.2     1  UNL1        0.1660
     11  C          8.1840   -2.6520   -1.6000 C.2     1  UNL1        0.1650
     12  O          8.7270   -4.2050   -0.1380 O.2     1  UNL1       -0.4540
     13  O          8.6220   -3.7890   -2.2910 O.2     1  UNL1       -0.4540
     14  C          9.3840   -4.5240   -1.3560 C.3     1  UNL1        0.4680
@<TRIPOS>BOND
     1    13    11    1
     2    13    14    1
     3     9    11    2
     4     9     7    1
     5    11    10    1
     6    14    12    1
     7     7     6    2
     8    10    12    1
     9    10     8    2
    10     6     8    1
    11     6     5    1
    12     3     2    1
    13     5     1    1
    14     2     1    1
    15     2     4    2
