@<TRIPOS>MOLECULE
/home/cewinharhar/GITHUB/reincatalyze/data/processed/docking_pred/2023-May-31-1727_sub9_nm5_bs15_s42_ex16_mel10_mts10000_k50_ec075_g099_lra3e-4_lrc3e-3/74779f0acdc33af5e799d1a9fedcf93a1153eaaf_ligand_9.pdbqt
 14 15 0 0 0
SMALL
GASTEIGER

@<TRIPOS>ATOM
      1  C          6.2120    1.1850    0.8950 C.3     1  UNL1        0.0800
      2  C          5.5540    0.3490    1.9150 C.2     1  UNL1        0.1300
      3  C          6.3440   -0.8670    2.3680 C.3     1  UNL1        0.0870
      4  O          4.4810    0.5160    2.4220 O.2     1  UNL1       -0.3000
      5  C          5.8920    0.8690   -0.5120 C.3     1  UNL1        0.0430
      6  C          6.8960    0.1230   -1.2770 C.2     1  UNL1       -0.0440
      7  C          7.8950    0.7610   -2.0140 C.2     1  UNL1        0.0080
      8  C          6.8910   -1.2530   -1.2610 C.2     1  UNL1        0.0540
      9  C          8.8180   -0.0010   -2.6830 C.2     1  UNL1        0.0510
     10  C          7.8480   -2.0070   -1.9550 C.2     1  UNL1        0.1660
     11  C          8.8340   -1.3780   -2.6830 C.2     1  UNL1        0.1650
     12  O          8.0840   -3.3670   -2.1160 O.2     1  UNL1       -0.4540
     13  O          9.6500   -2.3520   -3.2720 O.2     1  UNL1       -0.4540
     14  C          9.4380   -3.5250   -2.5140 C.3     1  UNL1        0.4680
@<TRIPOS>BOND
     1    13    11    1
     2    13    14    1
     3     9    11    2
     4     9     7    1
     5    11    10    1
     6    14    12    1
     7    12    10    1
     8     7     6    2
     9    10     8    2
    10     6     8    1
    11     6     5    1
    12     5     1    1
    13     1     2    1
    14     2     3    1
    15     2     4    2
