MODEL 1
REMARK VINA RESULT:      -7.6      0.000      0.000
REMARK SMILES CC(=O)CCc1ccc2c(c1)OCO2
REMARK SMILES IDX 4 1 2 2 1 3 3 4 5 5 6 6 7 7 11 8 8 9 10 10 9 11 12 12 14 13
REMARK SMILES IDX 13 14
REMARK H PARENT
REMARK Flexibility Score: inf
ROOT
ATOM      1  C   UNL     1       5.530   1.883   1.221  1.00  0.00     0.080 C 
ENDROOT
BRANCH   1   2
ATOM      2  C   UNL     1       4.971   0.745   1.972  1.00  0.00     0.130 C 
ATOM      3  C   UNL     1       5.873  -0.473   2.074  1.00  0.00     0.087 C 
ATOM      4  O   UNL     1       3.900   0.671   2.505  1.00  0.00    -0.300 OA
ENDBRANCH   1   2
BRANCH   1   5
ATOM      5  C   UNL     1       5.533   1.754  -0.251  1.00  0.00     0.043 C 
BRANCH   5   6
ATOM      6  C   UNL     1       6.634   0.997  -0.855  1.00  0.00    -0.044 A 
ATOM      7  C   UNL     1       7.970   1.361  -0.681  1.00  0.00     0.008 A 
ATOM      8  C   UNL     1       6.368  -0.128  -1.601  1.00  0.00     0.054 A 
ATOM      9  C   UNL     1       8.950   0.591  -1.252  1.00  0.00     0.051 A 
ATOM     10  C   UNL     1       7.392  -0.898  -2.175  1.00  0.00     0.166 A 
ATOM     11  C   UNL     1       8.710  -0.539  -2.003  1.00  0.00     0.165 A 
ATOM     12  O   UNL     1       7.422  -2.048  -2.953  1.00  0.00    -0.454 OA
ATOM     13  O   UNL     1       9.520  -1.466  -2.672  1.00  0.00    -0.454 OA
ATOM     14  C   UNL     1       8.717  -2.617  -2.829  1.00  0.00     0.468 C 
ENDBRANCH   5   6
ENDBRANCH   1   5
TORSDOF 3
ENDMDL
MODEL 2
REMARK VINA RESULT:      -6.9      1.063      1.157
REMARK SMILES CC(=O)CCc1ccc2c(c1)OCO2
REMARK SMILES IDX 4 1 2 2 1 3 3 4 5 5 6 6 7 7 11 8 8 9 10 10 9 11 12 12 14 13
REMARK SMILES IDX 13 14
REMARK H PARENT
REMARK Flexibility Score: inf
ROOT
ATOM      1  C   UNL     1       6.212   1.185   0.895  1.00  0.00     0.080 C 
ENDROOT
BRANCH   1   2
ATOM      2  C   UNL     1       5.554   0.349   1.915  1.00  0.00     0.130 C 
ATOM      3  C   UNL     1       6.344  -0.867   2.368  1.00  0.00     0.087 C 
ATOM      4  O   UNL     1       4.481   0.516   2.422  1.00  0.00    -0.300 OA
ENDBRANCH   1   2
BRANCH   1   5
ATOM      5  C   UNL     1       5.892   0.869  -0.512  1.00  0.00     0.043 C 
BRANCH   5   6
ATOM      6  C   UNL     1       6.896   0.123  -1.277  1.00  0.00    -0.044 A 
ATOM      7  C   UNL     1       7.895   0.761  -2.014  1.00  0.00     0.008 A 
ATOM      8  C   UNL     1       6.891  -1.253  -1.261  1.00  0.00     0.054 A 
ATOM      9  C   UNL     1       8.818  -0.001  -2.683  1.00  0.00     0.051 A 
ATOM     10  C   UNL     1       7.848  -2.007  -1.955  1.00  0.00     0.166 A 
ATOM     11  C   UNL     1       8.834  -1.378  -2.683  1.00  0.00     0.165 A 
ATOM     12  O   UNL     1       8.084  -3.367  -2.116  1.00  0.00    -0.454 OA
ATOM     13  O   UNL     1       9.650  -2.352  -3.272  1.00  0.00    -0.454 OA
ATOM     14  C   UNL     1       9.438  -3.525  -2.514  1.00  0.00     0.468 C 
ENDBRANCH   5   6
ENDBRANCH   1   5
TORSDOF 3
ENDMDL
MODEL 3
REMARK VINA RESULT:      -6.9      1.853      2.344
REMARK SMILES CC(=O)CCc1ccc2c(c1)OCO2
REMARK SMILES IDX 4 1 2 2 1 3 3 4 5 5 6 6 7 7 11 8 8 9 10 10 9 11 12 12 14 13
REMARK SMILES IDX 13 14
REMARK H PARENT
REMARK Flexibility Score: inf
ROOT
ATOM      1  C   UNL     1       5.917   1.317  -0.283  1.00  0.00     0.080 C 
ENDROOT
BRANCH   1   2
ATOM      2  C   UNL     1       5.288   1.303   1.050  1.00  0.00     0.130 C 
ATOM      3  C   UNL     1       5.551   0.058   1.880  1.00  0.00     0.087 C 
ATOM      4  O   UNL     1       4.601   2.150   1.548  1.00  0.00    -0.300 OA
ENDBRANCH   1   2
BRANCH   1   5
ATOM      5  C   UNL     1       7.352   0.966  -0.329  1.00  0.00     0.043 C 
BRANCH   5   6
ATOM      6  C   UNL     1       7.706  -0.332  -0.911  1.00  0.00    -0.044 A 
ATOM      7  C   UNL     1       7.848  -0.517  -2.287  1.00  0.00     0.008 A 
ATOM      8  C   UNL     1       7.937  -1.413  -0.092  1.00  0.00     0.054 A 
ATOM      9  C   UNL     1       8.208  -1.753  -2.759  1.00  0.00     0.051 A 
ATOM     10  C   UNL     1       8.305  -2.667  -0.603  1.00  0.00     0.166 A 
ATOM     11  C   UNL     1       8.444  -2.850  -1.961  1.00  0.00     0.165 A 
ATOM     12  O   UNL     1       8.594  -3.902  -0.034  1.00  0.00    -0.454 OA
ATOM     13  O   UNL     1       8.814  -4.180  -2.201  1.00  0.00    -0.454 OA
ATOM     14  C   UNL     1       9.350  -4.644  -0.979  1.00  0.00     0.468 C 
ENDBRANCH   5   6
ENDBRANCH   1   5
TORSDOF 3
ENDMDL
MODEL 4
REMARK VINA RESULT:      -6.7      1.155      1.639
REMARK SMILES CC(=O)CCc1ccc2c(c1)OCO2
REMARK SMILES IDX 4 1 2 2 1 3 3 4 5 5 6 6 7 7 11 8 8 9 10 10 9 11 12 12 14 13
REMARK SMILES IDX 13 14
REMARK H PARENT
REMARK Flexibility Score: inf
ROOT
ATOM      1  C   UNL     1       5.381  -0.048   1.960  1.00  0.00     0.080 C 
ENDROOT
BRANCH   1   2
ATOM      2  C   UNL     1       4.425   1.071   1.866  1.00  0.00     0.130 C 
ATOM      3  C   UNL     1       4.745   2.112   0.807  1.00  0.00     0.087 C 
ATOM      4  O   UNL     1       3.437   1.251   2.520  1.00  0.00    -0.300 OA
ENDBRANCH   1   2
BRANCH   1   5
ATOM      5  C   UNL     1       6.797   0.282   1.699  1.00  0.00     0.043 C 
BRANCH   5   6
ATOM      6  C   UNL     1       7.332  -0.057   0.377  1.00  0.00    -0.044 A 
ATOM      7  C   UNL     1       7.756   0.918  -0.527  1.00  0.00     0.008 A 
ATOM      8  C   UNL     1       7.457  -1.375   0.003  1.00  0.00     0.054 A 
ATOM      9  C   UNL     1       8.272   0.527  -1.736  1.00  0.00     0.051 A 
ATOM     10  C   UNL     1       7.989  -1.747  -1.241  1.00  0.00     0.166 A 
ATOM     11  C   UNL     1       8.406  -0.785  -2.134  1.00  0.00     0.165 A 
ATOM     12  O   UNL     1       8.228  -2.962  -1.871  1.00  0.00    -0.454 OA
ATOM     13  O   UNL     1       8.890  -1.419  -3.285  1.00  0.00    -0.454 OA
ATOM     14  C   UNL     1       9.198  -2.738  -2.884  1.00  0.00     0.468 C 
ENDBRANCH   5   6
ENDBRANCH   1   5
TORSDOF 3
ENDMDL
MODEL 5
REMARK VINA RESULT:      -6.7      1.952      2.482
REMARK SMILES CC(=O)CCc1ccc2c(c1)OCO2
REMARK SMILES IDX 4 1 2 2 1 3 3 4 5 5 6 6 7 7 11 8 8 9 10 10 9 11 12 12 14 13
REMARK SMILES IDX 13 14
REMARK H PARENT
REMARK Flexibility Score: inf
ROOT
ATOM      1  C   UNL     1       5.749   0.147   1.969  1.00  0.00     0.080 C 
ENDROOT
BRANCH   1   2
ATOM      2  C   UNL     1       4.722   1.166   1.691  1.00  0.00     0.130 C 
ATOM      3  C   UNL     1       5.036   2.111   0.543  1.00  0.00     0.087 C 
ATOM      4  O   UNL     1       3.680   1.334   2.259  1.00  0.00    -0.300 OA
ENDBRANCH   1   2
BRANCH   1   5
ATOM      5  C   UNL     1       7.044   0.321   1.277  1.00  0.00     0.043 C 
BRANCH   5   6
ATOM      6  C   UNL     1       7.410  -0.685   0.276  1.00  0.00    -0.044 A 
ATOM      7  C   UNL     1       7.347  -0.428  -1.095  1.00  0.00     0.008 A 
ATOM      8  C   UNL     1       7.860  -1.921   0.676  1.00  0.00     0.054 A 
ATOM      9  C   UNL     1       7.730  -1.407  -1.974  1.00  0.00     0.051 A 
ATOM     10  C   UNL     1       8.247  -2.905  -0.247  1.00  0.00     0.166 A 
ATOM     11  C   UNL     1       8.184  -2.652  -1.600  1.00  0.00     0.165 A 
ATOM     12  O   UNL     1       8.727  -4.205  -0.138  1.00  0.00    -0.454 OA
ATOM     13  O   UNL     1       8.622  -3.789  -2.291  1.00  0.00    -0.454 OA
ATOM     14  C   UNL     1       9.384  -4.524  -1.356  1.00  0.00     0.468 C 
ENDBRANCH   5   6
ENDBRANCH   1   5
TORSDOF 3
ENDMDL
