@<TRIPOS>MOLECULE
/home/cewinharhar/GITHUB/reincatalyze/data/processed/docking_pred/2023-May-31-1727_sub9_nm5_bs15_s42_ex16_mel10_mts10000_k50_ec075_g099_lra3e-4_lrc3e-3/74779f0acdc33af5e799d1a9fedcf93a1153eaaf_ligand_9.pdbqt
 14 15 0 0 0
SMALL
GASTEIGER

@<TRIPOS>ATOM
      1  C          5.3810   -0.0480    1.9600 C.3     1  UNL1        0.0800
      2  C          4.4250    1.0710    1.8660 C.2     1  UNL1        0.1300
      3  C          4.7450    2.1120    0.8070 C.3     1  UNL1        0.0870
      4  O          3.4370    1.2510    2.5200 O.2     1  UNL1       -0.3000
      5  C          6.7970    0.2820    1.6990 C.3     1  UNL1        0.0430
      6  C          7.3320   -0.0570    0.3770 C.2     1  UNL1       -0.0440
      7  C          7.7560    0.9180   -0.5270 C.2     1  UNL1        0.0080
      8  C          7.4570   -1.3750    0.0030 C.2     1  UNL1        0.0540
      9  C          8.2720    0.5270   -1.7360 C.2     1  UNL1        0.0510
     10  C          7.9890   -1.7470   -1.2410 C.2     1  UNL1        0.1660
     11  C          8.4060   -0.7850   -2.1340 C.2     1  UNL1        0.1650
     12  O          8.2280   -2.9620   -1.8710 O.2     1  UNL1       -0.4540
     13  O          8.8900   -1.4190   -3.2850 O.2     1  UNL1       -0.4540
     14  C          9.1980   -2.7380   -2.8840 C.3     1  UNL1        0.4680
@<TRIPOS>BOND
     1    13    14    1
     2    13    11    1
     3    14    12    1
     4    11     9    2
     5    11    10    1
     6    12    10    1
     7     9     7    1
     8    10     8    2
     9     7     6    2
    10     8     6    1
    11     6     5    1
    12     3     2    1
    13     5     1    1
    14     2     1    1
    15     2     4    2
