MODEL 1
REMARK VINA RESULT:      -7.5      0.000      0.000
REMARK SMILES CC(=O)CCc1ccc2c(c1)OCO2
REMARK SMILES IDX 4 1 2 2 1 3 3 4 5 5 6 6 7 7 11 8 8 9 10 10 9 11 12 12 14 13
REMARK SMILES IDX 13 14
REMARK H PARENT
REMARK Flexibility Score: inf
ROOT
ATOM      1  C   UNL     1       5.789   1.665   1.163  1.00  0.00     0.080 C 
ENDROOT
BRANCH   1   2
ATOM      2  C   UNL     1       5.230   0.585   1.997  1.00  0.00     0.130 C 
ATOM      3  C   UNL     1       6.152  -0.601   2.227  1.00  0.00     0.087 C 
ATOM      4  O   UNL     1       4.148   0.535   2.507  1.00  0.00    -0.300 OA
ENDBRANCH   1   2
BRANCH   1   5
ATOM      5  C   UNL     1       5.701   1.471  -0.299  1.00  0.00     0.043 C 
BRANCH   5   6
ATOM      6  C   UNL     1       6.788   0.728  -0.943  1.00  0.00    -0.044 A 
ATOM      7  C   UNL     1       8.112   1.168  -0.909  1.00  0.00     0.008 A 
ATOM      8  C   UNL     1       6.524  -0.459  -1.586  1.00  0.00     0.054 A 
ATOM      9  C   UNL     1       9.082   0.409  -1.510  1.00  0.00     0.051 A 
ATOM     10  C   UNL     1       7.537  -1.216  -2.193  1.00  0.00     0.166 A 
ATOM     11  C   UNL     1       8.844  -0.782  -2.160  1.00  0.00     0.165 A 
ATOM     12  O   UNL     1       7.566  -2.417  -2.893  1.00  0.00    -0.454 OA
ATOM     13  O   UNL     1       9.645  -1.714  -2.832  1.00  0.00    -0.454 OA
ATOM     14  C   UNL     1       8.896  -2.911  -2.843  1.00  0.00     0.468 C 
ENDBRANCH   5   6
ENDBRANCH   1   5
TORSDOF 3
ENDMDL
MODEL 2
REMARK VINA RESULT:      -7.0      1.693      2.109
REMARK SMILES CC(=O)CCc1ccc2c(c1)OCO2
REMARK SMILES IDX 4 1 2 2 1 3 3 4 5 5 6 6 7 7 11 8 8 9 10 10 9 11 12 12 14 13
REMARK SMILES IDX 13 14
REMARK H PARENT
REMARK Flexibility Score: inf
ROOT
ATOM      1  C   UNL     1       5.796   1.476  -0.263  1.00  0.00     0.080 C 
ENDROOT
BRANCH   1   2
ATOM      2  C   UNL     1       5.078   1.381   1.021  1.00  0.00     0.130 C 
ATOM      3  C   UNL     1       5.486   0.218   1.910  1.00  0.00     0.087 C 
ATOM      4  O   UNL     1       4.221   2.107   1.440  1.00  0.00    -0.300 OA
ENDBRANCH   1   2
BRANCH   1   5
ATOM      5  C   UNL     1       7.214   1.060  -0.248  1.00  0.00     0.043 C 
BRANCH   5   6
ATOM      6  C   UNL     1       7.539  -0.237  -0.849  1.00  0.00    -0.044 A 
ATOM      7  C   UNL     1       7.580  -0.426  -2.232  1.00  0.00     0.008 A 
ATOM      8  C   UNL     1       7.843  -1.311  -0.047  1.00  0.00     0.054 A 
ATOM      9  C   UNL     1       7.918  -1.659  -2.726  1.00  0.00     0.051 A 
ATOM     10  C   UNL     1       8.186  -2.563  -0.579  1.00  0.00     0.166 A 
ATOM     11  C   UNL     1       8.226  -2.750  -1.943  1.00  0.00     0.165 A 
ATOM     12  O   UNL     1       8.531  -3.792  -0.029  1.00  0.00    -0.454 OA
ATOM     13  O   UNL     1       8.592  -4.077  -2.205  1.00  0.00    -0.454 OA
ATOM     14  C   UNL     1       9.223  -4.530  -1.026  1.00  0.00     0.468 C 
ENDBRANCH   5   6
ENDBRANCH   1   5
TORSDOF 3
ENDMDL
MODEL 3
REMARK VINA RESULT:      -6.7      1.835      2.391
REMARK SMILES CC(=O)CCc1ccc2c(c1)OCO2
REMARK SMILES IDX 4 1 2 2 1 3 3 4 5 5 6 6 7 7 11 8 8 9 10 10 9 11 12 12 14 13
REMARK SMILES IDX 13 14
REMARK H PARENT
REMARK Flexibility Score: inf
ROOT
ATOM      1  C   UNL     1       5.486  -0.029   2.082  1.00  0.00     0.080 C 
ENDROOT
BRANCH   1   2
ATOM      2  C   UNL     1       4.541   1.076   1.841  1.00  0.00     0.130 C 
ATOM      3  C   UNL     1       4.924   2.026   0.719  1.00  0.00     0.087 C 
ATOM      4  O   UNL     1       3.518   1.309   2.421  1.00  0.00    -0.300 OA
ENDBRANCH   1   2
BRANCH   1   5
ATOM      5  C   UNL     1       6.844   0.142   1.525  1.00  0.00     0.043 C 
BRANCH   5   6
ATOM      6  C   UNL     1       7.260  -0.790   0.473  1.00  0.00    -0.044 A 
ATOM      7  C   UNL     1       7.189  -0.462  -0.882  1.00  0.00     0.008 A 
ATOM      8  C   UNL     1       7.766  -2.024   0.808  1.00  0.00     0.054 A 
ATOM      9  C   UNL     1       7.620  -1.373  -1.811  1.00  0.00     0.051 A 
ATOM     10  C   UNL     1       8.201  -2.938  -0.164  1.00  0.00     0.166 A 
ATOM     11  C   UNL     1       8.130  -2.615  -1.502  1.00  0.00     0.165 A 
ATOM     12  O   UNL     1       8.741  -4.217  -0.123  1.00  0.00    -0.454 OA
ATOM     13  O   UNL     1       8.623  -3.690  -2.251  1.00  0.00    -0.454 OA
ATOM     14  C   UNL     1       9.415  -4.439  -1.353  1.00  0.00     0.468 C 
ENDBRANCH   5   6
ENDBRANCH   1   5
TORSDOF 3
ENDMDL
MODEL 4
REMARK VINA RESULT:      -6.7      1.080      1.583
REMARK SMILES CC(=O)CCc1ccc2c(c1)OCO2
REMARK SMILES IDX 4 1 2 2 1 3 3 4 5 5 6 6 7 7 11 8 8 9 10 10 9 11 12 12 14 13
REMARK SMILES IDX 13 14
REMARK H PARENT
REMARK Flexibility Score: inf
ROOT
ATOM      1  C   UNL     1       5.335  -0.022   1.989  1.00  0.00     0.080 C 
ENDROOT
BRANCH   1   2
ATOM      2  C   UNL     1       4.388   1.101   1.869  1.00  0.00     0.130 C 
ATOM      3  C   UNL     1       4.733   2.132   0.807  1.00  0.00     0.087 C 
ATOM      4  O   UNL     1       3.390   1.293   2.504  1.00  0.00    -0.300 OA
ENDBRANCH   1   2
BRANCH   1   5
ATOM      5  C   UNL     1       6.760   0.300   1.762  1.00  0.00     0.043 C 
BRANCH   5   6
ATOM      6  C   UNL     1       7.312  -0.000   0.438  1.00  0.00    -0.044 A 
ATOM      7  C   UNL     1       7.870   0.987  -0.377  1.00  0.00     0.008 A 
ATOM      8  C   UNL     1       7.317  -1.294  -0.029  1.00  0.00     0.054 A 
ATOM      9  C   UNL     1       8.393   0.630  -1.592  1.00  0.00     0.051 A 
ATOM     10  C   UNL     1       7.859  -1.631  -1.278  1.00  0.00     0.166 A 
ATOM     11  C   UNL     1       8.410  -0.657  -2.082  1.00  0.00     0.165 A 
ATOM     12  O   UNL     1       7.999  -2.817  -1.989  1.00  0.00    -0.454 OA
ATOM     13  O   UNL     1       8.874  -1.256  -3.261  1.00  0.00    -0.454 OA
ATOM     14  C   UNL     1       9.028  -2.625  -2.948  1.00  0.00     0.468 C 
ENDBRANCH   5   6
ENDBRANCH   1   5
TORSDOF 3
ENDMDL
MODEL 5
REMARK VINA RESULT:      -6.4      2.173      2.746
REMARK SMILES CC(=O)CCc1ccc2c(c1)OCO2
REMARK SMILES IDX 4 1 2 2 1 3 3 4 5 5 6 6 7 7 11 8 8 9 10 10 9 11 12 12 14 13
REMARK SMILES IDX 13 14
REMARK H PARENT
REMARK Flexibility Score: inf
ROOT
ATOM      1  C   UNL     1       6.962   1.517  -0.462  1.00  0.00     0.080 C 
ENDROOT
BRANCH   1   2
ATOM      2  C   UNL     1       6.171   1.945   0.707  1.00  0.00     0.130 C 
ATOM      3  C   UNL     1       4.687   2.147   0.449  1.00  0.00     0.087 C 
ATOM      4  O   UNL     1       6.558   2.149   1.822  1.00  0.00    -0.300 OA
ENDBRANCH   1   2
BRANCH   1   5
ATOM      5  C   UNL     1       6.533   0.263  -1.114  1.00  0.00     0.043 C 
BRANCH   5   6
ATOM      6  C   UNL     1       7.262  -0.959  -0.763  1.00  0.00    -0.044 A 
ATOM      7  C   UNL     1       7.484  -1.339   0.562  1.00  0.00     0.008 A 
ATOM      8  C   UNL     1       7.731  -1.790  -1.754  1.00  0.00     0.054 A 
ATOM      9  C   UNL     1       8.151  -2.509   0.817  1.00  0.00     0.051 A 
ATOM     10  C   UNL     1       8.410  -2.983  -1.464  1.00  0.00     0.166 A 
ATOM     11  C   UNL     1       8.629  -3.357  -0.157  1.00  0.00     0.165 A 
ATOM     12  O   UNL     1       8.979  -3.989  -2.235  1.00  0.00    -0.454 OA
ATOM     13  O   UNL     1       9.322  -4.575  -0.147  1.00  0.00    -0.454 OA
ATOM     14  C   UNL     1       9.091  -5.145  -1.418  1.00  0.00     0.468 C 
ENDBRANCH   5   6
ENDBRANCH   1   5
TORSDOF 3
ENDMDL
