@<TRIPOS>MOLECULE
/home/cewinharhar/GITHUB/reincatalyze/data/processed/docking_pred/2023-May-31-1727_sub9_nm5_bs15_s42_ex16_mel10_mts10000_k50_ec075_g099_lra3e-4_lrc3e-3/777751631f294be45381376aa4be6161cfc72981_ligand_9.pdbqt
 14 15 0 0 0
SMALL
GASTEIGER

@<TRIPOS>ATOM
      1  C          5.4860   -0.0290    2.0820 C.3     1  UNL1        0.0800
      2  C          4.5410    1.0760    1.8410 C.2     1  UNL1        0.1300
      3  C          4.9240    2.0260    0.7190 C.3     1  UNL1        0.0870
      4  O          3.5180    1.3090    2.4210 O.2     1  UNL1       -0.3000
      5  C          6.8440    0.1420    1.5250 C.3     1  UNL1        0.0430
      6  C          7.2600   -0.7900    0.4730 C.2     1  UNL1       -0.0440
      7  C          7.1890   -0.4620   -0.8820 C.2     1  UNL1        0.0080
      8  C          7.7660   -2.0240    0.8080 C.2     1  UNL1        0.0540
      9  C          7.6200   -1.3730   -1.8110 C.2     1  UNL1        0.0510
     10  C          8.2010   -2.9380   -0.1640 C.2     1  UNL1        0.1660
     11  C          8.1300   -2.6150   -1.5020 C.2     1  UNL1        0.1650
     12  O          8.7410   -4.2170   -0.1230 O.2     1  UNL1       -0.4540
     13  O          8.6230   -3.6900   -2.2510 O.2     1  UNL1       -0.4540
     14  C          9.4150   -4.4390   -1.3530 C.3     1  UNL1        0.4680
@<TRIPOS>BOND
     1    13    11    1
     2    13    14    1
     3     9    11    2
     4     9     7    1
     5    11    10    1
     6    14    12    1
     7     7     6    2
     8    10    12    1
     9    10     8    2
    10     6     8    1
    11     6     5    1
    12     3     2    1
    13     5     1    1
    14     2     1    1
    15     2     4    2
