@<TRIPOS>MOLECULE
/home/cewinharhar/GITHUB/reincatalyze/data/processed/docking_pred/2023-May-31-1727_sub9_nm5_bs15_s42_ex16_mel10_mts10000_k50_ec075_g099_lra3e-4_lrc3e-3/7ac8f9624e71b352d93dccd4dc48cb56e96c53c0_ligand_9.pdbqt
 14 15 0 0 0
SMALL
GASTEIGER

@<TRIPOS>ATOM
      1  C          5.4510    1.6650    0.1320 C.3     1  UNL1        0.0800
      2  C          4.7920    1.2680    1.3890 C.2     1  UNL1        0.1300
      3  C          5.4050    0.0700    2.0940 C.3     1  UNL1        0.0870
      4  O          3.8420    1.7750    1.9130 O.2     1  UNL1       -0.3000
      5  C          6.8900    1.3460    0.0210 C.3     1  UNL1        0.0430
      6  C          7.2530    0.1370   -0.7230 C.2     1  UNL1       -0.0440
      7  C          7.2490    0.0930   -2.1190 C.2     1  UNL1        0.0080
      8  C          7.6410   -0.9970   -0.0490 C.2     1  UNL1        0.0540
      9  C          7.6260   -1.0640   -2.7500 C.2     1  UNL1        0.0510
     10  C          8.0230   -2.1680   -0.7210 C.2     1  UNL1        0.1660
     11  C          8.0180   -2.2120   -2.0980 C.2     1  UNL1        0.1650
     12  O          8.4490   -3.4270   -0.3150 O.2     1  UNL1       -0.4540
     13  O          8.4370   -3.4830   -2.5100 O.2     1  UNL1       -0.4540
     14  C          9.1360   -4.0220   -1.4070 C.3     1  UNL1        0.4680
@<TRIPOS>BOND
     1     9     7    1
     2     9    11    2
     3    13    11    1
     4    13    14    1
     5     7     6    2
     6    11    10    1
     7    14    12    1
     8     6     8    1
     9     6     5    1
    10    10    12    1
    11    10     8    2
    12     5     1    1
    13     1     2    1
    14     2     4    2
    15     2     3    1
