@<TRIPOS>MOLECULE
/home/cewinharhar/GITHUB/reincatalyze/data/processed/docking_pred/2023-May-31-1727_sub9_nm5_bs15_s42_ex16_mel10_mts10000_k50_ec075_g099_lra3e-4_lrc3e-3/7ac8f9624e71b352d93dccd4dc48cb56e96c53c0_ligand_9.pdbqt
 14 15 0 0 0
SMALL
GASTEIGER

@<TRIPOS>ATOM
      1  C          5.4000   -0.0630    1.9520 C.3     1  UNL1        0.0800
      2  C          4.4450    1.0570    1.8640 C.2     1  UNL1        0.1300
      3  C          4.7630    2.1010    0.8080 C.3     1  UNL1        0.0870
      4  O          3.4600    1.2360    2.5210 O.2     1  UNL1       -0.3000
      5  C          6.8180    0.2690    1.6990 C.3     1  UNL1        0.0430
      6  C          7.3600   -0.0680    0.3790 C.2     1  UNL1       -0.0440
      7  C          7.8090    0.9090   -0.5120 C.2     1  UNL1        0.0080
      8  C          7.4660   -1.3840   -0.0070 C.2     1  UNL1        0.0540
      9  C          8.3290    0.5210   -1.7190 C.2     1  UNL1        0.0510
     10  C          8.0040   -1.7530   -1.2490 C.2     1  UNL1        0.1660
     11  C          8.4460   -0.7890   -2.1290 C.2     1  UNL1        0.1650
     12  O          8.2280   -2.9660   -1.8890 O.2     1  UNL1       -0.4540
     13  O          8.9300   -1.4200   -3.2820 O.2     1  UNL1       -0.4540
     14  C          9.2110   -2.7480   -2.8900 C.3     1  UNL1        0.4680
@<TRIPOS>BOND
     1    13    14    1
     2    13    11    1
     3    14    12    1
     4    11     9    2
     5    11    10    1
     6    12    10    1
     7     9     7    1
     8    10     8    2
     9     7     6    2
    10     8     6    1
    11     6     5    1
    12     3     2    1
    13     5     1    1
    14     2     1    1
    15     2     4    2
