@<TRIPOS>MOLECULE
/home/cewinharhar/GITHUB/reincatalyze/data/processed/docking_pred/2023-May-31-1727_sub9_nm5_bs15_s42_ex16_mel10_mts10000_k50_ec075_g099_lra3e-4_lrc3e-3/7ac8f9624e71b352d93dccd4dc48cb56e96c53c0_ligand_9.pdbqt
 14 15 0 0 0
SMALL
GASTEIGER

@<TRIPOS>ATOM
      1  C          6.3220    1.0790    0.8940 C.3     1  UNL1        0.0800
      2  C          5.5990    0.3300    1.9370 C.2     1  UNL1        0.1300
      3  C          6.3230   -0.8910    2.4800 C.3     1  UNL1        0.0870
      4  O          4.5200    0.5690    2.4010 O.2     1  UNL1       -0.3000
      5  C          5.9410    0.7840   -0.5030 C.3     1  UNL1        0.0430
      6  C          6.8870    0.0040   -1.3060 C.2     1  UNL1       -0.0440
      7  C          7.6920    0.5890   -2.2840 C.2     1  UNL1        0.0080
      8  C          7.0240   -1.3480   -1.0870 C.2     1  UNL1        0.0540
      9  C          8.5750   -0.1970   -2.9780 C.2     1  UNL1        0.0510
     10  C          7.9360   -2.1290   -1.8130 C.2     1  UNL1        0.1660
     11  C          8.7310   -1.5510   -2.7790 C.2     1  UNL1        0.1650
     12  O          8.2820   -3.4750   -1.8090 O.2     1  UNL1       -0.4540
     13  O          9.5420   -2.5420   -3.3460 O.2     1  UNL1       -0.4540
     14  C          9.5680   -3.5900   -2.3990 C.3     1  UNL1        0.4680
@<TRIPOS>BOND
     1    13    11    1
     2    13    14    1
     3     9    11    2
     4     9     7    1
     5    11    10    1
     6    14    12    1
     7     7     6    2
     8    10    12    1
     9    10     8    2
    10     6     8    1
    11     6     5    1
    12     5     1    1
    13     1     2    1
    14     2     4    2
    15     2     3    1
