@<TRIPOS>MOLECULE
/home/cewinharhar/GITHUB/reincatalyze/data/processed/docking_pred/2023-May-31-1727_sub9_nm5_bs15_s42_ex16_mel10_mts10000_k50_ec075_g099_lra3e-4_lrc3e-3/7ac8f9624e71b352d93dccd4dc48cb56e96c53c0_ligand_9.pdbqt
 14 15 0 0 0
SMALL
GASTEIGER

@<TRIPOS>ATOM
      1  C          5.2970   -0.0050    2.0760 C.3     1  UNL1        0.0800
      2  C          4.3940    1.1500    1.9290 C.2     1  UNL1        0.1300
      3  C          4.7870    2.1500    0.8550 C.3     1  UNL1        0.0870
      4  O          3.3970    1.3880    2.5500 O.2     1  UNL1       -0.3000
      5  C          6.6710    0.1720    1.5590 C.3     1  UNL1        0.0430
      6  C          7.0490   -0.6100    0.3790 C.2     1  UNL1       -0.0440
      7  C          6.8060   -0.1610   -0.9200 C.2     1  UNL1        0.0080
      8  C          7.6910   -1.8170    0.5300 C.2     1  UNL1        0.0540
      9  C          7.2120   -0.9320   -1.9790 C.2     1  UNL1        0.0510
     10  C          8.0960   -2.5860   -0.5720 C.2     1  UNL1        0.1660
     11  C          7.8550   -2.1440   -1.8540 C.2     1  UNL1        0.1650
     12  O          8.7430   -3.8070   -0.7200 O.2     1  UNL1       -0.4540
     13  O          8.3550   -3.0900   -2.7580 O.2     1  UNL1       -0.4540
     14  C          9.2990   -3.8440   -2.0260 C.3     1  UNL1        0.4680
@<TRIPOS>BOND
     1    13    14    1
     2    13    11    1
     3    14    12    1
     4     9    11    2
     5     9     7    1
     6    11    10    1
     7     7     6    2
     8    12    10    1
     9    10     8    2
    10     6     8    1
    11     6     5    1
    12     3     2    1
    13     5     1    1
    14     2     1    1
    15     2     4    2
