@<TRIPOS>MOLECULE
/home/cewinharhar/GITHUB/reincatalyze/data/processed/docking_pred/2023-May-31-1727_sub9_nm5_bs15_s42_ex16_mel10_mts10000_k50_ec075_g099_lra3e-4_lrc3e-3/7e2b2812a39c1bf8d23d6aab3a18bb39f1acac0e_ligand_9.pdbqt
 14 15 0 0 0
SMALL
GASTEIGER

@<TRIPOS>ATOM
      1  C          5.7750    1.4060   -0.2570 C.3     1  UNL1        0.0800
      2  C          5.1130    1.3330    1.0580 C.2     1  UNL1        0.1300
      3  C          5.5140    0.1510    1.9240 C.3     1  UNL1        0.0870
      4  O          4.3050    2.0900    1.5170 O.2     1  UNL1       -0.3000
      5  C          7.2040    1.0280   -0.2880 C.3     1  UNL1        0.0430
      6  C          7.5410   -0.2720   -0.8730 C.2     1  UNL1       -0.0440
      7  C          7.6120   -0.4720   -2.2530 C.2     1  UNL1        0.0080
      8  C          7.8270   -1.3410   -0.0560 C.2     1  UNL1        0.0540
      9  C          7.9600   -1.7090   -2.7300 C.2     1  UNL1        0.0510
     10  C          8.1810   -2.5970   -0.5720 C.2     1  UNL1        0.1660
     11  C          8.2510   -2.7940   -1.9340 C.2     1  UNL1        0.1650
     12  O          8.5140   -3.8220   -0.0060 O.2     1  UNL1       -0.4540
     13  O          8.6210   -4.1220   -2.1790 O.2     1  UNL1       -0.4540
     14  C          9.2270   -4.5670   -0.9820 C.3     1  UNL1        0.4680
@<TRIPOS>BOND
     1     9     7    1
     2     9    11    2
     3     7     6    2
     4    13    11    1
     5    13    14    1
     6    11    10    1
     7    14    12    1
     8     6     5    1
     9     6     8    1
    10    10     8    2
    11    10    12    1
    12     5     1    1
    13     1     2    1
    14     2     4    2
    15     2     3    1
