@<TRIPOS>MOLECULE
/home/cewinharhar/GITHUB/reincatalyze/data/processed/docking_pred/2023-May-31-1727_sub9_nm5_bs15_s42_ex16_mel10_mts10000_k50_ec075_g099_lra3e-4_lrc3e-3/80b3dd8cd2b2e3944ffcf13b099740dfc166ef97_ligand_9.pdbqt
 14 15 0 0 0
SMALL
GASTEIGER

@<TRIPOS>ATOM
      1  C          5.2090   -0.1560    2.2690 C.3     1  UNL1        0.0800
      2  C          4.2880    0.9680    2.0210 C.2     1  UNL1        0.1300
      3  C          4.6700    1.8790    0.8670 C.3     1  UNL1        0.0870
      4  O          3.2850    1.2420    2.6170 O.2     1  UNL1       -0.3000
      5  C          6.6330    0.0880    1.9590 C.3     1  UNL1        0.0430
      6  C          7.2400   -0.7290    0.9040 C.2     1  UNL1       -0.0440
      7  C          7.5490   -2.0770    1.0930 C.2     1  UNL1        0.0080
      8  C          7.4970   -0.1800   -0.3300 C.2     1  UNL1        0.0540
      9  C          8.0900   -2.7880    0.0530 C.2     1  UNL1        0.0510
     10  C          8.0510   -0.9310   -1.3770 C.2     1  UNL1        0.1660
     11  C          8.3570   -2.2620   -1.1910 C.2     1  UNL1        0.1650
     12  O          8.4100   -0.6520   -2.6900 O.2     1  UNL1       -0.4540
     13  O          8.8920   -2.7720   -2.3810 O.2     1  UNL1       -0.4540
     14  C          8.4630   -1.8850   -3.3930 C.3     1  UNL1        0.4680
@<TRIPOS>BOND
     1    14    12    1
     2    14    13    1
     3    12    10    1
     4    13    11    1
     5    10    11    2
     6    10     8    1
     7    11     9    1
     8     8     6    2
     9     9     7    2
    10     3     2    1
    11     6     7    1
    12     6     5    1
    13     5     1    1
    14     2     1    1
    15     2     4    2
