@<TRIPOS>MOLECULE
/home/cewinharhar/GITHUB/reincatalyze/data/processed/docking_pred/2023-May-31-1727_sub9_nm5_bs15_s42_ex16_mel10_mts10000_k50_ec075_g099_lra3e-4_lrc3e-3/80b3dd8cd2b2e3944ffcf13b099740dfc166ef97_ligand_9.pdbqt
 14 15 0 0 0
SMALL
GASTEIGER

@<TRIPOS>ATOM
      1  C          5.5050    0.2330    2.5270 C.3     1  UNL1        0.0800
      2  C          4.3770    1.0700    2.0780 C.2     1  UNL1        0.1300
      3  C          4.6050    1.8280    0.7820 C.3     1  UNL1        0.0870
      4  O          3.3140    1.2180    2.6110 O.2     1  UNL1       -0.3000
      5  C          5.7620   -0.9900    1.7390 C.3     1  UNL1        0.0430
      6  C          6.7760   -0.9070    0.6850 C.2     1  UNL1       -0.0440
      7  C          8.0360   -0.3490    0.9060 C.2     1  UNL1        0.0080
      8  C          6.5120   -1.4150   -0.5660 C.2     1  UNL1        0.0540
      9  C          8.9460   -0.3290   -0.1190 C.2     1  UNL1        0.0510
     10  C          7.4620   -1.3820   -1.5980 C.2     1  UNL1        0.1660
     11  C          8.7050   -0.8300   -1.3800 C.2     1  UNL1        0.1650
     12  O          7.4750   -1.8050   -2.9210 O.2     1  UNL1       -0.4540
     13  O          9.4530   -0.9230   -2.5600 O.2     1  UNL1       -0.4540
     14  C          8.8330   -1.9430   -3.3150 C.3     1  UNL1        0.4680
@<TRIPOS>BOND
     1    14    12    1
     2    14    13    1
     3    12    10    1
     4    13    11    1
     5    10    11    2
     6    10     8    1
     7    11     9    1
     8     8     6    2
     9     9     7    2
    10     6     7    1
    11     6     5    1
    12     3     2    1
    13     5     1    1
    14     2     1    1
    15     2     4    2
