MODEL 1
REMARK VINA RESULT:      -6.2      0.000      0.000
REMARK SMILES CC(=O)CCc1ccc2c(c1)OCO2
REMARK SMILES IDX 4 1 2 2 1 3 3 4 5 5 6 6 7 7 11 8 8 9 10 10 9 11 12 12 14 13
REMARK SMILES IDX 13 14
REMARK H PARENT
REMARK Flexibility Score: inf
ROOT
ATOM      1  C   UNL     1       5.822  -0.283   2.267  1.00  0.00     0.080 C 
ENDROOT
BRANCH   1   2
ATOM      2  C   UNL     1       4.720   0.663   2.017  1.00  0.00     0.130 C 
ATOM      3  C   UNL     1       4.924   1.604   0.842  1.00  0.00     0.087 C 
ATOM      4  O   UNL     1       3.694   0.775   2.627  1.00  0.00    -0.300 OA
ENDBRANCH   1   2
BRANCH   1   5
ATOM      5  C   UNL     1       7.078  -0.029   1.531  1.00  0.00     0.043 C 
BRANCH   5   6
ATOM      6  C   UNL     1       7.439  -0.976   0.473  1.00  0.00    -0.044 A 
ATOM      7  C   UNL     1       7.282  -0.675  -0.881  1.00  0.00     0.008 A 
ATOM      8  C   UNL     1       7.979  -2.199   0.798  1.00  0.00     0.054 A 
ATOM      9  C   UNL     1       7.666  -1.599  -1.818  1.00  0.00     0.051 A 
ATOM     10  C   UNL     1       8.364  -3.126  -0.182  1.00  0.00     0.166 A 
ATOM     11  C   UNL     1       8.208  -2.829  -1.518  1.00  0.00     0.165 A 
ATOM     12  O   UNL     1       8.920  -4.399  -0.151  1.00  0.00    -0.454 OA
ATOM     13  O   UNL     1       8.666  -3.914  -2.277  1.00  0.00    -0.454 OA
ATOM     14  C   UNL     1       9.520  -4.638  -1.415  1.00  0.00     0.468 C 
ENDBRANCH   5   6
ENDBRANCH   1   5
TORSDOF 3
ENDMDL
MODEL 2
REMARK VINA RESULT:      -5.8      1.204      2.070
REMARK SMILES CC(=O)CCc1ccc2c(c1)OCO2
REMARK SMILES IDX 4 1 2 2 1 3 3 4 5 5 6 6 7 7 11 8 8 9 10 10 9 11 12 12 14 13
REMARK SMILES IDX 13 14
REMARK H PARENT
REMARK Flexibility Score: inf
ROOT
ATOM      1  C   UNL     1       5.209  -0.156   2.269  1.00  0.00     0.080 C 
ENDROOT
BRANCH   1   2
ATOM      2  C   UNL     1       4.288   0.968   2.021  1.00  0.00     0.130 C 
ATOM      3  C   UNL     1       4.670   1.879   0.867  1.00  0.00     0.087 C 
ATOM      4  O   UNL     1       3.285   1.242   2.617  1.00  0.00    -0.300 OA
ENDBRANCH   1   2
BRANCH   1   5
ATOM      5  C   UNL     1       6.633   0.088   1.959  1.00  0.00     0.043 C 
BRANCH   5   6
ATOM      6  C   UNL     1       7.240  -0.729   0.904  1.00  0.00    -0.044 A 
ATOM      7  C   UNL     1       7.549  -2.077   1.093  1.00  0.00     0.008 A 
ATOM      8  C   UNL     1       7.497  -0.180  -0.330  1.00  0.00     0.054 A 
ATOM      9  C   UNL     1       8.090  -2.788   0.053  1.00  0.00     0.051 A 
ATOM     10  C   UNL     1       8.051  -0.931  -1.377  1.00  0.00     0.166 A 
ATOM     11  C   UNL     1       8.357  -2.262  -1.191  1.00  0.00     0.165 A 
ATOM     12  O   UNL     1       8.410  -0.652  -2.690  1.00  0.00    -0.454 OA
ATOM     13  O   UNL     1       8.892  -2.772  -2.381  1.00  0.00    -0.454 OA
ATOM     14  C   UNL     1       8.463  -1.885  -3.393  1.00  0.00     0.468 C 
ENDBRANCH   5   6
ENDBRANCH   1   5
TORSDOF 3
ENDMDL
MODEL 3
REMARK VINA RESULT:      -5.8      1.891      2.182
REMARK SMILES CC(=O)CCc1ccc2c(c1)OCO2
REMARK SMILES IDX 4 1 2 2 1 3 3 4 5 5 6 6 7 7 11 8 8 9 10 10 9 11 12 12 14 13
REMARK SMILES IDX 13 14
REMARK H PARENT
REMARK Flexibility Score: inf
ROOT
ATOM      1  C   UNL     1       5.505   0.233   2.527  1.00  0.00     0.080 C 
ENDROOT
BRANCH   1   2
ATOM      2  C   UNL     1       4.377   1.070   2.078  1.00  0.00     0.130 C 
ATOM      3  C   UNL     1       4.605   1.828   0.782  1.00  0.00     0.087 C 
ATOM      4  O   UNL     1       3.314   1.218   2.611  1.00  0.00    -0.300 OA
ENDBRANCH   1   2
BRANCH   1   5
ATOM      5  C   UNL     1       5.762  -0.990   1.739  1.00  0.00     0.043 C 
BRANCH   5   6
ATOM      6  C   UNL     1       6.776  -0.907   0.685  1.00  0.00    -0.044 A 
ATOM      7  C   UNL     1       8.036  -0.349   0.906  1.00  0.00     0.008 A 
ATOM      8  C   UNL     1       6.512  -1.415  -0.566  1.00  0.00     0.054 A 
ATOM      9  C   UNL     1       8.946  -0.329  -0.119  1.00  0.00     0.051 A 
ATOM     10  C   UNL     1       7.462  -1.382  -1.598  1.00  0.00     0.166 A 
ATOM     11  C   UNL     1       8.705  -0.830  -1.380  1.00  0.00     0.165 A 
ATOM     12  O   UNL     1       7.475  -1.805  -2.921  1.00  0.00    -0.454 OA
ATOM     13  O   UNL     1       9.453  -0.923  -2.560  1.00  0.00    -0.454 OA
ATOM     14  C   UNL     1       8.833  -1.943  -3.315  1.00  0.00     0.468 C 
ENDBRANCH   5   6
ENDBRANCH   1   5
TORSDOF 3
ENDMDL
MODEL 4
REMARK VINA RESULT:      -5.7      1.309      6.116
REMARK SMILES CC(=O)CCc1ccc2c(c1)OCO2
REMARK SMILES IDX 4 1 2 2 1 3 3 4 5 5 6 6 7 7 11 8 8 9 10 10 9 11 12 12 14 13
REMARK SMILES IDX 13 14
REMARK H PARENT
REMARK Flexibility Score: inf
ROOT
ATOM      1  C   UNL     1       8.770  -4.005  -0.398  1.00  0.00     0.080 C 
ENDROOT
BRANCH   1   2
ATOM      2  C   UNL     1       9.365  -4.852  -1.448  1.00  0.00     0.130 C 
ATOM      3  C   UNL     1       8.897  -6.297  -1.460  1.00  0.00     0.087 C 
ATOM      4  O   UNL     1      10.165  -4.536  -2.282  1.00  0.00    -0.300 OA
ENDBRANCH   1   2
BRANCH   1   5
ATOM      5  C   UNL     1       8.389  -2.636  -0.803  1.00  0.00     0.043 C 
BRANCH   5   6
ATOM      6  C   UNL     1       7.496  -1.896   0.092  1.00  0.00    -0.044 A 
ATOM      7  C   UNL     1       7.358  -2.223   1.442  1.00  0.00     0.008 A 
ATOM      8  C   UNL     1       6.780  -0.822  -0.382  1.00  0.00     0.054 A 
ATOM      9  C   UNL     1       6.525  -1.470   2.229  1.00  0.00     0.051 A 
ATOM     10  C   UNL     1       5.935  -0.068   0.445  1.00  0.00     0.166 A 
ATOM     11  C   UNL     1       5.798  -0.391   1.777  1.00  0.00     0.165 A 
ATOM     12  O   UNL     1       5.113   1.036   0.248  1.00  0.00    -0.454 OA
ATOM     13  O   UNL     1       4.904   0.510   2.370  1.00  0.00    -0.454 OA
ATOM     14  C   UNL     1       4.887   1.635   1.516  1.00  0.00     0.468 C 
ENDBRANCH   5   6
ENDBRANCH   1   5
TORSDOF 3
ENDMDL
MODEL 5
REMARK VINA RESULT:      -5.7      2.040      5.448
REMARK SMILES CC(=O)CCc1ccc2c(c1)OCO2
REMARK SMILES IDX 4 1 2 2 1 3 3 4 5 5 6 6 7 7 11 8 8 9 10 10 9 11 12 12 14 13
REMARK SMILES IDX 13 14
REMARK H PARENT
REMARK Flexibility Score: inf
ROOT
ATOM      1  C   UNL     1       8.276  -1.689  -2.414  1.00  0.00     0.080 C 
ENDROOT
BRANCH   1   2
ATOM      2  C   UNL     1       8.868  -0.339  -2.418  1.00  0.00     0.130 C 
ATOM      3  C   UNL     1       8.179   0.670  -3.321  1.00  0.00     0.087 C 
ATOM      4  O   UNL     1       9.817   0.050  -1.799  1.00  0.00    -0.300 OA
ENDBRANCH   1   2
BRANCH   1   5
ATOM      5  C   UNL     1       8.171  -2.350  -1.097  1.00  0.00     0.043 C 
BRANCH   5   6
ATOM      6  C   UNL     1       7.334  -1.698  -0.085  1.00  0.00    -0.044 A 
ATOM      7  C   UNL     1       7.298  -2.132   1.241  1.00  0.00     0.008 A 
ATOM      8  C   UNL     1       6.573  -0.604  -0.422  1.00  0.00     0.054 A 
ATOM      9  C   UNL     1       6.513  -1.458   2.141  1.00  0.00     0.051 A 
ATOM     10  C   UNL     1       5.779   0.068   0.520  1.00  0.00     0.166 A 
ATOM     11  C   UNL     1       5.742  -0.361   1.829  1.00  0.00     0.165 A 
ATOM     12  O   UNL     1       4.931   1.168   0.469  1.00  0.00    -0.454 OA
ATOM     13  O   UNL     1       4.881   0.475   2.552  1.00  0.00    -0.454 OA
ATOM     14  C   UNL     1       4.789   1.662   1.792  1.00  0.00     0.468 C 
ENDBRANCH   5   6
ENDBRANCH   1   5
TORSDOF 3
ENDMDL
