@<TRIPOS>MOLECULE
/home/cewinharhar/GITHUB/reincatalyze/data/processed/docking_pred/2023-May-31-1727_sub9_nm5_bs15_s42_ex16_mel10_mts10000_k50_ec075_g099_lra3e-4_lrc3e-3/80b3dd8cd2b2e3944ffcf13b099740dfc166ef97_ligand_9.pdbqt
 14 15 0 0 0
SMALL
GASTEIGER

@<TRIPOS>ATOM
      1  C          8.7700   -4.0050   -0.3980 C.2     1  UNL1        0.0800
      2  C          9.3650   -4.8520   -1.4480 C.2     1  UNL1        0.1300
      3  C          8.8970   -6.2970   -1.4600 C.3     1  UNL1        0.0870
      4  O         10.1650   -4.5360   -2.2820 O.2     1  UNL1       -0.3000
      5  C          8.3890   -2.6360   -0.8030 C.2     1  UNL1        0.0430
      6  C          7.4960   -1.8960    0.0920 C.2     1  UNL1       -0.0440
      7  C          7.3580   -2.2230    1.4420 C.2     1  UNL1        0.0080
      8  C          6.7800   -0.8220   -0.3820 C.2     1  UNL1        0.0540
      9  C          6.5250   -1.4700    2.2290 C.2     1  UNL1        0.0510
     10  C          5.9350   -0.0680    0.4450 C.2     1  UNL1        0.1660
     11  C          5.7980   -0.3910    1.7770 C.2     1  UNL1        0.1650
     12  O          5.1130    1.0360    0.2480 O.2     1  UNL1       -0.4540
     13  O          4.9040    0.5100    2.3700 O.2     1  UNL1       -0.4540
     14  C          4.8870    1.6350    1.5160 C.3     1  UNL1        0.4680
@<TRIPOS>BOND
     1     4     2    2
     2     3     2    1
     3     2     1    1
     4     5     1    2
     5     5     6    1
     6     8     6    2
     7     8    10    1
     8     6     7    1
     9    12    10    1
    10    12    14    1
    11    10    11    2
    12     7     9    2
    13    14    13    1
    14    11     9    1
    15    11    13    1
