@<TRIPOS>MOLECULE
/home/cewinharhar/GITHUB/reincatalyze/data/processed/docking_pred/2023-May-31-1727_sub9_nm5_bs15_s42_ex16_mel10_mts10000_k50_ec075_g099_lra3e-4_lrc3e-3/80b3dd8cd2b2e3944ffcf13b099740dfc166ef97_ligand_9.pdbqt
 14 15 0 0 0
SMALL
GASTEIGER

@<TRIPOS>ATOM
      1  C          8.2760   -1.6890   -2.4140 C.3     1  UNL1        0.0800
      2  C          8.8680   -0.3390   -2.4180 C.2     1  UNL1        0.1300
      3  C          8.1790    0.6700   -3.3210 C.3     1  UNL1        0.0870
      4  O          9.8170    0.0500   -1.7990 O.2     1  UNL1       -0.3000
      5  C          8.1710   -2.3500   -1.0970 C.3     1  UNL1        0.0430
      6  C          7.3340   -1.6980   -0.0850 C.2     1  UNL1       -0.0440
      7  C          7.2980   -2.1320    1.2410 C.2     1  UNL1        0.0080
      8  C          6.5730   -0.6040   -0.4220 C.2     1  UNL1        0.0540
      9  C          6.5130   -1.4580    2.1410 C.2     1  UNL1        0.0510
     10  C          5.7790    0.0680    0.5200 C.2     1  UNL1        0.1660
     11  C          5.7420   -0.3610    1.8290 C.2     1  UNL1        0.1650
     12  O          4.9310    1.1680    0.4690 O.2     1  UNL1       -0.4540
     13  O          4.8810    0.4750    2.5520 O.2     1  UNL1       -0.4540
     14  C          4.7890    1.6620    1.7920 C.3     1  UNL1        0.4680
@<TRIPOS>BOND
     1     3     2    1
     2     2     1    1
     3     2     4    2
     4     1     5    1
     5     5     6    1
     6     8     6    2
     7     8    10    1
     8     6     7    1
     9    12    10    1
    10    12    14    1
    11    10    11    2
    12     7     9    2
    13    14    13    1
    14    11     9    1
    15    11    13    1
