@<TRIPOS>MOLECULE
/home/cewinharhar/GITHUB/reincatalyze/data/processed/docking_pred/2023-May-31-1727_sub9_nm5_bs15_s42_ex16_mel10_mts10000_k50_ec075_g099_lra3e-4_lrc3e-3/80c9945afd0f5f9f0270d56cce32b054e5c09707_ligand_9.pdbqt
 14 15 0 0 0
SMALL
GASTEIGER

@<TRIPOS>ATOM
      1  C          5.3030   -0.0710    2.2000 C.3     1  UNL1        0.0800
      2  C          4.4260    1.0790    1.9160 C.2     1  UNL1        0.1300
      3  C          4.9040    2.0040    0.8090 C.3     1  UNL1        0.0870
      4  O          3.3920    1.3660    2.4500 O.2     1  UNL1       -0.3000
      5  C          6.7400    0.1180    1.9100 C.3     1  UNL1        0.0430
      6  C          7.3130   -0.6720    0.8170 C.2     1  UNL1       -0.0440
      7  C          7.6200   -2.0260    0.9600 C.2     1  UNL1        0.0080
      8  C          7.5390   -0.0900   -0.4080 C.2     1  UNL1        0.0540
      9  C          8.1290   -2.7110   -0.1130 C.2     1  UNL1        0.0510
     10  C          8.0610   -0.8150   -1.4910 C.2     1  UNL1        0.1660
     11  C          8.3650   -2.1510   -1.3500 C.2     1  UNL1        0.1650
     12  O          8.3840   -0.5000   -2.8050 O.2     1  UNL1       -0.4540
     13  O          8.8640   -2.6300   -2.5670 O.2     1  UNL1       -0.4540
     14  C          8.4120   -1.7140   -3.5430 C.3     1  UNL1        0.4680
@<TRIPOS>BOND
     1    14    12    1
     2    14    13    1
     3    12    10    1
     4    13    11    1
     5    10    11    2
     6    10     8    1
     7    11     9    1
     8     8     6    2
     9     9     7    2
    10     3     2    1
    11     6     7    1
    12     6     5    1
    13     5     1    1
    14     2     1    1
    15     2     4    2
