@<TRIPOS>MOLECULE
/home/cewinharhar/GITHUB/reincatalyze/data/processed/docking_pred/2023-May-31-1727_sub9_nm5_bs15_s42_ex16_mel10_mts10000_k50_ec075_g099_lra3e-4_lrc3e-3/80c9945afd0f5f9f0270d56cce32b054e5c09707_ligand_9.pdbqt
 14 15 0 0 0
SMALL
GASTEIGER

@<TRIPOS>ATOM
      1  C          5.3300   -0.0310    1.9940 C.3     1  UNL1        0.0800
      2  C          4.3910    1.0990    1.8770 C.2     1  UNL1        0.1300
      3  C          4.7420    2.1290    0.8180 C.3     1  UNL1        0.0870
      4  O          3.3940    1.2950    2.5130 O.2     1  UNL1       -0.3000
      5  C          6.7580    0.2850    1.7810 C.3     1  UNL1        0.0430
      6  C          7.3210   -0.0130    0.4610 C.2     1  UNL1       -0.0440
      7  C          7.8940    0.9730   -0.3430 C.2     1  UNL1        0.0080
      8  C          7.3220   -1.3050   -0.0110 C.2     1  UNL1        0.0540
      9  C          8.4260    0.6180   -1.5560 C.2     1  UNL1        0.0510
     10  C          7.8740   -1.6410   -1.2570 C.2     1  UNL1        0.1660
     11  C          8.4390   -0.6680   -2.0510 C.2     1  UNL1        0.1650
     12  O          8.0120   -2.8250   -1.9710 O.2     1  UNL1       -0.4540
     13  O          8.9100   -1.2640   -3.2270 O.2     1  UNL1       -0.4540
     14  C          9.0520   -2.6350   -2.9200 C.3     1  UNL1        0.4680
@<TRIPOS>BOND
     1    13    14    1
     2    13    11    1
     3    14    12    1
     4    11     9    2
     5    11    10    1
     6    12    10    1
     7     9     7    1
     8    10     8    2
     9     7     6    2
    10     8     6    1
    11     6     5    1
    12     3     2    1
    13     5     1    1
    14     2     1    1
    15     2     4    2
