@<TRIPOS>MOLECULE
/home/cewinharhar/GITHUB/reincatalyze/data/processed/docking_pred/2023-May-31-1727_sub9_nm5_bs15_s42_ex16_mel10_mts10000_k50_ec075_g099_lra3e-4_lrc3e-3/80ffcc0cdcaea1df7ad243f542ab1163fa4dc1ce_ligand_9.pdbqt
 14 15 0 0 0
SMALL
GASTEIGER

@<TRIPOS>ATOM
      1  C          5.3480   -0.0560    1.9770 C.3     1  UNL1        0.0800
      2  C          4.4000    1.0680    1.8760 C.2     1  UNL1        0.1300
      3  C          4.7220    2.0960    0.8040 C.3     1  UNL1        0.0870
      4  O          3.4160    1.2620    2.5320 O.2     1  UNL1       -0.3000
      5  C          6.7690    0.2660    1.7280 C.3     1  UNL1        0.0430
      6  C          7.3090   -0.0620    0.4060 C.2     1  UNL1       -0.0440
      7  C          7.7280    0.9220   -0.4920 C.2     1  UNL1        0.0080
      8  C          7.4430   -1.3760    0.0230 C.2     1  UNL1        0.0540
      9  C          8.2490    0.5420   -1.7020 C.2     1  UNL1        0.0510
     10  C          7.9790   -1.7370   -1.2220 C.2     1  UNL1        0.1660
     11  C          8.3920   -0.7660   -2.1080 C.2     1  UNL1        0.1650
     12  O          8.2270   -2.9460   -1.8600 O.2     1  UNL1       -0.4540
     13  O          8.8830   -1.3890   -3.2630 O.2     1  UNL1       -0.4540
     14  C          9.1980   -2.7090   -2.8690 C.3     1  UNL1        0.4680
@<TRIPOS>BOND
     1    13    14    1
     2    13    11    1
     3    14    12    1
     4    11     9    2
     5    11    10    1
     6    12    10    1
     7     9     7    1
     8    10     8    2
     9     7     6    2
    10     8     6    1
    11     6     5    1
    12     3     2    1
    13     5     1    1
    14     2     1    1
    15     2     4    2
