@<TRIPOS>MOLECULE
/home/cewinharhar/GITHUB/reincatalyze/data/processed/docking_pred/2023-May-31-1727_sub9_nm5_bs15_s42_ex16_mel10_mts10000_k50_ec075_g099_lra3e-4_lrc3e-3/80ffcc0cdcaea1df7ad243f542ab1163fa4dc1ce_ligand_9.pdbqt
 14 15 0 0 0
SMALL
GASTEIGER

@<TRIPOS>ATOM
      1  C          5.8620    0.2540    1.8830 C.3     1  UNL1        0.0800
      2  C          4.7750    1.2140    1.6200 C.2     1  UNL1        0.1300
      3  C          5.0010    2.1460    0.4420 C.3     1  UNL1        0.0870
      4  O          3.7460    1.3420    2.2210 O.2     1  UNL1       -0.3000
      5  C          7.1050    0.4500    1.1070 C.3     1  UNL1        0.0430
      6  C          7.4650   -0.5930    0.1430 C.2     1  UNL1       -0.0440
      7  C          7.4500   -0.3700   -1.2350 C.2     1  UNL1        0.0080
      8  C          7.8610   -1.8340    0.5860 C.2     1  UNL1        0.0540
      9  C          7.8250   -1.3840   -2.0780 C.2     1  UNL1        0.0510
     10  C          8.2410   -2.8530   -0.3000 C.2     1  UNL1        0.1660
     11  C          8.2250   -2.6330   -1.6600 C.2     1  UNL1        0.1650
     12  O          8.6730   -4.1650   -0.1450 O.2     1  UNL1       -0.4540
     13  O          8.6440   -3.8010   -2.3100 O.2     1  UNL1       -0.4540
     14  C          9.3520   -4.5380   -1.3350 C.3     1  UNL1        0.4680
@<TRIPOS>BOND
     1    13    11    1
     2    13    14    1
     3     9    11    2
     4     9     7    1
     5    11    10    1
     6    14    12    1
     7     7     6    2
     8    10    12    1
     9    10     8    2
    10     6     8    1
    11     6     5    1
    12     3     2    1
    13     5     1    1
    14     2     1    1
    15     2     4    2
