@<TRIPOS>MOLECULE
/home/cewinharhar/GITHUB/reincatalyze/data/processed/docking_pred/2023-May-31-1727_sub9_nm5_bs15_s42_ex16_mel10_mts10000_k50_ec075_g099_lra3e-4_lrc3e-3/80ffcc0cdcaea1df7ad243f542ab1163fa4dc1ce_ligand_9.pdbqt
 14 15 0 0 0
SMALL
GASTEIGER

@<TRIPOS>ATOM
      1  C          6.2190    1.2010    0.8940 C.3     1  UNL1        0.0800
      2  C          5.5550    0.3770    1.9200 C.2     1  UNL1        0.1300
      3  C          6.3440   -0.8320    2.3940 C.3     1  UNL1        0.0870
      4  O          4.4780    0.5480    2.4170 O.2     1  UNL1       -0.3000
      5  C          5.8780    0.8930   -0.5110 C.3     1  UNL1        0.0430
      6  C          6.8540    0.1210   -1.2840 C.2     1  UNL1       -0.0440
      7  C          7.7940    0.7310   -2.1160 C.2     1  UNL1        0.0080
      8  C          6.8840   -1.2510   -1.1820 C.2     1  UNL1        0.0540
      9  C          8.6960   -0.0520   -2.7900 C.2     1  UNL1        0.0510
     10  C          7.8180   -2.0280   -1.8830 C.2     1  UNL1        0.1660
     11  C          8.7450   -1.4260   -2.7050 C.2     1  UNL1        0.1650
     12  O          8.0770   -3.3900   -1.9720 O.2     1  UNL1       -0.4540
     13  O          9.5500   -2.4190   -3.2790 O.2     1  UNL1       -0.4540
     14  C          9.4100   -3.5450   -2.4380 C.3     1  UNL1        0.4680
@<TRIPOS>BOND
     1    13    11    1
     2    13    14    1
     3     9    11    2
     4     9     7    1
     5    11    10    1
     6    14    12    1
     7     7     6    2
     8    12    10    1
     9    10     8    2
    10     6     8    1
    11     6     5    1
    12     5     1    1
    13     1     2    1
    14     2     3    1
    15     2     4    2
