@<TRIPOS>MOLECULE
/home/cewinharhar/GITHUB/reincatalyze/data/processed/docking_pred/2023-May-31-1727_sub9_nm5_bs15_s42_ex16_mel10_mts10000_k50_ec075_g099_lra3e-4_lrc3e-3/80ffcc0cdcaea1df7ad243f542ab1163fa4dc1ce_ligand_9.pdbqt
 14 15 0 0 0
SMALL
GASTEIGER

@<TRIPOS>ATOM
      1  C          5.6530    1.8550    1.2810 C.3     1  UNL1        0.0800
      2  C          5.0790    0.7160    2.0210 C.2     1  UNL1        0.1300
      3  C          5.9980   -0.4830    2.1840 C.3     1  UNL1        0.0870
      4  O          3.9850    0.6270    2.5020 O.2     1  UNL1       -0.3000
      5  C          5.6330    1.7510   -0.1930 C.3     1  UNL1        0.0430
      6  C          6.7130    0.9900   -0.8260 C.2     1  UNL1       -0.0440
      7  C          8.0550    1.3500   -0.6910 C.2     1  UNL1        0.0080
      8  C          6.4230   -0.1360   -1.5610 C.2     1  UNL1        0.0540
      9  C          9.0160    0.5770   -1.2890 C.2     1  UNL1        0.0510
     10  C          7.4270   -0.9100   -2.1620 C.2     1  UNL1        0.1660
     11  C          8.7520   -0.5540   -2.0290 C.2     1  UNL1        0.1650
     12  O          7.4320   -2.0630   -2.9380 O.2     1  UNL1       -0.4540
     13  O          9.5390   -1.4850   -2.7190 O.2     1  UNL1       -0.4540
     14  C          8.7290   -2.6350   -2.8500 C.3     1  UNL1        0.4680
@<TRIPOS>BOND
     1    12    14    1
     2    12    10    1
     3    14    13    1
     4    13    11    1
     5    10    11    2
     6    10     8    1
     7    11     9    1
     8     8     6    2
     9     9     7    2
    10     6     7    1
    11     6     5    1
    12     5     1    1
    13     1     2    1
    14     2     3    1
    15     2     4    2
