MODEL 1
REMARK VINA RESULT:      -7.6      0.000      0.000
REMARK SMILES CC(=O)CCc1ccc2c(c1)OCO2
REMARK SMILES IDX 4 1 2 2 1 3 3 4 5 5 6 6 7 7 11 8 8 9 10 10 9 11 12 12 14 13
REMARK SMILES IDX 13 14
REMARK H PARENT
REMARK Flexibility Score: inf
ROOT
ATOM      1  C   UNL     1       5.653   1.855   1.281  1.00  0.00     0.080 C 
ENDROOT
BRANCH   1   2
ATOM      2  C   UNL     1       5.079   0.716   2.021  1.00  0.00     0.130 C 
ATOM      3  C   UNL     1       5.998  -0.483   2.184  1.00  0.00     0.087 C 
ATOM      4  O   UNL     1       3.985   0.627   2.502  1.00  0.00    -0.300 OA
ENDBRANCH   1   2
BRANCH   1   5
ATOM      5  C   UNL     1       5.633   1.751  -0.193  1.00  0.00     0.043 C 
BRANCH   5   6
ATOM      6  C   UNL     1       6.713   0.990  -0.826  1.00  0.00    -0.044 A 
ATOM      7  C   UNL     1       8.055   1.350  -0.691  1.00  0.00     0.008 A 
ATOM      8  C   UNL     1       6.423  -0.136  -1.561  1.00  0.00     0.054 A 
ATOM      9  C   UNL     1       9.016   0.577  -1.289  1.00  0.00     0.051 A 
ATOM     10  C   UNL     1       7.427  -0.910  -2.162  1.00  0.00     0.166 A 
ATOM     11  C   UNL     1       8.752  -0.554  -2.029  1.00  0.00     0.165 A 
ATOM     12  O   UNL     1       7.432  -2.063  -2.938  1.00  0.00    -0.454 OA
ATOM     13  O   UNL     1       9.539  -1.485  -2.719  1.00  0.00    -0.454 OA
ATOM     14  C   UNL     1       8.729  -2.635  -2.850  1.00  0.00     0.468 C 
ENDBRANCH   5   6
ENDBRANCH   1   5
TORSDOF 3
ENDMDL
MODEL 2
REMARK VINA RESULT:      -7.0      1.809      2.270
REMARK SMILES CC(=O)CCc1ccc2c(c1)OCO2
REMARK SMILES IDX 4 1 2 2 1 3 3 4 5 5 6 6 7 7 11 8 8 9 10 10 9 11 12 12 14 13
REMARK SMILES IDX 13 14
REMARK H PARENT
REMARK Flexibility Score: inf
ROOT
ATOM      1  C   UNL     1       5.774   1.429  -0.243  1.00  0.00     0.080 C 
ENDROOT
BRANCH   1   2
ATOM      2  C   UNL     1       5.114   1.349   1.072  1.00  0.00     0.130 C 
ATOM      3  C   UNL     1       5.509   0.155   1.926  1.00  0.00     0.087 C 
ATOM      4  O   UNL     1       4.313   2.107   1.541  1.00  0.00    -0.300 OA
ENDBRANCH   1   2
BRANCH   1   5
ATOM      5  C   UNL     1       7.202   1.049  -0.280  1.00  0.00     0.043 C 
BRANCH   5   6
ATOM      6  C   UNL     1       7.535  -0.252  -0.867  1.00  0.00    -0.044 A 
ATOM      7  C   UNL     1       7.589  -0.454  -2.247  1.00  0.00     0.008 A 
ATOM      8  C   UNL     1       7.835  -1.319  -0.051  1.00  0.00     0.054 A 
ATOM      9  C   UNL     1       7.934  -1.691  -2.726  1.00  0.00     0.051 A 
ATOM     10  C   UNL     1       8.185  -2.575  -0.569  1.00  0.00     0.166 A 
ATOM     11  C   UNL     1       8.238  -2.774  -1.931  1.00  0.00     0.165 A 
ATOM     12  O   UNL     1       8.528  -3.797  -0.005  1.00  0.00    -0.454 OA
ATOM     13  O   UNL     1       8.609  -4.102  -2.178  1.00  0.00    -0.454 OA
ATOM     14  C   UNL     1       9.230  -4.543  -0.989  1.00  0.00     0.468 C 
ENDBRANCH   5   6
ENDBRANCH   1   5
TORSDOF 3
ENDMDL
MODEL 3
REMARK VINA RESULT:      -6.9      1.085      1.164
REMARK SMILES CC(=O)CCc1ccc2c(c1)OCO2
REMARK SMILES IDX 4 1 2 2 1 3 3 4 5 5 6 6 7 7 11 8 8 9 10 10 9 11 12 12 14 13
REMARK SMILES IDX 13 14
REMARK H PARENT
REMARK Flexibility Score: inf
ROOT
ATOM      1  C   UNL     1       6.219   1.201   0.894  1.00  0.00     0.080 C 
ENDROOT
BRANCH   1   2
ATOM      2  C   UNL     1       5.555   0.377   1.920  1.00  0.00     0.130 C 
ATOM      3  C   UNL     1       6.344  -0.832   2.394  1.00  0.00     0.087 C 
ATOM      4  O   UNL     1       4.478   0.548   2.417  1.00  0.00    -0.300 OA
ENDBRANCH   1   2
BRANCH   1   5
ATOM      5  C   UNL     1       5.878   0.893  -0.511  1.00  0.00     0.043 C 
BRANCH   5   6
ATOM      6  C   UNL     1       6.854   0.121  -1.284  1.00  0.00    -0.044 A 
ATOM      7  C   UNL     1       7.794   0.731  -2.116  1.00  0.00     0.008 A 
ATOM      8  C   UNL     1       6.884  -1.251  -1.182  1.00  0.00     0.054 A 
ATOM      9  C   UNL     1       8.696  -0.052  -2.790  1.00  0.00     0.051 A 
ATOM     10  C   UNL     1       7.818  -2.028  -1.883  1.00  0.00     0.166 A 
ATOM     11  C   UNL     1       8.745  -1.426  -2.705  1.00  0.00     0.165 A 
ATOM     12  O   UNL     1       8.077  -3.390  -1.972  1.00  0.00    -0.454 OA
ATOM     13  O   UNL     1       9.550  -2.419  -3.279  1.00  0.00    -0.454 OA
ATOM     14  C   UNL     1       9.410  -3.545  -2.438  1.00  0.00     0.468 C 
ENDBRANCH   5   6
ENDBRANCH   1   5
TORSDOF 3
ENDMDL
MODEL 4
REMARK VINA RESULT:      -6.7      1.169      1.640
REMARK SMILES CC(=O)CCc1ccc2c(c1)OCO2
REMARK SMILES IDX 4 1 2 2 1 3 3 4 5 5 6 6 7 7 11 8 8 9 10 10 9 11 12 12 14 13
REMARK SMILES IDX 13 14
REMARK H PARENT
REMARK Flexibility Score: inf
ROOT
ATOM      1  C   UNL     1       5.348  -0.056   1.977  1.00  0.00     0.080 C 
ENDROOT
BRANCH   1   2
ATOM      2  C   UNL     1       4.400   1.068   1.876  1.00  0.00     0.130 C 
ATOM      3  C   UNL     1       4.722   2.096   0.804  1.00  0.00     0.087 C 
ATOM      4  O   UNL     1       3.416   1.262   2.532  1.00  0.00    -0.300 OA
ENDBRANCH   1   2
BRANCH   1   5
ATOM      5  C   UNL     1       6.769   0.266   1.728  1.00  0.00     0.043 C 
BRANCH   5   6
ATOM      6  C   UNL     1       7.309  -0.062   0.406  1.00  0.00    -0.044 A 
ATOM      7  C   UNL     1       7.728   0.922  -0.492  1.00  0.00     0.008 A 
ATOM      8  C   UNL     1       7.443  -1.376   0.023  1.00  0.00     0.054 A 
ATOM      9  C   UNL     1       8.249   0.542  -1.702  1.00  0.00     0.051 A 
ATOM     10  C   UNL     1       7.979  -1.737  -1.222  1.00  0.00     0.166 A 
ATOM     11  C   UNL     1       8.392  -0.766  -2.108  1.00  0.00     0.165 A 
ATOM     12  O   UNL     1       8.227  -2.946  -1.860  1.00  0.00    -0.454 OA
ATOM     13  O   UNL     1       8.883  -1.389  -3.263  1.00  0.00    -0.454 OA
ATOM     14  C   UNL     1       9.198  -2.709  -2.869  1.00  0.00     0.468 C 
ENDBRANCH   5   6
ENDBRANCH   1   5
TORSDOF 3
ENDMDL
MODEL 5
REMARK VINA RESULT:      -6.7      1.943      2.431
REMARK SMILES CC(=O)CCc1ccc2c(c1)OCO2
REMARK SMILES IDX 4 1 2 2 1 3 3 4 5 5 6 6 7 7 11 8 8 9 10 10 9 11 12 12 14 13
REMARK SMILES IDX 13 14
REMARK H PARENT
REMARK Flexibility Score: inf
ROOT
ATOM      1  C   UNL     1       5.862   0.254   1.883  1.00  0.00     0.080 C 
ENDROOT
BRANCH   1   2
ATOM      2  C   UNL     1       4.775   1.214   1.620  1.00  0.00     0.130 C 
ATOM      3  C   UNL     1       5.001   2.146   0.442  1.00  0.00     0.087 C 
ATOM      4  O   UNL     1       3.746   1.342   2.221  1.00  0.00    -0.300 OA
ENDBRANCH   1   2
BRANCH   1   5
ATOM      5  C   UNL     1       7.105   0.450   1.107  1.00  0.00     0.043 C 
BRANCH   5   6
ATOM      6  C   UNL     1       7.465  -0.593   0.143  1.00  0.00    -0.044 A 
ATOM      7  C   UNL     1       7.450  -0.370  -1.235  1.00  0.00     0.008 A 
ATOM      8  C   UNL     1       7.861  -1.834   0.586  1.00  0.00     0.054 A 
ATOM      9  C   UNL     1       7.825  -1.384  -2.078  1.00  0.00     0.051 A 
ATOM     10  C   UNL     1       8.241  -2.853  -0.300  1.00  0.00     0.166 A 
ATOM     11  C   UNL     1       8.225  -2.633  -1.660  1.00  0.00     0.165 A 
ATOM     12  O   UNL     1       8.673  -4.165  -0.145  1.00  0.00    -0.454 OA
ATOM     13  O   UNL     1       8.644  -3.801  -2.310  1.00  0.00    -0.454 OA
ATOM     14  C   UNL     1       9.352  -4.538  -1.335  1.00  0.00     0.468 C 
ENDBRANCH   5   6
ENDBRANCH   1   5
TORSDOF 3
ENDMDL
