@<TRIPOS>MOLECULE
/home/cewinharhar/GITHUB/reincatalyze/data/processed/docking_pred/2023-May-31-1727_sub9_nm5_bs15_s42_ex16_mel10_mts10000_k50_ec075_g099_lra3e-4_lrc3e-3/81487a167534eaf1a49a57d95a0bec7d9495d7bd_ligand_9.pdbqt
 14 15 0 0 0
SMALL
GASTEIGER

@<TRIPOS>ATOM
      1  C          5.7920    0.2930    1.7450 C.3     1  UNL1        0.0800
      2  C          4.8720    1.3860    1.3810 C.2     1  UNL1        0.1300
      3  C          5.2370    2.1500    0.1190 C.3     1  UNL1        0.0870
      4  O          3.8820    1.7370    1.9570 O.2     1  UNL1       -0.3000
      5  C          7.1450    0.3560    1.1530 C.3     1  UNL1        0.0430
      6  C          7.5060   -0.6900    0.1930 C.2     1  UNL1       -0.0440
      7  C          7.5040   -0.4670   -1.1850 C.2     1  UNL1        0.0080
      8  C          7.8890   -1.9330    0.6400 C.2     1  UNL1        0.0540
      9  C          7.8790   -1.4840   -2.0250 C.2     1  UNL1        0.0510
     10  C          8.2680   -2.9560   -0.2420 C.2     1  UNL1        0.1660
     11  C          8.2660   -2.7370   -1.6020 C.2     1  UNL1        0.1650
     12  O          8.6890   -4.2710   -0.0830 O.2     1  UNL1       -0.4540
     13  O          8.6810   -3.9080   -2.2480 O.2     1  UNL1       -0.4540
     14  C          9.3760   -4.6490   -1.2670 C.3     1  UNL1        0.4680
@<TRIPOS>BOND
     1    13    11    1
     2    13    14    1
     3     9    11    2
     4     9     7    1
     5    11    10    1
     6    14    12    1
     7     7     6    2
     8    10    12    1
     9    10     8    2
    10     3     2    1
    11     6     8    1
    12     6     5    1
    13     5     1    1
    14     2     1    1
    15     2     4    2
