@<TRIPOS>MOLECULE
/home/cewinharhar/GITHUB/reincatalyze/data/processed/docking_pred/2023-May-31-1727_sub9_nm5_bs15_s42_ex16_mel10_mts10000_k50_ec075_g099_lra3e-4_lrc3e-3/81487a167534eaf1a49a57d95a0bec7d9495d7bd_ligand_9.pdbqt
 14 15 0 0 0
SMALL
GASTEIGER

@<TRIPOS>ATOM
      1  C          6.1720    1.2120    0.9090 C.3     1  UNL1        0.0800
      2  C          5.5100    0.3750    1.9250 C.2     1  UNL1        0.1300
      3  C          6.2980   -0.8440    2.3770 C.3     1  UNL1        0.0870
      4  O          4.4370    0.5420    2.4310 O.2     1  UNL1       -0.3000
      5  C          5.8580    0.8960   -0.5010 C.3     1  UNL1        0.0430
      6  C          6.8590    0.1380   -1.2560 C.2     1  UNL1       -0.0440
      7  C          7.8660    0.7630   -1.9940 C.2     1  UNL1        0.0080
      8  C          6.8440   -1.2380   -1.2320 C.2     1  UNL1        0.0540
      9  C          8.7860   -0.0090   -2.6550 C.2     1  UNL1        0.0510
     10  C          7.7990   -2.0040   -1.9180 C.2     1  UNL1        0.1660
     11  C          8.7920   -1.3860   -2.6460 C.2     1  UNL1        0.1650
     12  O          8.0260   -3.3660   -2.0690 O.2     1  UNL1       -0.4540
     13  O          9.6040   -2.3690   -3.2260 O.2     1  UNL1       -0.4540
     14  C          9.3800   -3.5360   -2.4610 C.3     1  UNL1        0.4680
@<TRIPOS>BOND
     1    13    11    1
     2    13    14    1
     3     9    11    2
     4     9     7    1
     5    11    10    1
     6    14    12    1
     7    12    10    1
     8     7     6    2
     9    10     8    2
    10     6     8    1
    11     6     5    1
    12     5     1    1
    13     1     2    1
    14     2     3    1
    15     2     4    2
