@<TRIPOS>MOLECULE
/home/cewinharhar/GITHUB/reincatalyze/data/processed/docking_pred/2023-May-31-1727_sub9_nm5_bs15_s42_ex16_mel10_mts10000_k50_ec075_g099_lra3e-4_lrc3e-3/81487a167534eaf1a49a57d95a0bec7d9495d7bd_ligand_9.pdbqt
 14 15 0 0 0
SMALL
GASTEIGER

@<TRIPOS>ATOM
      1  C          5.3840   -0.0300    1.9510 C.3     1  UNL1        0.0800
      2  C          4.4420    1.1010    1.8590 C.2     1  UNL1        0.1300
      3  C          4.7770    2.1420    0.8050 C.3     1  UNL1        0.0870
      4  O          3.4560    1.2910    2.5130 O.2     1  UNL1       -0.3000
      5  C          6.8050    0.2840    1.6950 C.3     1  UNL1        0.0430
      6  C          7.3430   -0.0680    0.3780 C.2     1  UNL1       -0.0440
      7  C          7.7710    0.8990   -0.5340 C.2     1  UNL1        0.0080
      8  C          7.4650   -1.3890    0.0140 C.2     1  UNL1        0.0540
      9  C          8.2890    0.4970   -1.7380 C.2     1  UNL1        0.0510
     10  C          7.9990   -1.7720   -1.2260 C.2     1  UNL1        0.1660
     11  C          8.4210   -0.8180   -2.1250 C.2     1  UNL1        0.1650
     12  O          8.2370   -2.9930   -1.8460 O.2     1  UNL1       -0.4540
     13  O          8.9070   -1.4620   -3.2700 O.2     1  UNL1       -0.4540
     14  C          9.2100   -2.7780   -2.8580 C.3     1  UNL1        0.4680
@<TRIPOS>BOND
     1    13    14    1
     2    13    11    1
     3    14    12    1
     4    11     9    2
     5    11    10    1
     6    12    10    1
     7     9     7    1
     8    10     8    2
     9     7     6    2
    10     8     6    1
    11     6     5    1
    12     3     2    1
    13     5     1    1
    14     2     1    1
    15     2     4    2
