@<TRIPOS>MOLECULE
/home/cewinharhar/GITHUB/reincatalyze/data/processed/docking_pred/2023-May-31-1727_sub9_nm5_bs15_s42_ex16_mel10_mts10000_k50_ec075_g099_lra3e-4_lrc3e-3/82066193004a6cdbe54a2a950d109d8cafa96b54_ligand_9.pdbqt
 14 15 0 0 0
SMALL
GASTEIGER

@<TRIPOS>ATOM
      1  C          5.5230    1.8700    1.2330 C.3     1  UNL1        0.0800
      2  C          4.9610    0.7410    1.9970 C.2     1  UNL1        0.1300
      3  C          5.8450   -0.4920    2.0790 C.3     1  UNL1        0.0870
      4  O          3.9020    0.6850    2.5540 O.2     1  UNL1       -0.3000
      5  C          5.5140    1.7290   -0.2390 C.3     1  UNL1        0.0430
      6  C          6.6210    0.9870   -0.8470 C.2     1  UNL1       -0.0440
      7  C          7.9540    1.3690   -0.6820 C.2     1  UNL1        0.0080
      8  C          6.3670   -0.1440   -1.5890 C.2     1  UNL1        0.0540
      9  C          8.9410    0.6130   -1.2570 C.2     1  UNL1        0.0510
     10  C          7.3980   -0.9000   -2.1670 C.2     1  UNL1        0.1660
     11  C          8.7130   -0.5220   -2.0040 C.2     1  UNL1        0.1650
     12  O          7.4400   -2.0520   -2.9430 O.2     1  UNL1       -0.4540
     13  O          9.5310   -1.4390   -2.6750 O.2     1  UNL1       -0.4540
     14  C          8.7440   -2.6020   -2.8260 C.3     1  UNL1        0.4680
@<TRIPOS>BOND
     1    12    14    1
     2    12    10    1
     3    14    13    1
     4    13    11    1
     5    10    11    2
     6    10     8    1
     7    11     9    1
     8     8     6    2
     9     9     7    2
    10     6     7    1
    11     6     5    1
    12     5     1    1
    13     1     2    1
    14     2     3    1
    15     2     4    2
