@<TRIPOS>MOLECULE
/home/cewinharhar/GITHUB/reincatalyze/data/processed/docking_pred/2023-May-31-1727_sub9_nm5_bs15_s42_ex16_mel10_mts10000_k50_ec075_g099_lra3e-4_lrc3e-3/82066193004a6cdbe54a2a950d109d8cafa96b54_ligand_9.pdbqt
 14 15 0 0 0
SMALL
GASTEIGER

@<TRIPOS>ATOM
      1  C          5.3490   -0.0970    1.9280 C.3     1  UNL1        0.0800
      2  C          4.4390    1.0600    1.8600 C.2     1  UNL1        0.1300
      3  C          4.8020    2.1140    0.8280 C.3     1  UNL1        0.0870
      4  O          3.4570    1.2630    2.5170 O.2     1  UNL1       -0.3000
      5  C          6.7810    0.1860    1.6940 C.3     1  UNL1        0.0430
      6  C          7.3190   -0.1310    0.3680 C.2     1  UNL1       -0.0440
      7  C          7.7060    0.8600   -0.5350 C.2     1  UNL1        0.0080
      8  C          7.4840   -1.4430   -0.0120 C.2     1  UNL1        0.0540
      9  C          8.2270    0.4910   -1.7480 C.2     1  UNL1        0.0510
     10  C          8.0200   -1.7930   -1.2610 C.2     1  UNL1        0.1660
     11  C          8.4010   -0.8140   -2.1520 C.2     1  UNL1        0.1650
     12  O          8.2950   -2.9970   -1.8970 O.2     1  UNL1       -0.4540
     13  O          8.8990   -1.4280   -3.3090 O.2     1  UNL1       -0.4540
     14  C          9.2510   -2.7380   -2.9150 C.3     1  UNL1        0.4680
@<TRIPOS>BOND
     1    13    14    1
     2    13    11    1
     3    14    12    1
     4    11     9    2
     5    11    10    1
     6    12    10    1
     7     9     7    1
     8    10     8    2
     9     7     6    2
    10     8     6    1
    11     6     5    1
    12     3     2    1
    13     5     1    1
    14     2     1    1
    15     2     4    2
