MODEL 1
REMARK VINA RESULT:      -7.7      0.000      0.000
REMARK SMILES CC(=O)CCc1ccc2c(c1)OCO2
REMARK SMILES IDX 4 1 2 2 1 3 3 4 5 5 6 6 7 7 11 8 8 9 10 10 9 11 12 12 14 13
REMARK SMILES IDX 13 14
REMARK H PARENT
REMARK Flexibility Score: inf
ROOT
ATOM      1  C   UNL     1       5.523   1.870   1.233  1.00  0.00     0.080 C 
ENDROOT
BRANCH   1   2
ATOM      2  C   UNL     1       4.961   0.741   1.997  1.00  0.00     0.130 C 
ATOM      3  C   UNL     1       5.845  -0.492   2.079  1.00  0.00     0.087 C 
ATOM      4  O   UNL     1       3.902   0.685   2.554  1.00  0.00    -0.300 OA
ENDBRANCH   1   2
BRANCH   1   5
ATOM      5  C   UNL     1       5.514   1.729  -0.239  1.00  0.00     0.043 C 
BRANCH   5   6
ATOM      6  C   UNL     1       6.621   0.987  -0.847  1.00  0.00    -0.044 A 
ATOM      7  C   UNL     1       7.954   1.369  -0.682  1.00  0.00     0.008 A 
ATOM      8  C   UNL     1       6.367  -0.144  -1.589  1.00  0.00     0.054 A 
ATOM      9  C   UNL     1       8.941   0.613  -1.257  1.00  0.00     0.051 A 
ATOM     10  C   UNL     1       7.398  -0.900  -2.167  1.00  0.00     0.166 A 
ATOM     11  C   UNL     1       8.713  -0.522  -2.004  1.00  0.00     0.165 A 
ATOM     12  O   UNL     1       7.440  -2.052  -2.943  1.00  0.00    -0.454 OA
ATOM     13  O   UNL     1       9.531  -1.439  -2.675  1.00  0.00    -0.454 OA
ATOM     14  C   UNL     1       8.744  -2.602  -2.826  1.00  0.00     0.468 C 
ENDBRANCH   5   6
ENDBRANCH   1   5
TORSDOF 3
ENDMDL
MODEL 2
REMARK VINA RESULT:      -7.1      1.816      2.286
REMARK SMILES CC(=O)CCc1ccc2c(c1)OCO2
REMARK SMILES IDX 4 1 2 2 1 3 3 4 5 5 6 6 7 7 11 8 8 9 10 10 9 11 12 12 14 13
REMARK SMILES IDX 13 14
REMARK H PARENT
REMARK Flexibility Score: inf
ROOT
ATOM      1  C   UNL     1       5.774   1.429  -0.243  1.00  0.00     0.080 C 
ENDROOT
BRANCH   1   2
ATOM      2  C   UNL     1       5.114   1.349   1.072  1.00  0.00     0.130 C 
ATOM      3  C   UNL     1       5.509   0.155   1.926  1.00  0.00     0.087 C 
ATOM      4  O   UNL     1       4.313   2.107   1.541  1.00  0.00    -0.300 OA
ENDBRANCH   1   2
BRANCH   1   5
ATOM      5  C   UNL     1       7.202   1.049  -0.280  1.00  0.00     0.043 C 
BRANCH   5   6
ATOM      6  C   UNL     1       7.535  -0.252  -0.867  1.00  0.00    -0.044 A 
ATOM      7  C   UNL     1       7.589  -0.454  -2.247  1.00  0.00     0.008 A 
ATOM      8  C   UNL     1       7.835  -1.319  -0.051  1.00  0.00     0.054 A 
ATOM      9  C   UNL     1       7.934  -1.691  -2.726  1.00  0.00     0.051 A 
ATOM     10  C   UNL     1       8.185  -2.575  -0.569  1.00  0.00     0.166 A 
ATOM     11  C   UNL     1       8.238  -2.774  -1.931  1.00  0.00     0.165 A 
ATOM     12  O   UNL     1       8.528  -3.797  -0.005  1.00  0.00    -0.454 OA
ATOM     13  O   UNL     1       8.609  -4.102  -2.178  1.00  0.00    -0.454 OA
ATOM     14  C   UNL     1       9.230  -4.543  -0.989  1.00  0.00     0.468 C 
ENDBRANCH   5   6
ENDBRANCH   1   5
TORSDOF 3
ENDMDL
MODEL 3
REMARK VINA RESULT:      -7.0      1.035      1.118
REMARK SMILES CC(=O)CCc1ccc2c(c1)OCO2
REMARK SMILES IDX 4 1 2 2 1 3 3 4 5 5 6 6 7 7 11 8 8 9 10 10 9 11 12 12 14 13
REMARK SMILES IDX 13 14
REMARK H PARENT
REMARK Flexibility Score: inf
ROOT
ATOM      1  C   UNL     1       6.166   1.250   0.885  1.00  0.00     0.080 C 
ENDROOT
BRANCH   1   2
ATOM      2  C   UNL     1       5.513   0.420   1.914  1.00  0.00     0.130 C 
ATOM      3  C   UNL     1       6.323  -0.771   2.398  1.00  0.00     0.087 C 
ATOM      4  O   UNL     1       4.432   0.573   2.406  1.00  0.00    -0.300 OA
ENDBRANCH   1   2
BRANCH   1   5
ATOM      5  C   UNL     1       5.849   0.915  -0.519  1.00  0.00     0.043 C 
BRANCH   5   6
ATOM      6  C   UNL     1       6.850   0.151  -1.269  1.00  0.00    -0.044 A 
ATOM      7  C   UNL     1       7.875   0.771  -1.986  1.00  0.00     0.008 A 
ATOM      8  C   UNL     1       6.816  -1.224  -1.259  1.00  0.00     0.054 A 
ATOM      9  C   UNL     1       8.794  -0.007  -2.642  1.00  0.00     0.051 A 
ATOM     10  C   UNL     1       7.770  -1.995  -1.939  1.00  0.00     0.166 A 
ATOM     11  C   UNL     1       8.781  -1.384  -2.647  1.00  0.00     0.165 A 
ATOM     12  O   UNL     1       7.980  -3.359  -2.101  1.00  0.00    -0.454 OA
ATOM     13  O   UNL     1       9.587  -2.373  -3.226  1.00  0.00    -0.454 OA
ATOM     14  C   UNL     1       9.338  -3.544  -2.476  1.00  0.00     0.468 C 
ENDBRANCH   5   6
ENDBRANCH   1   5
TORSDOF 3
ENDMDL
MODEL 4
REMARK VINA RESULT:      -6.8      1.956      2.489
REMARK SMILES CC(=O)CCc1ccc2c(c1)OCO2
REMARK SMILES IDX 4 1 2 2 1 3 3 4 5 5 6 6 7 7 11 8 8 9 10 10 9 11 12 12 14 13
REMARK SMILES IDX 13 14
REMARK H PARENT
REMARK Flexibility Score: inf
ROOT
ATOM      1  C   UNL     1       5.687   0.082   1.969  1.00  0.00     0.080 C 
ENDROOT
BRANCH   1   2
ATOM      2  C   UNL     1       4.699   1.140   1.688  1.00  0.00     0.130 C 
ATOM      3  C   UNL     1       5.036   2.050   0.519  1.00  0.00     0.087 C 
ATOM      4  O   UNL     1       3.674   1.361   2.267  1.00  0.00    -0.300 OA
ENDBRANCH   1   2
BRANCH   1   5
ATOM      5  C   UNL     1       7.015   0.249   1.342  1.00  0.00     0.043 C 
BRANCH   5   6
ATOM      6  C   UNL     1       7.402  -0.731   0.323  1.00  0.00    -0.044 A 
ATOM      7  C   UNL     1       7.376  -0.435  -1.041  1.00  0.00     0.008 A 
ATOM      8  C   UNL     1       7.836  -1.981   0.698  1.00  0.00     0.054 A 
ATOM      9  C   UNL     1       7.779  -1.390  -1.938  1.00  0.00     0.051 A 
ATOM     10  C   UNL     1       8.243  -2.940  -0.242  1.00  0.00     0.166 A 
ATOM     11  C   UNL     1       8.216  -2.648  -1.588  1.00  0.00     0.165 A 
ATOM     12  O   UNL     1       8.714  -4.244  -0.157  1.00  0.00    -0.454 OA
ATOM     13  O   UNL     1       8.667  -3.767  -2.300  1.00  0.00    -0.454 OA
ATOM     14  C   UNL     1       9.400  -4.533  -1.366  1.00  0.00     0.468 C 
ENDBRANCH   5   6
ENDBRANCH   1   5
TORSDOF 3
ENDMDL
MODEL 5
REMARK VINA RESULT:      -6.8      1.161      1.652
REMARK SMILES CC(=O)CCc1ccc2c(c1)OCO2
REMARK SMILES IDX 4 1 2 2 1 3 3 4 5 5 6 6 7 7 11 8 8 9 10 10 9 11 12 12 14 13
REMARK SMILES IDX 13 14
REMARK H PARENT
REMARK Flexibility Score: inf
ROOT
ATOM      1  C   UNL     1       5.349  -0.097   1.928  1.00  0.00     0.080 C 
ENDROOT
BRANCH   1   2
ATOM      2  C   UNL     1       4.439   1.060   1.860  1.00  0.00     0.130 C 
ATOM      3  C   UNL     1       4.802   2.114   0.828  1.00  0.00     0.087 C 
ATOM      4  O   UNL     1       3.457   1.263   2.517  1.00  0.00    -0.300 OA
ENDBRANCH   1   2
BRANCH   1   5
ATOM      5  C   UNL     1       6.781   0.186   1.694  1.00  0.00     0.043 C 
BRANCH   5   6
ATOM      6  C   UNL     1       7.319  -0.131   0.368  1.00  0.00    -0.044 A 
ATOM      7  C   UNL     1       7.706   0.860  -0.535  1.00  0.00     0.008 A 
ATOM      8  C   UNL     1       7.484  -1.443  -0.012  1.00  0.00     0.054 A 
ATOM      9  C   UNL     1       8.227   0.491  -1.748  1.00  0.00     0.051 A 
ATOM     10  C   UNL     1       8.020  -1.793  -1.261  1.00  0.00     0.166 A 
ATOM     11  C   UNL     1       8.401  -0.814  -2.152  1.00  0.00     0.165 A 
ATOM     12  O   UNL     1       8.295  -2.997  -1.897  1.00  0.00    -0.454 OA
ATOM     13  O   UNL     1       8.899  -1.428  -3.309  1.00  0.00    -0.454 OA
ATOM     14  C   UNL     1       9.251  -2.738  -2.915  1.00  0.00     0.468 C 
ENDBRANCH   5   6
ENDBRANCH   1   5
TORSDOF 3
ENDMDL
