@<TRIPOS>MOLECULE
/home/cewinharhar/GITHUB/reincatalyze/data/processed/docking_pred/2023-May-31-1727_sub9_nm5_bs15_s42_ex16_mel10_mts10000_k50_ec075_g099_lra3e-4_lrc3e-3/82066193004a6cdbe54a2a950d109d8cafa96b54_ligand_9.pdbqt
 14 15 0 0 0
SMALL
GASTEIGER

@<TRIPOS>ATOM
      1  C          5.7740    1.4290   -0.2430 C.3     1  UNL1        0.0800
      2  C          5.1140    1.3490    1.0720 C.2     1  UNL1        0.1300
      3  C          5.5090    0.1550    1.9260 C.3     1  UNL1        0.0870
      4  O          4.3130    2.1070    1.5410 O.2     1  UNL1       -0.3000
      5  C          7.2020    1.0490   -0.2800 C.3     1  UNL1        0.0430
      6  C          7.5350   -0.2520   -0.8670 C.2     1  UNL1       -0.0440
      7  C          7.5890   -0.4540   -2.2470 C.2     1  UNL1        0.0080
      8  C          7.8350   -1.3190   -0.0510 C.2     1  UNL1        0.0540
      9  C          7.9340   -1.6910   -2.7260 C.2     1  UNL1        0.0510
     10  C          8.1850   -2.5750   -0.5690 C.2     1  UNL1        0.1660
     11  C          8.2380   -2.7740   -1.9310 C.2     1  UNL1        0.1650
     12  O          8.5280   -3.7970   -0.0050 O.2     1  UNL1       -0.4540
     13  O          8.6090   -4.1020   -2.1780 O.2     1  UNL1       -0.4540
     14  C          9.2300   -4.5430   -0.9890 C.3     1  UNL1        0.4680
@<TRIPOS>BOND
     1     9     7    1
     2     9    11    2
     3     7     6    2
     4    13    11    1
     5    13    14    1
     6    11    10    1
     7    14    12    1
     8     6     5    1
     9     6     8    1
    10    10     8    2
    11    10    12    1
    12     5     1    1
    13     1     2    1
    14     2     4    2
    15     2     3    1
