@<TRIPOS>MOLECULE
/home/cewinharhar/GITHUB/reincatalyze/data/processed/docking_pred/2023-May-31-1727_sub9_nm5_bs15_s42_ex16_mel10_mts10000_k50_ec075_g099_lra3e-4_lrc3e-3/8651a6b7cbc4b018fd9bb7015a505d05e6fdae34_ligand_9.pdbqt
 14 15 0 0 0
SMALL
GASTEIGER

@<TRIPOS>ATOM
      1  C          5.7460    1.7420    1.2820 C.3     1  UNL1        0.0800
      2  C          5.1640    0.6120    2.0280 C.2     1  UNL1        0.1300
      3  C          6.0700   -0.5970    2.1890 C.3     1  UNL1        0.0870
      4  O          4.0720    0.5380    2.5170 O.2     1  UNL1       -0.3000
      5  C          5.7010    1.6410   -0.1920 C.3     1  UNL1        0.0430
      6  C          6.7730    0.8840   -0.8460 C.2     1  UNL1       -0.0440
      7  C          8.1120    1.2670   -0.7610 C.2     1  UNL1        0.0080
      8  C          6.4770   -0.2610   -1.5480 C.2     1  UNL1        0.0540
      9  C          9.0660    0.4970   -1.3740 C.2     1  UNL1        0.0510
     10  C          7.4740   -1.0310   -2.1670 C.2     1  UNL1        0.1660
     11  C          8.7960   -0.6520   -2.0840 C.2     1  UNL1        0.1650
     12  O          7.4720   -2.1990   -2.9200 O.2     1  UNL1       -0.4540
     13  O          9.5760   -1.5850   -2.7800 O.2     1  UNL1       -0.4540
     14  C          8.7800   -2.7490   -2.8630 C.3     1  UNL1        0.4680
@<TRIPOS>BOND
     1    12    14    1
     2    12    10    1
     3    14    13    1
     4    13    11    1
     5    10    11    2
     6    10     8    1
     7    11     9    1
     8     8     6    2
     9     9     7    2
    10     6     7    1
    11     6     5    1
    12     5     1    1
    13     1     2    1
    14     2     3    1
    15     2     4    2
