MODEL 1
REMARK VINA RESULT:      -7.6      0.000      0.000
REMARK SMILES CC(=O)CCc1ccc2c(c1)OCO2
REMARK SMILES IDX 4 1 2 2 1 3 3 4 5 5 6 6 7 7 11 8 8 9 10 10 9 11 12 12 14 13
REMARK SMILES IDX 13 14
REMARK H PARENT
REMARK Flexibility Score: inf
ROOT
ATOM      1  C   UNL     1       5.645   1.826   1.294  1.00  0.00     0.080 C 
ENDROOT
BRANCH   1   2
ATOM      2  C   UNL     1       5.022   0.701   2.015  1.00  0.00     0.130 C 
ATOM      3  C   UNL     1       5.869  -0.557   2.111  1.00  0.00     0.087 C 
ATOM      4  O   UNL     1       3.940   0.665   2.528  1.00  0.00    -0.300 OA
ENDBRANCH   1   2
BRANCH   1   5
ATOM      5  C   UNL     1       5.635   1.739  -0.182  1.00  0.00     0.043 C 
BRANCH   5   6
ATOM      6  C   UNL     1       6.718   0.981  -0.815  1.00  0.00    -0.044 A 
ATOM      7  C   UNL     1       8.060   1.332  -0.663  1.00  0.00     0.008 A 
ATOM      8  C   UNL     1       6.429  -0.134  -1.568  1.00  0.00     0.054 A 
ATOM      9  C   UNL     1       9.023   0.561  -1.262  1.00  0.00     0.051 A 
ATOM     10  C   UNL     1       7.435  -0.905  -2.170  1.00  0.00     0.166 A 
ATOM     11  C   UNL     1       8.759  -0.558  -2.020  1.00  0.00     0.165 A 
ATOM     12  O   UNL     1       7.441  -2.047  -2.961  1.00  0.00    -0.454 OA
ATOM     13  O   UNL     1       9.549  -1.484  -2.714  1.00  0.00    -0.454 OA
ATOM     14  C   UNL     1       8.734  -2.627  -2.869  1.00  0.00     0.468 C 
ENDBRANCH   5   6
ENDBRANCH   1   5
TORSDOF 3
ENDMDL
MODEL 2
REMARK VINA RESULT:      -7.0      1.825      2.284
REMARK SMILES CC(=O)CCc1ccc2c(c1)OCO2
REMARK SMILES IDX 4 1 2 2 1 3 3 4 5 5 6 6 7 7 11 8 8 9 10 10 9 11 12 12 14 13
REMARK SMILES IDX 13 14
REMARK H PARENT
REMARK Flexibility Score: inf
ROOT
ATOM      1  C   UNL     1       5.775   1.406  -0.257  1.00  0.00     0.080 C 
ENDROOT
BRANCH   1   2
ATOM      2  C   UNL     1       5.113   1.333   1.058  1.00  0.00     0.130 C 
ATOM      3  C   UNL     1       5.514   0.151   1.924  1.00  0.00     0.087 C 
ATOM      4  O   UNL     1       4.305   2.090   1.517  1.00  0.00    -0.300 OA
ENDBRANCH   1   2
BRANCH   1   5
ATOM      5  C   UNL     1       7.204   1.028  -0.288  1.00  0.00     0.043 C 
BRANCH   5   6
ATOM      6  C   UNL     1       7.541  -0.272  -0.873  1.00  0.00    -0.044 A 
ATOM      7  C   UNL     1       7.612  -0.472  -2.253  1.00  0.00     0.008 A 
ATOM      8  C   UNL     1       7.827  -1.341  -0.056  1.00  0.00     0.054 A 
ATOM      9  C   UNL     1       7.960  -1.709  -2.730  1.00  0.00     0.051 A 
ATOM     10  C   UNL     1       8.181  -2.597  -0.572  1.00  0.00     0.166 A 
ATOM     11  C   UNL     1       8.251  -2.794  -1.934  1.00  0.00     0.165 A 
ATOM     12  O   UNL     1       8.514  -3.822  -0.006  1.00  0.00    -0.454 OA
ATOM     13  O   UNL     1       8.621  -4.122  -2.179  1.00  0.00    -0.454 OA
ATOM     14  C   UNL     1       9.227  -4.567  -0.982  1.00  0.00     0.468 C 
ENDBRANCH   5   6
ENDBRANCH   1   5
TORSDOF 3
ENDMDL
MODEL 3
REMARK VINA RESULT:      -7.0      1.129      1.231
REMARK SMILES CC(=O)CCc1ccc2c(c1)OCO2
REMARK SMILES IDX 4 1 2 2 1 3 3 4 5 5 6 6 7 7 11 8 8 9 10 10 9 11 12 12 14 13
REMARK SMILES IDX 13 14
REMARK H PARENT
REMARK Flexibility Score: inf
ROOT
ATOM      1  C   UNL     1       6.266   1.164   0.899  1.00  0.00     0.080 C 
ENDROOT
BRANCH   1   2
ATOM      2  C   UNL     1       5.567   0.379   1.933  1.00  0.00     0.130 C 
ATOM      3  C   UNL     1       6.316  -0.842   2.440  1.00  0.00     0.087 C 
ATOM      4  O   UNL     1       4.490   0.590   2.414  1.00  0.00    -0.300 OA
ENDBRANCH   1   2
BRANCH   1   5
ATOM      5  C   UNL     1       5.912   0.856  -0.502  1.00  0.00     0.043 C 
BRANCH   5   6
ATOM      6  C   UNL     1       6.878   0.077  -1.282  1.00  0.00    -0.044 A 
ATOM      7  C   UNL     1       7.778   0.677  -2.165  1.00  0.00     0.008 A 
ATOM      8  C   UNL     1       6.939  -1.289  -1.137  1.00  0.00     0.054 A 
ATOM      9  C   UNL     1       8.673  -0.110  -2.842  1.00  0.00     0.051 A 
ATOM     10  C   UNL     1       7.866  -2.071  -1.843  1.00  0.00     0.166 A 
ATOM     11  C   UNL     1       8.753  -1.479  -2.714  1.00  0.00     0.165 A 
ATOM     12  O   UNL     1       8.149  -3.430  -1.896  1.00  0.00    -0.454 OA
ATOM     13  O   UNL     1       9.558  -2.475  -3.282  1.00  0.00    -0.454 OA
ATOM     14  C   UNL     1       9.469  -3.575  -2.401  1.00  0.00     0.468 C 
ENDBRANCH   5   6
ENDBRANCH   1   5
TORSDOF 3
ENDMDL
MODEL 4
REMARK VINA RESULT:      -6.8      1.176      1.631
REMARK SMILES CC(=O)CCc1ccc2c(c1)OCO2
REMARK SMILES IDX 4 1 2 2 1 3 3 4 5 5 6 6 7 7 11 8 8 9 10 10 9 11 12 12 14 13
REMARK SMILES IDX 13 14
REMARK H PARENT
REMARK Flexibility Score: inf
ROOT
ATOM      1  C   UNL     1       5.387  -0.039   1.973  1.00  0.00     0.080 C 
ENDROOT
BRANCH   1   2
ATOM      2  C   UNL     1       4.433   1.081   1.873  1.00  0.00     0.130 C 
ATOM      3  C   UNL     1       4.764   2.125   0.819  1.00  0.00     0.087 C 
ATOM      4  O   UNL     1       3.439   1.260   2.518  1.00  0.00    -0.300 OA
ENDBRANCH   1   2
BRANCH   1   5
ATOM      5  C   UNL     1       6.803   0.287   1.707  1.00  0.00     0.043 C 
BRANCH   5   6
ATOM      6  C   UNL     1       7.334  -0.060   0.385  1.00  0.00    -0.044 A 
ATOM      7  C   UNL     1       7.750   0.910  -0.528  1.00  0.00     0.008 A 
ATOM      8  C   UNL     1       7.463  -1.380   0.020  1.00  0.00     0.054 A 
ATOM      9  C   UNL     1       8.263   0.513  -1.736  1.00  0.00     0.051 A 
ATOM     10  C   UNL     1       7.991  -1.759  -1.223  1.00  0.00     0.166 A 
ATOM     11  C   UNL     1       8.401  -0.801  -2.125  1.00  0.00     0.165 A 
ATOM     12  O   UNL     1       8.233  -2.977  -1.846  1.00  0.00    -0.454 OA
ATOM     13  O   UNL     1       8.883  -1.441  -3.274  1.00  0.00    -0.454 OA
ATOM     14  C   UNL     1       9.198  -2.756  -2.865  1.00  0.00     0.468 C 
ENDBRANCH   5   6
ENDBRANCH   1   5
TORSDOF 3
ENDMDL
MODEL 5
REMARK VINA RESULT:      -6.5      2.228      2.634
REMARK SMILES CC(=O)CCc1ccc2c(c1)OCO2
REMARK SMILES IDX 4 1 2 2 1 3 3 4 5 5 6 6 7 7 11 8 8 9 10 10 9 11 12 12 14 13
REMARK SMILES IDX 13 14
REMARK H PARENT
REMARK Flexibility Score: inf
ROOT
ATOM      1  C   UNL     1       6.527   1.282   0.043  1.00  0.00     0.080 C 
ENDROOT
BRANCH   1   2
ATOM      2  C   UNL     1       5.283   1.380   0.828  1.00  0.00     0.130 C 
ATOM      3  C   UNL     1       5.151   0.380   1.964  1.00  0.00     0.087 C 
ATOM      4  O   UNL     1       4.376   2.149   0.677  1.00  0.00    -0.300 OA
ENDBRANCH   1   2
BRANCH   1   5
ATOM      5  C   UNL     1       6.559   0.232  -0.997  1.00  0.00     0.043 C 
BRANCH   5   6
ATOM      6  C   UNL     1       7.302  -0.993  -0.691  1.00  0.00    -0.044 A 
ATOM      7  C   UNL     1       7.557  -1.401   0.620  1.00  0.00     0.008 A 
ATOM      8  C   UNL     1       7.751  -1.799  -1.711  1.00  0.00     0.054 A 
ATOM      9  C   UNL     1       8.236  -2.572   0.833  1.00  0.00     0.051 A 
ATOM     10  C   UNL     1       8.443  -2.995  -1.464  1.00  0.00     0.166 A 
ATOM     11  C   UNL     1       8.695  -3.396  -0.170  1.00  0.00     0.165 A 
ATOM     12  O   UNL     1       8.999  -3.981  -2.270  1.00  0.00    -0.454 OA
ATOM     13  O   UNL     1       9.394  -4.610  -0.204  1.00  0.00    -0.454 OA
ATOM     14  C   UNL     1       9.136  -5.154  -1.482  1.00  0.00     0.468 C 
ENDBRANCH   5   6
ENDBRANCH   1   5
TORSDOF 3
ENDMDL
