@<TRIPOS>MOLECULE
/home/cewinharhar/GITHUB/reincatalyze/data/processed/docking_pred/2023-May-31-1727_sub9_nm5_bs15_s42_ex16_mel10_mts10000_k50_ec075_g099_lra3e-4_lrc3e-3/86abca178b5bca4973d3a72a1df8ea50f2d75826_ligand_9.pdbqt
 14 15 0 0 0
SMALL
GASTEIGER

@<TRIPOS>ATOM
      1  C          6.2660    1.1640    0.8990 C.3     1  UNL1        0.0800
      2  C          5.5670    0.3790    1.9330 C.2     1  UNL1        0.1300
      3  C          6.3160   -0.8420    2.4400 C.3     1  UNL1        0.0870
      4  O          4.4900    0.5900    2.4140 O.2     1  UNL1       -0.3000
      5  C          5.9120    0.8560   -0.5020 C.3     1  UNL1        0.0430
      6  C          6.8780    0.0770   -1.2820 C.2     1  UNL1       -0.0440
      7  C          7.7780    0.6770   -2.1650 C.2     1  UNL1        0.0080
      8  C          6.9390   -1.2890   -1.1370 C.2     1  UNL1        0.0540
      9  C          8.6730   -0.1100   -2.8420 C.2     1  UNL1        0.0510
     10  C          7.8660   -2.0710   -1.8430 C.2     1  UNL1        0.1660
     11  C          8.7530   -1.4790   -2.7140 C.2     1  UNL1        0.1650
     12  O          8.1490   -3.4300   -1.8960 O.2     1  UNL1       -0.4540
     13  O          9.5580   -2.4750   -3.2820 O.2     1  UNL1       -0.4540
     14  C          9.4690   -3.5750   -2.4010 C.3     1  UNL1        0.4680
@<TRIPOS>BOND
     1    13    11    1
     2    13    14    1
     3     9    11    2
     4     9     7    1
     5    11    10    1
     6    14    12    1
     7     7     6    2
     8    12    10    1
     9    10     8    2
    10     6     8    1
    11     6     5    1
    12     5     1    1
    13     1     2    1
    14     2     4    2
    15     2     3    1
