@<TRIPOS>MOLECULE
/home/cewinharhar/GITHUB/reincatalyze/data/processed/docking_pred/2023-May-31-1727_sub9_nm5_bs15_s42_ex16_mel10_mts10000_k50_ec075_g099_lra3e-4_lrc3e-3/86abca178b5bca4973d3a72a1df8ea50f2d75826_ligand_9.pdbqt
 14 15 0 0 0
SMALL
GASTEIGER

@<TRIPOS>ATOM
      1  C          5.3870   -0.0390    1.9730 C.3     1  UNL1        0.0800
      2  C          4.4330    1.0810    1.8730 C.2     1  UNL1        0.1300
      3  C          4.7640    2.1250    0.8190 C.3     1  UNL1        0.0870
      4  O          3.4390    1.2600    2.5180 O.2     1  UNL1       -0.3000
      5  C          6.8030    0.2870    1.7070 C.3     1  UNL1        0.0430
      6  C          7.3340   -0.0600    0.3850 C.2     1  UNL1       -0.0440
      7  C          7.7500    0.9100   -0.5280 C.2     1  UNL1        0.0080
      8  C          7.4630   -1.3800    0.0200 C.2     1  UNL1        0.0540
      9  C          8.2630    0.5130   -1.7360 C.2     1  UNL1        0.0510
     10  C          7.9910   -1.7590   -1.2230 C.2     1  UNL1        0.1660
     11  C          8.4010   -0.8010   -2.1250 C.2     1  UNL1        0.1650
     12  O          8.2330   -2.9770   -1.8460 O.2     1  UNL1       -0.4540
     13  O          8.8830   -1.4410   -3.2740 O.2     1  UNL1       -0.4540
     14  C          9.1980   -2.7560   -2.8650 C.3     1  UNL1        0.4680
@<TRIPOS>BOND
     1    13    14    1
     2    13    11    1
     3    14    12    1
     4    11     9    2
     5    11    10    1
     6    12    10    1
     7     9     7    1
     8    10     8    2
     9     7     6    2
    10     8     6    1
    11     6     5    1
    12     3     2    1
    13     5     1    1
    14     2     1    1
    15     2     4    2
