@<TRIPOS>MOLECULE
/home/cewinharhar/GITHUB/reincatalyze/data/processed/docking_pred/2023-May-31-1727_sub9_nm5_bs15_s42_ex16_mel10_mts10000_k50_ec075_g099_lra3e-4_lrc3e-3/86abca178b5bca4973d3a72a1df8ea50f2d75826_ligand_9.pdbqt
 14 15 0 0 0
SMALL
GASTEIGER

@<TRIPOS>ATOM
      1  C          6.5270    1.2820    0.0430 C.3     1  UNL1        0.0800
      2  C          5.2830    1.3800    0.8280 C.2     1  UNL1        0.1300
      3  C          5.1510    0.3800    1.9640 C.3     1  UNL1        0.0870
      4  O          4.3760    2.1490    0.6770 O.2     1  UNL1       -0.3000
      5  C          6.5590    0.2320   -0.9970 C.3     1  UNL1        0.0430
      6  C          7.3020   -0.9930   -0.6910 C.2     1  UNL1       -0.0440
      7  C          7.5570   -1.4010    0.6200 C.2     1  UNL1        0.0080
      8  C          7.7510   -1.7990   -1.7110 C.2     1  UNL1        0.0540
      9  C          8.2360   -2.5720    0.8330 C.2     1  UNL1        0.0510
     10  C          8.4430   -2.9950   -1.4640 C.2     1  UNL1        0.1660
     11  C          8.6950   -3.3960   -0.1700 C.2     1  UNL1        0.1650
     12  O          8.9990   -3.9810   -2.2700 O.2     1  UNL1       -0.4540
     13  O          9.3940   -4.6100   -0.2040 O.2     1  UNL1       -0.4540
     14  C          9.1360   -5.1540   -1.4820 C.3     1  UNL1        0.4680
@<TRIPOS>BOND
     1    12    14    1
     2    12    10    1
     3     8    10    1
     4     8     6    2
     5    14    13    1
     6    10    11    2
     7     5     6    1
     8     5     1    1
     9     6     7    1
    10    13    11    1
    11    11     9    1
    12     1     2    1
    13     7     9    2
    14     4     2    2
    15     2     3    1
