@<TRIPOS>MOLECULE
/home/cewinharhar/GITHUB/reincatalyze/data/processed/docking_pred/2023-May-31-1727_sub9_nm5_bs15_s42_ex16_mel10_mts10000_k50_ec075_g099_lra3e-4_lrc3e-3/87c24324279ed01ab1d4888e5c128f335f215516_ligand_9.pdbqt
 14 15 0 0 0
SMALL
GASTEIGER

@<TRIPOS>ATOM
      1  C          6.8700    1.0860    1.4200 C.3     1  UNL1        0.0800
      2  C          5.4040    1.2160    1.5000 C.2     1  UNL1        0.1300
      3  C          4.7780    2.1500    0.4780 C.3     1  UNL1        0.0870
      4  O          4.6580    0.6770    2.2680 O.2     1  UNL1       -0.3000
      5  C          7.4550    1.1290    0.0640 C.3     1  UNL1        0.0430
      6  C          7.7080   -0.1540   -0.5980 C.2     1  UNL1       -0.0440
      7  C          7.7590   -0.2780   -1.9880 C.2     1  UNL1        0.0080
      8  C          7.9340   -1.2840    0.1540 C.2     1  UNL1        0.0540
      9  C          8.0280   -1.5040   -2.5380 C.2     1  UNL1        0.0510
     10  C          8.2080   -2.5270   -0.4370 C.2     1  UNL1        0.1660
     11  C          8.2570   -2.6490   -1.8080 C.2     1  UNL1        0.1650
     12  O          8.4690   -3.8000    0.0550 O.2     1  UNL1       -0.4540
     13  O          8.5450   -3.9810   -2.1320 O.2     1  UNL1       -0.4540
     14  C          9.1290   -4.5300   -0.9690 C.3     1  UNL1        0.4680
@<TRIPOS>BOND
     1     9     7    1
     2     9    11    2
     3    13    11    1
     4    13    14    1
     5     7     6    2
     6    11    10    1
     7    14    12    1
     8     6     5    1
     9     6     8    1
    10    10    12    1
    11    10     8    2
    12     5     1    1
    13     3     2    1
    14     1     2    1
    15     2     4    2
