@<TRIPOS>MOLECULE
/home/cewinharhar/GITHUB/reincatalyze/data/processed/docking_pred/2023-May-31-1727_sub9_nm5_bs15_s42_ex16_mel10_mts10000_k50_ec075_g099_lra3e-4_lrc3e-3/87c24324279ed01ab1d4888e5c128f335f215516_ligand_9.pdbqt
 14 15 0 0 0
SMALL
GASTEIGER

@<TRIPOS>ATOM
      1  C          5.3770   -0.0860    1.9300 C.3     1  UNL1        0.0800
      2  C          4.4420    1.0520    1.8710 C.2     1  UNL1        0.1300
      3  C          4.7570    2.0970    0.8150 C.3     1  UNL1        0.0870
      4  O          3.4740    1.2450    2.5500 O.2     1  UNL1       -0.3000
      5  C          6.8010    0.2270    1.6880 C.3     1  UNL1        0.0430
      6  C          7.3490   -0.1190    0.3740 C.2     1  UNL1       -0.0440
      7  C          7.7930    0.8510   -0.5260 C.2     1  UNL1        0.0080
      8  C          7.4670   -1.4380    0.0030 C.2     1  UNL1        0.0540
      9  C          8.3200    0.4540   -1.7280 C.2     1  UNL1        0.0510
     10  C          8.0110   -1.8170   -1.2340 C.2     1  UNL1        0.1660
     11  C          8.4480   -0.8590   -2.1220 C.2     1  UNL1        0.1650
     12  O          8.2470   -3.0350   -1.8600 O.2     1  UNL1       -0.4540
     13  O          8.9410   -1.4990   -3.2670 O.2     1  UNL1       -0.4540
     14  C          9.2310   -2.8200   -2.8610 C.3     1  UNL1        0.4680
@<TRIPOS>BOND
     1    13    14    1
     2    13    11    1
     3    14    12    1
     4    11     9    2
     5    11    10    1
     6    12    10    1
     7     9     7    1
     8    10     8    2
     9     7     6    2
    10     8     6    1
    11     6     5    1
    12     3     2    1
    13     5     1    1
    14     2     1    1
    15     2     4    2
