@<TRIPOS>MOLECULE
/home/cewinharhar/GITHUB/reincatalyze/data/processed/docking_pred/2023-May-31-1727_sub9_nm5_bs15_s42_ex16_mel10_mts10000_k50_ec075_g099_lra3e-4_lrc3e-3/87c24324279ed01ab1d4888e5c128f335f215516_ligand_9.pdbqt
 14 15 0 0 0
SMALL
GASTEIGER

@<TRIPOS>ATOM
      1  C          5.8210    1.4230   -0.2900 C.3     1  UNL1        0.0800
      2  C          5.1150    1.3760    1.0030 C.2     1  UNL1        0.1300
      3  C          5.4690    0.1990    1.8950 C.3     1  UNL1        0.0870
      4  O          4.3030    2.1500    1.4260 O.2     1  UNL1       -0.3000
      5  C          7.2500    1.0470   -0.2660 C.3     1  UNL1        0.0430
      6  C          7.6150   -0.2390   -0.8670 C.2     1  UNL1       -0.0440
      7  C          7.8000   -0.3920   -2.2420 C.2     1  UNL1        0.0080
      8  C          7.8140   -1.3410   -0.0680 C.2     1  UNL1        0.0540
      9  C          8.1680   -1.6180   -2.7330 C.2     1  UNL1        0.0510
     10  C          8.1900   -2.5850   -0.5970 C.2     1  UNL1        0.1660
     11  C          8.3720   -2.7360   -1.9540 C.2     1  UNL1        0.1650
     12  O          8.4540   -3.8340   -0.0490 O.2     1  UNL1       -0.4540
     13  O          8.7420   -4.0620   -2.2140 O.2     1  UNL1       -0.4540
     14  C          9.2360   -4.5590   -0.9880 C.3     1  UNL1        0.4680
@<TRIPOS>BOND
     1     9     7    1
     2     9    11    2
     3     7     6    2
     4    13    11    1
     5    13    14    1
     6    11    10    1
     7    14    12    1
     8     6     5    1
     9     6     8    1
    10    10     8    2
    11    10    12    1
    12     1     5    1
    13     1     2    1
    14     2     4    2
    15     2     3    1
