MODEL 1
REMARK VINA RESULT:      -7.7      0.000      0.000
REMARK SMILES CC(=O)CCc1ccc2c(c1)OCO2
REMARK SMILES IDX 4 1 2 2 1 3 3 4 5 5 6 6 7 7 11 8 8 9 10 10 9 11 12 12 14 13
REMARK SMILES IDX 13 14
REMARK H PARENT
REMARK Flexibility Score: inf
ROOT
ATOM      1  C   UNL     1       5.518   1.904   1.210  1.00  0.00     0.080 C 
ENDROOT
BRANCH   1   2
ATOM      2  C   UNL     1       5.007   0.763   1.991  1.00  0.00     0.130 C 
ATOM      3  C   UNL     1       5.963  -0.409   2.133  1.00  0.00     0.087 C 
ATOM      4  O   UNL     1       3.937   0.654   2.521  1.00  0.00    -0.300 OA
ENDBRANCH   1   2
BRANCH   1   5
ATOM      5  C   UNL     1       5.508   1.744  -0.259  1.00  0.00     0.043 C 
BRANCH   5   6
ATOM      6  C   UNL     1       6.622   1.004  -0.860  1.00  0.00    -0.044 A 
ATOM      7  C   UNL     1       7.953   1.376  -0.666  1.00  0.00     0.008 A 
ATOM      8  C   UNL     1       6.374  -0.114  -1.621  1.00  0.00     0.054 A 
ATOM      9  C   UNL     1       8.945   0.622  -1.237  1.00  0.00     0.051 A 
ATOM     10  C   UNL     1       7.409  -0.869  -2.193  1.00  0.00     0.166 A 
ATOM     11  C   UNL     1       8.723  -0.501  -2.003  1.00  0.00     0.165 A 
ATOM     12  O   UNL     1       7.458  -2.010  -2.985  1.00  0.00    -0.454 OA
ATOM     13  O   UNL     1       9.548  -1.413  -2.674  1.00  0.00    -0.454 OA
ATOM     14  C   UNL     1       8.757  -2.569  -2.854  1.00  0.00     0.468 C 
ENDBRANCH   5   6
ENDBRANCH   1   5
TORSDOF 3
ENDMDL
MODEL 2
REMARK VINA RESULT:      -7.0      1.846      2.290
REMARK SMILES CC(=O)CCc1ccc2c(c1)OCO2
REMARK SMILES IDX 4 1 2 2 1 3 3 4 5 5 6 6 7 7 11 8 8 9 10 10 9 11 12 12 14 13
REMARK SMILES IDX 13 14
REMARK H PARENT
REMARK Flexibility Score: inf
ROOT
ATOM      1  C   UNL     1       5.821   1.423  -0.290  1.00  0.00     0.080 C 
ENDROOT
BRANCH   1   2
ATOM      2  C   UNL     1       5.115   1.376   1.003  1.00  0.00     0.130 C 
ATOM      3  C   UNL     1       5.469   0.199   1.895  1.00  0.00     0.087 C 
ATOM      4  O   UNL     1       4.303   2.150   1.426  1.00  0.00    -0.300 OA
ENDBRANCH   1   2
BRANCH   1   5
ATOM      5  C   UNL     1       7.250   1.047  -0.266  1.00  0.00     0.043 C 
BRANCH   5   6
ATOM      6  C   UNL     1       7.615  -0.239  -0.867  1.00  0.00    -0.044 A 
ATOM      7  C   UNL     1       7.800  -0.392  -2.242  1.00  0.00     0.008 A 
ATOM      8  C   UNL     1       7.814  -1.341  -0.068  1.00  0.00     0.054 A 
ATOM      9  C   UNL     1       8.168  -1.618  -2.733  1.00  0.00     0.051 A 
ATOM     10  C   UNL     1       8.190  -2.585  -0.597  1.00  0.00     0.166 A 
ATOM     11  C   UNL     1       8.372  -2.736  -1.954  1.00  0.00     0.165 A 
ATOM     12  O   UNL     1       8.454  -3.834  -0.049  1.00  0.00    -0.454 OA
ATOM     13  O   UNL     1       8.742  -4.062  -2.214  1.00  0.00    -0.454 OA
ATOM     14  C   UNL     1       9.236  -4.559  -0.988  1.00  0.00     0.468 C 
ENDBRANCH   5   6
ENDBRANCH   1   5
TORSDOF 3
ENDMDL
MODEL 3
REMARK VINA RESULT:      -7.0      1.043      1.135
REMARK SMILES CC(=O)CCc1ccc2c(c1)OCO2
REMARK SMILES IDX 4 1 2 2 1 3 3 4 5 5 6 6 7 7 11 8 8 9 10 10 9 11 12 12 14 13
REMARK SMILES IDX 13 14
REMARK H PARENT
REMARK Flexibility Score: inf
ROOT
ATOM      1  C   UNL     1       6.185   1.249   0.894  1.00  0.00     0.080 C 
ENDROOT
BRANCH   1   2
ATOM      2  C   UNL     1       5.555   0.398   1.920  1.00  0.00     0.130 C 
ATOM      3  C   UNL     1       6.370  -0.808   2.356  1.00  0.00     0.087 C 
ATOM      4  O   UNL     1       4.487   0.546   2.444  1.00  0.00    -0.300 OA
ENDBRANCH   1   2
BRANCH   1   5
ATOM      5  C   UNL     1       5.873   0.914  -0.511  1.00  0.00     0.043 C 
BRANCH   5   6
ATOM      6  C   UNL     1       6.876   0.150  -1.257  1.00  0.00    -0.044 A 
ATOM      7  C   UNL     1       7.915   0.769  -1.955  1.00  0.00     0.008 A 
ATOM      8  C   UNL     1       6.831  -1.225  -1.263  1.00  0.00     0.054 A 
ATOM      9  C   UNL     1       8.835  -0.009  -2.609  1.00  0.00     0.051 A 
ATOM     10  C   UNL     1       7.787  -1.997  -1.941  1.00  0.00     0.166 A 
ATOM     11  C   UNL     1       8.811  -1.386  -2.630  1.00  0.00     0.165 A 
ATOM     12  O   UNL     1       7.987  -3.360  -2.116  1.00  0.00    -0.454 OA
ATOM     13  O   UNL     1       9.616  -2.375  -3.210  1.00  0.00    -0.454 OA
ATOM     14  C   UNL     1       9.348  -3.552  -2.477  1.00  0.00     0.468 C 
ENDBRANCH   5   6
ENDBRANCH   1   5
TORSDOF 3
ENDMDL
MODEL 4
REMARK VINA RESULT:      -6.8      1.176      1.668
REMARK SMILES CC(=O)CCc1ccc2c(c1)OCO2
REMARK SMILES IDX 4 1 2 2 1 3 3 4 5 5 6 6 7 7 11 8 8 9 10 10 9 11 12 12 14 13
REMARK SMILES IDX 13 14
REMARK H PARENT
REMARK Flexibility Score: inf
ROOT
ATOM      1  C   UNL     1       5.377  -0.086   1.930  1.00  0.00     0.080 C 
ENDROOT
BRANCH   1   2
ATOM      2  C   UNL     1       4.442   1.052   1.871  1.00  0.00     0.130 C 
ATOM      3  C   UNL     1       4.757   2.097   0.815  1.00  0.00     0.087 C 
ATOM      4  O   UNL     1       3.474   1.245   2.550  1.00  0.00    -0.300 OA
ENDBRANCH   1   2
BRANCH   1   5
ATOM      5  C   UNL     1       6.801   0.227   1.688  1.00  0.00     0.043 C 
BRANCH   5   6
ATOM      6  C   UNL     1       7.349  -0.119   0.374  1.00  0.00    -0.044 A 
ATOM      7  C   UNL     1       7.793   0.851  -0.526  1.00  0.00     0.008 A 
ATOM      8  C   UNL     1       7.467  -1.438   0.003  1.00  0.00     0.054 A 
ATOM      9  C   UNL     1       8.320   0.454  -1.728  1.00  0.00     0.051 A 
ATOM     10  C   UNL     1       8.011  -1.817  -1.234  1.00  0.00     0.166 A 
ATOM     11  C   UNL     1       8.448  -0.859  -2.122  1.00  0.00     0.165 A 
ATOM     12  O   UNL     1       8.247  -3.035  -1.860  1.00  0.00    -0.454 OA
ATOM     13  O   UNL     1       8.941  -1.499  -3.267  1.00  0.00    -0.454 OA
ATOM     14  C   UNL     1       9.231  -2.820  -2.861  1.00  0.00     0.468 C 
ENDBRANCH   5   6
ENDBRANCH   1   5
TORSDOF 3
ENDMDL
MODEL 5
REMARK VINA RESULT:      -6.7      1.884      2.391
REMARK SMILES CC(=O)CCc1ccc2c(c1)OCO2
REMARK SMILES IDX 4 1 2 2 1 3 3 4 5 5 6 6 7 7 11 8 8 9 10 10 9 11 12 12 14 13
REMARK SMILES IDX 13 14
REMARK H PARENT
REMARK Flexibility Score: inf
ROOT
ATOM      1  C   UNL     1       6.870   1.086   1.420  1.00  0.00     0.080 C 
ENDROOT
BRANCH   1   2
ATOM      2  C   UNL     1       5.404   1.216   1.500  1.00  0.00     0.130 C 
ATOM      3  C   UNL     1       4.778   2.150   0.478  1.00  0.00     0.087 C 
ATOM      4  O   UNL     1       4.658   0.677   2.268  1.00  0.00    -0.300 OA
ENDBRANCH   1   2
BRANCH   1   5
ATOM      5  C   UNL     1       7.455   1.129   0.064  1.00  0.00     0.043 C 
BRANCH   5   6
ATOM      6  C   UNL     1       7.708  -0.154  -0.598  1.00  0.00    -0.044 A 
ATOM      7  C   UNL     1       7.759  -0.278  -1.988  1.00  0.00     0.008 A 
ATOM      8  C   UNL     1       7.934  -1.284   0.154  1.00  0.00     0.054 A 
ATOM      9  C   UNL     1       8.028  -1.504  -2.538  1.00  0.00     0.051 A 
ATOM     10  C   UNL     1       8.208  -2.527  -0.437  1.00  0.00     0.166 A 
ATOM     11  C   UNL     1       8.257  -2.649  -1.808  1.00  0.00     0.165 A 
ATOM     12  O   UNL     1       8.469  -3.800   0.055  1.00  0.00    -0.454 OA
ATOM     13  O   UNL     1       8.545  -3.981  -2.132  1.00  0.00    -0.454 OA
ATOM     14  C   UNL     1       9.129  -4.530  -0.969  1.00  0.00     0.468 C 
ENDBRANCH   5   6
ENDBRANCH   1   5
TORSDOF 3
ENDMDL
