@<TRIPOS>MOLECULE
/home/cewinharhar/GITHUB/reincatalyze/data/processed/docking_pred/2023-May-31-1727_sub9_nm5_bs15_s42_ex16_mel10_mts10000_k50_ec075_g099_lra3e-4_lrc3e-3/87c24324279ed01ab1d4888e5c128f335f215516_ligand_9.pdbqt
 14 15 0 0 0
SMALL
GASTEIGER

@<TRIPOS>ATOM
      1  C          5.5180    1.9040    1.2100 C.3     1  UNL1        0.0800
      2  C          5.0070    0.7630    1.9910 C.2     1  UNL1        0.1300
      3  C          5.9630   -0.4090    2.1330 C.3     1  UNL1        0.0870
      4  O          3.9370    0.6540    2.5210 O.2     1  UNL1       -0.3000
      5  C          5.5080    1.7440   -0.2590 C.3     1  UNL1        0.0430
      6  C          6.6220    1.0040   -0.8600 C.2     1  UNL1       -0.0440
      7  C          7.9530    1.3760   -0.6660 C.2     1  UNL1        0.0080
      8  C          6.3740   -0.1140   -1.6210 C.2     1  UNL1        0.0540
      9  C          8.9450    0.6220   -1.2370 C.2     1  UNL1        0.0510
     10  C          7.4090   -0.8690   -2.1930 C.2     1  UNL1        0.1660
     11  C          8.7230   -0.5010   -2.0030 C.2     1  UNL1        0.1650
     12  O          7.4580   -2.0100   -2.9850 O.2     1  UNL1       -0.4540
     13  O          9.5480   -1.4130   -2.6740 O.2     1  UNL1       -0.4540
     14  C          8.7570   -2.5690   -2.8540 C.3     1  UNL1        0.4680
@<TRIPOS>BOND
     1    12    14    1
     2    12    10    1
     3    14    13    1
     4    13    11    1
     5    10    11    2
     6    10     8    1
     7    11     9    1
     8     8     6    2
     9     9     7    2
    10     6     7    1
    11     6     5    1
    12     5     1    1
    13     1     2    1
    14     2     3    1
    15     2     4    2
