@<TRIPOS>MOLECULE
/home/cewinharhar/GITHUB/reincatalyze/data/processed/docking_pred/2023-May-31-1727_sub9_nm5_bs15_s42_ex16_mel10_mts10000_k50_ec075_g099_lra3e-4_lrc3e-3/895ea28dab147140afd805a2e235fc395d2e1c3a_ligand_9.pdbqt
 14 15 0 0 0
SMALL
GASTEIGER

@<TRIPOS>ATOM
      1  C          5.5770    1.8960    1.2340 C.3     1  UNL1        0.0800
      2  C          5.0640    0.7490    2.0050 C.2     1  UNL1        0.1300
      3  C          6.0330   -0.4080    2.1720 C.3     1  UNL1        0.0870
      4  O          3.9840    0.6270    2.5090 O.2     1  UNL1       -0.3000
      5  C          5.5610    1.7510   -0.2370 C.3     1  UNL1        0.0430
      6  C          6.6600    0.9990   -0.8490 C.2     1  UNL1       -0.0440
      7  C          7.9970    1.3560   -0.6680 C.2     1  UNL1        0.0080
      8  C          6.3920   -0.1150   -1.6090 C.2     1  UNL1        0.0540
      9  C          8.9760    0.5910   -1.2480 C.2     1  UNL1        0.0510
     10  C          7.4140   -0.8810   -2.1910 C.2     1  UNL1        0.1660
     11  C          8.7340   -0.5280   -2.0130 C.2     1  UNL1        0.1650
     12  O          7.4420   -2.0210   -2.9840 O.2     1  UNL1       -0.4540
     13  O          9.5420   -1.4490   -2.6920 O.2     1  UNL1       -0.4540
     14  C          8.7360   -2.5960   -2.8660 C.3     1  UNL1        0.4680
@<TRIPOS>BOND
     1    12    14    1
     2    12    10    1
     3    14    13    1
     4    13    11    1
     5    10    11    2
     6    10     8    1
     7    11     9    1
     8     8     6    2
     9     9     7    2
    10     6     7    1
    11     6     5    1
    12     5     1    1
    13     1     2    1
    14     2     3    1
    15     2     4    2
