@<TRIPOS>MOLECULE
/home/cewinharhar/GITHUB/reincatalyze/data/processed/docking_pred/2023-May-31-1727_sub9_nm5_bs15_s42_ex16_mel10_mts10000_k50_ec075_g099_lra3e-4_lrc3e-3/895ea28dab147140afd805a2e235fc395d2e1c3a_ligand_9.pdbqt
 14 15 0 0 0
SMALL
GASTEIGER

@<TRIPOS>ATOM
      1  C          6.8290    0.9560    1.3390 C.3     1  UNL1        0.0800
      2  C          5.3750    1.1860    1.4280 C.2     1  UNL1        0.1300
      3  C          4.8050    2.1500    0.4020 C.3     1  UNL1        0.0870
      4  O          4.6010    0.7060    2.2070 O.2     1  UNL1       -0.3000
      5  C          7.4140    1.0080   -0.0180 C.3     1  UNL1        0.0430
      6  C          7.6800   -0.2700   -0.6820 C.2     1  UNL1       -0.0440
      7  C          7.7270   -0.3910   -2.0720 C.2     1  UNL1        0.0080
      8  C          7.9230   -1.3980    0.0660 C.2     1  UNL1        0.0540
      9  C          8.0090   -1.6120   -2.6260 C.2     1  UNL1        0.0510
     10  C          8.2090   -2.6370   -0.5270 C.2     1  UNL1        0.1660
     11  C          8.2550   -2.7560   -1.8990 C.2     1  UNL1        0.1650
     12  O          8.4870   -3.9080   -0.0390 O.2     1  UNL1       -0.4540
     13  O          8.5580   -4.0840   -2.2260 O.2     1  UNL1       -0.4540
     14  C          9.1530   -4.6280   -1.0660 C.3     1  UNL1        0.4680
@<TRIPOS>BOND
     1     9     7    1
     2     9    11    2
     3    13    11    1
     4    13    14    1
     5     7     6    2
     6    11    10    1
     7    14    12    1
     8     6     5    1
     9     6     8    1
    10    10    12    1
    11    10     8    2
    12     5     1    1
    13     3     2    1
    14     1     2    1
    15     2     4    2
