@<TRIPOS>MOLECULE
/home/cewinharhar/GITHUB/reincatalyze/data/processed/docking_pred/2023-May-31-1727_sub9_nm5_bs15_s42_ex16_mel10_mts10000_k50_ec075_g099_lra3e-4_lrc3e-3/895ea28dab147140afd805a2e235fc395d2e1c3a_ligand_9.pdbqt
 14 15 0 0 0
SMALL
GASTEIGER

@<TRIPOS>ATOM
      1  C          5.7390    1.2320   -0.3170 C.3     1  UNL1        0.0800
      2  C          5.1000    1.2900    1.0100 C.2     1  UNL1        0.1300
      3  C          5.3870    0.1090    1.9210 C.3     1  UNL1        0.0870
      4  O          4.3890    2.1500    1.4470 O.2     1  UNL1       -0.3000
      5  C          7.1900    0.9520   -0.3300 C.3     1  UNL1        0.0430
      6  C          7.6220   -0.3190   -0.9170 C.2     1  UNL1       -0.0440
      7  C          7.8770   -0.4600   -2.2820 C.2     1  UNL1        0.0080
      8  C          7.8180   -1.4180   -0.1130 C.2     1  UNL1        0.0540
      9  C          8.3050   -1.6720   -2.7590 C.2     1  UNL1        0.0510
     10  C          8.2570   -2.6470   -0.6280 C.2     1  UNL1        0.1660
     11  C          8.5070   -2.7860   -1.9760 C.2     1  UNL1        0.1650
     12  O          8.5330   -3.8910   -0.0730 O.2     1  UNL1       -0.4540
     13  O          8.9290   -4.0990   -2.2230 O.2     1  UNL1       -0.4540
     14  C          9.3800   -4.5870   -0.9760 C.3     1  UNL1        0.4680
@<TRIPOS>BOND
     1     9     7    1
     2     9    11    2
     3     7     6    2
     4    13    11    1
     5    13    14    1
     6    11    10    1
     7    14    12    1
     8     6     5    1
     9     6     8    1
    10    10     8    2
    11    10    12    1
    12     5     1    1
    13     1     2    1
    14     2     4    2
    15     2     3    1
