@<TRIPOS>MOLECULE
/home/cewinharhar/GITHUB/reincatalyze/data/processed/docking_pred/2023-May-31-1727_sub9_nm5_bs15_s42_ex16_mel10_mts10000_k50_ec075_g099_lra3e-4_lrc3e-3/895ea28dab147140afd805a2e235fc395d2e1c3a_ligand_9.pdbqt
 14 15 0 0 0
SMALL
GASTEIGER

@<TRIPOS>ATOM
      1  C          6.3260    1.1540    0.8800 C.3     1  UNL1        0.0800
      2  C          5.6070    0.3870    1.9140 C.2     1  UNL1        0.1300
      3  C          6.3160   -0.8630    2.4060 C.3     1  UNL1        0.0870
      4  O          4.5420    0.6330    2.4040 O.2     1  UNL1       -0.3000
      5  C          5.9540    0.8650   -0.5210 C.3     1  UNL1        0.0430
      6  C          6.8950    0.0680   -1.3130 C.2     1  UNL1       -0.0440
      7  C          7.7420    0.6420   -2.2620 C.2     1  UNL1        0.0080
      8  C          6.9840   -1.2910   -1.1150 C.2     1  UNL1        0.0540
      9  C          8.6170   -0.1600   -2.9480 C.2     1  UNL1        0.0510
     10  C          7.8880   -2.0890   -1.8310 C.2     1  UNL1        0.1660
     11  C          8.7240   -1.5220   -2.7680 C.2     1  UNL1        0.1650
     12  O          8.1910   -3.4450   -1.8410 O.2     1  UNL1       -0.4540
     13  O          9.5180   -2.5290   -3.3310 O.2     1  UNL1       -0.4540
     14  C          9.4870   -3.5920   -2.4020 C.3     1  UNL1        0.4680
@<TRIPOS>BOND
     1    13    11    1
     2    13    14    1
     3     9    11    2
     4     9     7    1
     5    11    10    1
     6    14    12    1
     7     7     6    2
     8    12    10    1
     9    10     8    2
    10     6     8    1
    11     6     5    1
    12     5     1    1
    13     1     2    1
    14     2     4    2
    15     2     3    1
