@<TRIPOS>MOLECULE
/home/cewinharhar/GITHUB/reincatalyze/data/processed/docking_pred/2023-May-31-1727_sub9_nm5_bs15_s42_ex16_mel10_mts10000_k50_ec075_g099_lra3e-4_lrc3e-3/895ea28dab147140afd805a2e235fc395d2e1c3a_ligand_9.pdbqt
 14 15 0 0 0
SMALL
GASTEIGER

@<TRIPOS>ATOM
      1  C          5.3540   -0.0590    1.9650 C.3     1  UNL1        0.0800
      2  C          4.4040    1.0640    1.8570 C.2     1  UNL1        0.1300
      3  C          4.7360    2.0960    0.7930 C.3     1  UNL1        0.0870
      4  O          3.4130    1.2530    2.5040 O.2     1  UNL1       -0.3000
      5  C          6.7750    0.2640    1.7170 C.3     1  UNL1        0.0430
      6  C          7.3160   -0.0640    0.3950 C.2     1  UNL1       -0.0440
      7  C          7.7400    0.9190   -0.5010 C.2     1  UNL1        0.0080
      8  C          7.4480   -1.3790    0.0120 C.2     1  UNL1        0.0540
      9  C          8.2620    0.5380   -1.7100 C.2     1  UNL1        0.0510
     10  C          7.9860   -1.7400   -1.2320 C.2     1  UNL1        0.1660
     11  C          8.4030   -0.7700   -2.1160 C.2     1  UNL1        0.1650
     12  O          8.2320   -2.9500   -1.8700 O.2     1  UNL1       -0.4540
     13  O          8.8940   -1.3940   -3.2710 O.2     1  UNL1       -0.4540
     14  C          9.2050   -2.7140   -2.8780 C.3     1  UNL1        0.4680
@<TRIPOS>BOND
     1    13    14    1
     2    13    11    1
     3    14    12    1
     4    11     9    2
     5    11    10    1
     6    12    10    1
     7     9     7    1
     8    10     8    2
     9     7     6    2
    10     8     6    1
    11     6     5    1
    12     3     2    1
    13     5     1    1
    14     2     1    1
    15     2     4    2
