MODEL 1
REMARK VINA RESULT:      -7.6      0.000      0.000
REMARK SMILES CC(=O)CCc1ccc2c(c1)OCO2
REMARK SMILES IDX 4 1 2 2 1 3 3 4 5 5 6 6 7 7 11 8 8 9 10 10 9 11 12 12 14 13
REMARK SMILES IDX 13 14
REMARK H PARENT
REMARK Flexibility Score: inf
ROOT
ATOM      1  C   UNL     1       5.577   1.896   1.234  1.00  0.00     0.080 C 
ENDROOT
BRANCH   1   2
ATOM      2  C   UNL     1       5.064   0.749   2.005  1.00  0.00     0.130 C 
ATOM      3  C   UNL     1       6.033  -0.408   2.172  1.00  0.00     0.087 C 
ATOM      4  O   UNL     1       3.984   0.627   2.509  1.00  0.00    -0.300 OA
ENDBRANCH   1   2
BRANCH   1   5
ATOM      5  C   UNL     1       5.561   1.751  -0.237  1.00  0.00     0.043 C 
BRANCH   5   6
ATOM      6  C   UNL     1       6.660   0.999  -0.849  1.00  0.00    -0.044 A 
ATOM      7  C   UNL     1       7.997   1.356  -0.668  1.00  0.00     0.008 A 
ATOM      8  C   UNL     1       6.392  -0.115  -1.609  1.00  0.00     0.054 A 
ATOM      9  C   UNL     1       8.976   0.591  -1.248  1.00  0.00     0.051 A 
ATOM     10  C   UNL     1       7.414  -0.881  -2.191  1.00  0.00     0.166 A 
ATOM     11  C   UNL     1       8.734  -0.528  -2.013  1.00  0.00     0.165 A 
ATOM     12  O   UNL     1       7.442  -2.021  -2.984  1.00  0.00    -0.454 OA
ATOM     13  O   UNL     1       9.542  -1.449  -2.692  1.00  0.00    -0.454 OA
ATOM     14  C   UNL     1       8.736  -2.596  -2.866  1.00  0.00     0.468 C 
ENDBRANCH   5   6
ENDBRANCH   1   5
TORSDOF 3
ENDMDL
MODEL 2
REMARK VINA RESULT:      -7.0      1.855      2.305
REMARK SMILES CC(=O)CCc1ccc2c(c1)OCO2
REMARK SMILES IDX 4 1 2 2 1 3 3 4 5 5 6 6 7 7 11 8 8 9 10 10 9 11 12 12 14 13
REMARK SMILES IDX 13 14
REMARK H PARENT
REMARK Flexibility Score: inf
ROOT
ATOM      1  C   UNL     1       5.739   1.232  -0.317  1.00  0.00     0.080 C 
ENDROOT
BRANCH   1   2
ATOM      2  C   UNL     1       5.100   1.290   1.010  1.00  0.00     0.130 C 
ATOM      3  C   UNL     1       5.387   0.109   1.921  1.00  0.00     0.087 C 
ATOM      4  O   UNL     1       4.389   2.150   1.447  1.00  0.00    -0.300 OA
ENDBRANCH   1   2
BRANCH   1   5
ATOM      5  C   UNL     1       7.190   0.952  -0.330  1.00  0.00     0.043 C 
BRANCH   5   6
ATOM      6  C   UNL     1       7.622  -0.319  -0.917  1.00  0.00    -0.044 A 
ATOM      7  C   UNL     1       7.877  -0.460  -2.282  1.00  0.00     0.008 A 
ATOM      8  C   UNL     1       7.818  -1.418  -0.113  1.00  0.00     0.054 A 
ATOM      9  C   UNL     1       8.305  -1.672  -2.759  1.00  0.00     0.051 A 
ATOM     10  C   UNL     1       8.257  -2.647  -0.628  1.00  0.00     0.166 A 
ATOM     11  C   UNL     1       8.507  -2.786  -1.976  1.00  0.00     0.165 A 
ATOM     12  O   UNL     1       8.533  -3.891  -0.073  1.00  0.00    -0.454 OA
ATOM     13  O   UNL     1       8.929  -4.099  -2.223  1.00  0.00    -0.454 OA
ATOM     14  C   UNL     1       9.380  -4.587  -0.976  1.00  0.00     0.468 C 
ENDBRANCH   5   6
ENDBRANCH   1   5
TORSDOF 3
ENDMDL
MODEL 3
REMARK VINA RESULT:      -6.9      1.171      1.303
REMARK SMILES CC(=O)CCc1ccc2c(c1)OCO2
REMARK SMILES IDX 4 1 2 2 1 3 3 4 5 5 6 6 7 7 11 8 8 9 10 10 9 11 12 12 14 13
REMARK SMILES IDX 13 14
REMARK H PARENT
REMARK Flexibility Score: inf
ROOT
ATOM      1  C   UNL     1       6.326   1.154   0.880  1.00  0.00     0.080 C 
ENDROOT
BRANCH   1   2
ATOM      2  C   UNL     1       5.607   0.387   1.914  1.00  0.00     0.130 C 
ATOM      3  C   UNL     1       6.316  -0.863   2.406  1.00  0.00     0.087 C 
ATOM      4  O   UNL     1       4.542   0.633   2.404  1.00  0.00    -0.300 OA
ENDBRANCH   1   2
BRANCH   1   5
ATOM      5  C   UNL     1       5.954   0.865  -0.521  1.00  0.00     0.043 C 
BRANCH   5   6
ATOM      6  C   UNL     1       6.895   0.068  -1.313  1.00  0.00    -0.044 A 
ATOM      7  C   UNL     1       7.742   0.642  -2.262  1.00  0.00     0.008 A 
ATOM      8  C   UNL     1       6.984  -1.291  -1.115  1.00  0.00     0.054 A 
ATOM      9  C   UNL     1       8.617  -0.160  -2.948  1.00  0.00     0.051 A 
ATOM     10  C   UNL     1       7.888  -2.089  -1.831  1.00  0.00     0.166 A 
ATOM     11  C   UNL     1       8.724  -1.522  -2.768  1.00  0.00     0.165 A 
ATOM     12  O   UNL     1       8.191  -3.445  -1.841  1.00  0.00    -0.454 OA
ATOM     13  O   UNL     1       9.518  -2.529  -3.331  1.00  0.00    -0.454 OA
ATOM     14  C   UNL     1       9.487  -3.592  -2.402  1.00  0.00     0.468 C 
ENDBRANCH   5   6
ENDBRANCH   1   5
TORSDOF 3
ENDMDL
MODEL 4
REMARK VINA RESULT:      -6.8      1.871      2.416
REMARK SMILES CC(=O)CCc1ccc2c(c1)OCO2
REMARK SMILES IDX 4 1 2 2 1 3 3 4 5 5 6 6 7 7 11 8 8 9 10 10 9 11 12 12 14 13
REMARK SMILES IDX 13 14
REMARK H PARENT
REMARK Flexibility Score: inf
ROOT
ATOM      1  C   UNL     1       6.829   0.956   1.339  1.00  0.00     0.080 C 
ENDROOT
BRANCH   1   2
ATOM      2  C   UNL     1       5.375   1.186   1.428  1.00  0.00     0.130 C 
ATOM      3  C   UNL     1       4.805   2.150   0.402  1.00  0.00     0.087 C 
ATOM      4  O   UNL     1       4.601   0.706   2.207  1.00  0.00    -0.300 OA
ENDBRANCH   1   2
BRANCH   1   5
ATOM      5  C   UNL     1       7.414   1.008  -0.018  1.00  0.00     0.043 C 
BRANCH   5   6
ATOM      6  C   UNL     1       7.680  -0.270  -0.682  1.00  0.00    -0.044 A 
ATOM      7  C   UNL     1       7.727  -0.391  -2.072  1.00  0.00     0.008 A 
ATOM      8  C   UNL     1       7.923  -1.398   0.066  1.00  0.00     0.054 A 
ATOM      9  C   UNL     1       8.009  -1.612  -2.626  1.00  0.00     0.051 A 
ATOM     10  C   UNL     1       8.209  -2.637  -0.527  1.00  0.00     0.166 A 
ATOM     11  C   UNL     1       8.255  -2.756  -1.899  1.00  0.00     0.165 A 
ATOM     12  O   UNL     1       8.487  -3.908  -0.039  1.00  0.00    -0.454 OA
ATOM     13  O   UNL     1       8.558  -4.084  -2.226  1.00  0.00    -0.454 OA
ATOM     14  C   UNL     1       9.153  -4.628  -1.066  1.00  0.00     0.468 C 
ENDBRANCH   5   6
ENDBRANCH   1   5
TORSDOF 3
ENDMDL
MODEL 5
REMARK VINA RESULT:      -6.8      1.170      1.656
REMARK SMILES CC(=O)CCc1ccc2c(c1)OCO2
REMARK SMILES IDX 4 1 2 2 1 3 3 4 5 5 6 6 7 7 11 8 8 9 10 10 9 11 12 12 14 13
REMARK SMILES IDX 13 14
REMARK H PARENT
REMARK Flexibility Score: inf
ROOT
ATOM      1  C   UNL     1       5.354  -0.059   1.965  1.00  0.00     0.080 C 
ENDROOT
BRANCH   1   2
ATOM      2  C   UNL     1       4.404   1.064   1.857  1.00  0.00     0.130 C 
ATOM      3  C   UNL     1       4.736   2.096   0.793  1.00  0.00     0.087 C 
ATOM      4  O   UNL     1       3.413   1.253   2.504  1.00  0.00    -0.300 OA
ENDBRANCH   1   2
BRANCH   1   5
ATOM      5  C   UNL     1       6.775   0.264   1.717  1.00  0.00     0.043 C 
BRANCH   5   6
ATOM      6  C   UNL     1       7.316  -0.064   0.395  1.00  0.00    -0.044 A 
ATOM      7  C   UNL     1       7.740   0.919  -0.501  1.00  0.00     0.008 A 
ATOM      8  C   UNL     1       7.448  -1.379   0.012  1.00  0.00     0.054 A 
ATOM      9  C   UNL     1       8.262   0.538  -1.710  1.00  0.00     0.051 A 
ATOM     10  C   UNL     1       7.986  -1.740  -1.232  1.00  0.00     0.166 A 
ATOM     11  C   UNL     1       8.403  -0.770  -2.116  1.00  0.00     0.165 A 
ATOM     12  O   UNL     1       8.232  -2.950  -1.870  1.00  0.00    -0.454 OA
ATOM     13  O   UNL     1       8.894  -1.394  -3.271  1.00  0.00    -0.454 OA
ATOM     14  C   UNL     1       9.205  -2.714  -2.878  1.00  0.00     0.468 C 
ENDBRANCH   5   6
ENDBRANCH   1   5
TORSDOF 3
ENDMDL
