@<TRIPOS>MOLECULE
/home/cewinharhar/GITHUB/reincatalyze/data/processed/docking_pred/2023-May-31-1727_sub9_nm5_bs15_s42_ex16_mel10_mts10000_k50_ec075_g099_lra3e-4_lrc3e-3/8a11bcf53d23875e79cb17a52aa7b3de0dc85e7d_ligand_9.pdbqt
 14 15 0 0 0
SMALL
GASTEIGER

@<TRIPOS>ATOM
      1  C          5.7680    1.3690   -0.3350 C.3     1  UNL1        0.0800
      2  C          5.1110    1.3640    0.9850 C.2     1  UNL1        0.1300
      3  C          5.5040    0.2180    1.9020 C.3     1  UNL1        0.0870
      4  O          4.3140    2.1500    1.4130 O.2     1  UNL1       -0.3000
      5  C          7.2100    1.0450   -0.3460 C.3     1  UNL1        0.0430
      6  C          7.6020   -0.2440   -0.9240 C.2     1  UNL1       -0.0440
      7  C          7.8190   -0.4100   -2.2930 C.2     1  UNL1        0.0080
      8  C          7.7970   -1.3340   -0.1080 C.2     1  UNL1        0.0540
      9  C          8.2110   -1.6370   -2.7620 C.2     1  UNL1        0.0510
     10  C          8.1990   -2.5790   -0.6150 C.2     1  UNL1        0.1660
     11  C          8.4120   -2.7430   -1.9660 C.2     1  UNL1        0.1650
     12  O          8.4650   -3.8190   -0.0470 O.2     1  UNL1       -0.4540
     13  O          8.8020   -4.0670   -2.2030 O.2     1  UNL1       -0.4540
     14  C          9.2760   -4.5450   -0.9600 C.3     1  UNL1        0.4680
@<TRIPOS>BOND
     1     9     7    1
     2     9    11    2
     3     7     6    2
     4    13    11    1
     5    13    14    1
     6    11    10    1
     7    14    12    1
     8     6     5    1
     9     6     8    1
    10    10     8    2
    11    10    12    1
    12     5     1    1
    13     1     2    1
    14     2     4    2
    15     2     3    1
