@<TRIPOS>MOLECULE
/home/cewinharhar/GITHUB/reincatalyze/data/processed/docking_pred/2023-May-31-1727_sub9_nm5_bs15_s42_ex16_mel10_mts10000_k50_ec075_g099_lra3e-4_lrc3e-3/8c75984685002de52dc1feb6518b36ce8b766619_ligand_9.pdbqt
 14 15 0 0 0
SMALL
GASTEIGER

@<TRIPOS>ATOM
      1  C          5.4370   -0.0240    1.9790 C.3     1  UNL1        0.0800
      2  C          5.2990    1.1210    1.0620 C.2     1  UNL1        0.1300
      3  C          6.0070    0.9730   -0.2750 C.3     1  UNL1        0.0870
      4  O          4.7000    2.1430    1.2450 O.2     1  UNL1       -0.3000
      5  C          6.1890   -1.1870    1.4620 C.3     1  UNL1        0.0430
      6  C          7.4210   -1.5560    2.1650 C.2     1  UNL1       -0.0440
      7  C          8.4740   -2.2130    1.5270 C.2     1  UNL1        0.0080
      8  C          7.5800   -1.2300    3.4920 C.2     1  UNL1        0.0540
      9  C          9.6080   -2.5040    2.2400 C.2     1  UNL1        0.0510
     10  C          8.7520   -1.5400    4.1980 C.2     1  UNL1        0.1660
     11  C          9.7910   -2.1890    3.5680 C.2     1  UNL1        0.1650
     12  O          9.1810   -1.3400    5.5050 O.2     1  UNL1       -0.4540
     13  O         10.8300   -2.3750    4.4890 O.2     1  UNL1       -0.4540
     14  C         10.5990   -1.4260    5.5100 C.3     1  UNL1        0.4680
@<TRIPOS>BOND
     1     3     2    1
     2     2     4    2
     3     2     1    1
     4     5     1    1
     5     5     6    1
     6     7     6    2
     7     7     9    1
     8     6     8    1
     9     9    11    2
    10     8    10    2
    11    11    10    1
    12    11    13    1
    13    10    12    1
    14    13    14    1
    15    12    14    1
