@<TRIPOS>MOLECULE
/home/cewinharhar/GITHUB/reincatalyze/data/processed/docking_pred/2023-May-31-1727_sub9_nm5_bs15_s42_ex16_mel10_mts10000_k50_ec075_g099_lra3e-4_lrc3e-3/8c75984685002de52dc1feb6518b36ce8b766619_ligand_9.pdbqt
 14 15 0 0 0
SMALL
GASTEIGER

@<TRIPOS>ATOM
      1  C          5.4730   -0.2410    1.9300 C.3     1  UNL1        0.0800
      2  C          5.3680    1.0170    1.1680 C.2     1  UNL1        0.1300
      3  C          5.8960    0.9600   -0.2550 C.3     1  UNL1        0.0870
      4  O          4.9200    2.0650    1.5370 O.2     1  UNL1       -0.3000
      5  C          6.4200   -1.2460    1.4010 C.3     1  UNL1        0.0430
      6  C          7.5880   -1.5660    2.2260 C.2     1  UNL1       -0.0440
      7  C          7.6470   -1.2540    3.5860 C.2     1  UNL1        0.0080
      8  C          8.6640   -2.2190    1.6720 C.2     1  UNL1        0.0540
      9  C          8.7600   -1.6080    4.3030 C.2     1  UNL1        0.0510
     10  C          9.7920   -2.5700    2.4300 C.2     1  UNL1        0.1660
     11  C          9.8500   -2.2620    3.7710 C.2     1  UNL1        0.1650
     12  O         10.9900   -3.2140    2.1480 O.2     1  UNL1       -0.4540
     13  O         11.0700   -2.7170    4.2860 O.2     1  UNL1       -0.4540
     14  C         11.5150   -3.7010    3.3750 C.3     1  UNL1        0.4680
@<TRIPOS>BOND
     1     3     2    1
     2     2     4    2
     3     2     1    1
     4     5     1    1
     5     5     6    1
     6     8     6    2
     7     8    10    1
     8    12    10    1
     9    12    14    1
    10     6     7    1
    11    10    11    2
    12    14    13    1
    13     7     9    2
    14    11    13    1
    15    11     9    1
