@<TRIPOS>MOLECULE
/home/cewinharhar/GITHUB/reincatalyze/data/processed/docking_pred/2023-May-31-1727_sub9_nm5_bs15_s42_ex16_mel10_mts10000_k50_ec075_g099_lra3e-4_lrc3e-3/8e8bd911e5a39404df3349c2b89597c8d71467f9_ligand_9.pdbqt
 14 15 0 0 0
SMALL
GASTEIGER

@<TRIPOS>ATOM
      1  C          6.0020    0.3780    1.9220 C.3     1  UNL1        0.0800
      2  C          4.8560    1.2660    1.6520 C.2     1  UNL1        0.1300
      3  C          4.9930    2.1490    0.4230 C.3     1  UNL1        0.0870
      4  O          3.8410    1.3690    2.2810 O.2     1  UNL1       -0.3000
      5  C          7.1770    0.5470    1.0430 C.3     1  UNL1        0.0430
      6  C          7.4690   -0.5350    0.0980 C.2     1  UNL1       -0.0440
      7  C          7.3280   -0.3750   -1.2820 C.2     1  UNL1        0.0080
      8  C          7.9230   -1.7480    0.5590 C.2     1  UNL1        0.0540
      9  C          7.6450   -1.4220   -2.1090 C.2     1  UNL1        0.0510
     10  C          8.2400   -2.8020   -0.3110 C.2     1  UNL1        0.1660
     11  C          8.1010   -2.6450   -1.6720 C.2     1  UNL1        0.1650
     12  O          8.7060   -4.1000   -0.1360 O.2     1  UNL1       -0.4540
     13  O          8.4810   -3.8370   -2.3040 O.2     1  UNL1       -0.4540
     14  C          9.2850   -4.5180   -1.3630 C.3     1  UNL1        0.4680
@<TRIPOS>BOND
     1    13    11    1
     2    13    14    1
     3     9    11    2
     4     9     7    1
     5    11    10    1
     6    14    12    1
     7     7     6    2
     8    10    12    1
     9    10     8    2
    10     6     8    1
    11     6     5    1
    12     3     2    1
    13     5     1    1
    14     2     1    1
    15     2     4    2
