MODEL 1
REMARK VINA RESULT:      -7.7      0.000      0.000
REMARK SMILES CC(=O)CCc1ccc2c(c1)OCO2
REMARK SMILES IDX 4 1 2 2 1 3 3 4 5 5 6 6 7 7 11 8 8 9 10 10 9 11 12 12 14 13
REMARK SMILES IDX 13 14
REMARK H PARENT
REMARK Flexibility Score: inf
ROOT
ATOM      1  C   UNL     1       5.506   1.907   1.202  1.00  0.00     0.080 C 
ENDROOT
BRANCH   1   2
ATOM      2  C   UNL     1       5.000   0.765   1.986  1.00  0.00     0.130 C 
ATOM      3  C   UNL     1       5.958  -0.406   2.121  1.00  0.00     0.087 C 
ATOM      4  O   UNL     1       3.934   0.657   2.523  1.00  0.00    -0.300 OA
ENDBRANCH   1   2
BRANCH   1   5
ATOM      5  C   UNL     1       5.498   1.743  -0.267  1.00  0.00     0.043 C 
BRANCH   5   6
ATOM      6  C   UNL     1       6.612   1.002  -0.864  1.00  0.00    -0.044 A 
ATOM      7  C   UNL     1       7.943   1.374  -0.668  1.00  0.00     0.008 A 
ATOM      8  C   UNL     1       6.366  -0.117  -1.626  1.00  0.00     0.054 A 
ATOM      9  C   UNL     1       8.937   0.619  -1.235  1.00  0.00     0.051 A 
ATOM     10  C   UNL     1       7.403  -0.872  -2.195  1.00  0.00     0.166 A 
ATOM     11  C   UNL     1       8.716  -0.504  -2.002  1.00  0.00     0.165 A 
ATOM     12  O   UNL     1       7.452  -2.013  -2.986  1.00  0.00    -0.454 OA
ATOM     13  O   UNL     1       9.542  -1.417  -2.670  1.00  0.00    -0.454 OA
ATOM     14  C   UNL     1       8.751  -2.573  -2.851  1.00  0.00     0.468 C 
ENDBRANCH   5   6
ENDBRANCH   1   5
TORSDOF 3
ENDMDL
MODEL 2
REMARK VINA RESULT:      -7.0      1.117      1.228
REMARK SMILES CC(=O)CCc1ccc2c(c1)OCO2
REMARK SMILES IDX 4 1 2 2 1 3 3 4 5 5 6 6 7 7 11 8 8 9 10 10 9 11 12 12 14 13
REMARK SMILES IDX 13 14
REMARK H PARENT
REMARK Flexibility Score: inf
ROOT
ATOM      1  C   UNL     1       6.237   1.185   0.900  1.00  0.00     0.080 C 
ENDROOT
BRANCH   1   2
ATOM      2  C   UNL     1       5.559   0.369   1.924  1.00  0.00     0.130 C 
ATOM      3  C   UNL     1       6.333  -0.849   2.401  1.00  0.00     0.087 C 
ATOM      4  O   UNL     1       4.483   0.552   2.417  1.00  0.00    -0.300 OA
ENDBRANCH   1   2
BRANCH   1   5
ATOM      5  C   UNL     1       5.892   0.884  -0.505  1.00  0.00     0.043 C 
BRANCH   5   6
ATOM      6  C   UNL     1       6.865   0.111  -1.283  1.00  0.00    -0.044 A 
ATOM      7  C   UNL     1       7.794   0.720  -2.128  1.00  0.00     0.008 A 
ATOM      8  C   UNL     1       6.901  -1.260  -1.173  1.00  0.00     0.054 A 
ATOM      9  C   UNL     1       8.693  -0.064  -2.805  1.00  0.00     0.051 A 
ATOM     10  C   UNL     1       7.833  -2.037  -1.877  1.00  0.00     0.166 A 
ATOM     11  C   UNL     1       8.749  -1.437  -2.712  1.00  0.00     0.165 A 
ATOM     12  O   UNL     1       8.097  -3.399  -1.960  1.00  0.00    -0.454 OA
ATOM     13  O   UNL     1       9.553  -2.429  -3.287  1.00  0.00    -0.454 OA
ATOM     14  C   UNL     1       9.426  -3.551  -2.438  1.00  0.00     0.468 C 
ENDBRANCH   5   6
ENDBRANCH   1   5
TORSDOF 3
ENDMDL
MODEL 3
REMARK VINA RESULT:      -7.0      1.798      2.214
REMARK SMILES CC(=O)CCc1ccc2c(c1)OCO2
REMARK SMILES IDX 4 1 2 2 1 3 3 4 5 5 6 6 7 7 11 8 8 9 10 10 9 11 12 12 14 13
REMARK SMILES IDX 13 14
REMARK H PARENT
REMARK Flexibility Score: inf
ROOT
ATOM      1  C   UNL     1       5.749   1.483  -0.259  1.00  0.00     0.080 C 
ENDROOT
BRANCH   1   2
ATOM      2  C   UNL     1       5.093   1.379   1.057  1.00  0.00     0.130 C 
ATOM      3  C   UNL     1       5.444   0.140   1.863  1.00  0.00     0.087 C 
ATOM      4  O   UNL     1       4.325   2.150   1.559  1.00  0.00    -0.300 OA
ENDBRANCH   1   2
BRANCH   1   5
ATOM      5  C   UNL     1       7.187   1.144  -0.298  1.00  0.00     0.043 C 
BRANCH   5   6
ATOM      6  C   UNL     1       7.556  -0.142  -0.896  1.00  0.00    -0.044 A 
ATOM      7  C   UNL     1       7.757  -0.294  -2.269  1.00  0.00     0.008 A 
ATOM      8  C   UNL     1       7.744  -1.245  -0.096  1.00  0.00     0.054 A 
ATOM      9  C   UNL     1       8.128  -1.520  -2.757  1.00  0.00     0.051 A 
ATOM     10  C   UNL     1       8.124  -2.489  -0.622  1.00  0.00     0.166 A 
ATOM     11  C   UNL     1       8.322  -2.639  -1.977  1.00  0.00     0.165 A 
ATOM     12  O   UNL     1       8.379  -3.740  -0.073  1.00  0.00    -0.454 OA
ATOM     13  O   UNL     1       8.691  -3.965  -2.235  1.00  0.00    -0.454 OA
ATOM     14  C   UNL     1       9.170  -4.465  -1.003  1.00  0.00     0.468 C 
ENDBRANCH   5   6
ENDBRANCH   1   5
TORSDOF 3
ENDMDL
MODEL 4
REMARK VINA RESULT:      -6.8      1.106      1.611
REMARK SMILES CC(=O)CCc1ccc2c(c1)OCO2
REMARK SMILES IDX 4 1 2 2 1 3 3 4 5 5 6 6 7 7 11 8 8 9 10 10 9 11 12 12 14 13
REMARK SMILES IDX 13 14
REMARK H PARENT
REMARK Flexibility Score: inf
ROOT
ATOM      1  C   UNL     1       5.335  -0.022   1.989  1.00  0.00     0.080 C 
ENDROOT
BRANCH   1   2
ATOM      2  C   UNL     1       4.388   1.101   1.869  1.00  0.00     0.130 C 
ATOM      3  C   UNL     1       4.733   2.132   0.807  1.00  0.00     0.087 C 
ATOM      4  O   UNL     1       3.390   1.293   2.504  1.00  0.00    -0.300 OA
ENDBRANCH   1   2
BRANCH   1   5
ATOM      5  C   UNL     1       6.760   0.300   1.762  1.00  0.00     0.043 C 
BRANCH   5   6
ATOM      6  C   UNL     1       7.312  -0.000   0.438  1.00  0.00    -0.044 A 
ATOM      7  C   UNL     1       7.870   0.987  -0.377  1.00  0.00     0.008 A 
ATOM      8  C   UNL     1       7.317  -1.294  -0.029  1.00  0.00     0.054 A 
ATOM      9  C   UNL     1       8.393   0.630  -1.592  1.00  0.00     0.051 A 
ATOM     10  C   UNL     1       7.859  -1.631  -1.278  1.00  0.00     0.166 A 
ATOM     11  C   UNL     1       8.410  -0.657  -2.082  1.00  0.00     0.165 A 
ATOM     12  O   UNL     1       7.999  -2.817  -1.989  1.00  0.00    -0.454 OA
ATOM     13  O   UNL     1       8.874  -1.256  -3.261  1.00  0.00    -0.454 OA
ATOM     14  C   UNL     1       9.028  -2.625  -2.948  1.00  0.00     0.468 C 
ENDBRANCH   5   6
ENDBRANCH   1   5
TORSDOF 3
ENDMDL
MODEL 5
REMARK VINA RESULT:      -6.7      1.953      2.466
REMARK SMILES CC(=O)CCc1ccc2c(c1)OCO2
REMARK SMILES IDX 4 1 2 2 1 3 3 4 5 5 6 6 7 7 11 8 8 9 10 10 9 11 12 12 14 13
REMARK SMILES IDX 13 14
REMARK H PARENT
REMARK Flexibility Score: inf
ROOT
ATOM      1  C   UNL     1       6.002   0.378   1.922  1.00  0.00     0.080 C 
ENDROOT
BRANCH   1   2
ATOM      2  C   UNL     1       4.856   1.266   1.652  1.00  0.00     0.130 C 
ATOM      3  C   UNL     1       4.993   2.149   0.423  1.00  0.00     0.087 C 
ATOM      4  O   UNL     1       3.841   1.369   2.281  1.00  0.00    -0.300 OA
ENDBRANCH   1   2
BRANCH   1   5
ATOM      5  C   UNL     1       7.177   0.547   1.043  1.00  0.00     0.043 C 
BRANCH   5   6
ATOM      6  C   UNL     1       7.469  -0.535   0.098  1.00  0.00    -0.044 A 
ATOM      7  C   UNL     1       7.328  -0.375  -1.282  1.00  0.00     0.008 A 
ATOM      8  C   UNL     1       7.923  -1.748   0.559  1.00  0.00     0.054 A 
ATOM      9  C   UNL     1       7.645  -1.422  -2.109  1.00  0.00     0.051 A 
ATOM     10  C   UNL     1       8.240  -2.802  -0.311  1.00  0.00     0.166 A 
ATOM     11  C   UNL     1       8.101  -2.645  -1.672  1.00  0.00     0.165 A 
ATOM     12  O   UNL     1       8.706  -4.100  -0.136  1.00  0.00    -0.454 OA
ATOM     13  O   UNL     1       8.481  -3.837  -2.304  1.00  0.00    -0.454 OA
ATOM     14  C   UNL     1       9.285  -4.518  -1.363  1.00  0.00     0.468 C 
ENDBRANCH   5   6
ENDBRANCH   1   5
TORSDOF 3
ENDMDL
