@<TRIPOS>MOLECULE
/home/cewinharhar/GITHUB/reincatalyze/data/processed/docking_pred/2023-May-31-1727_sub9_nm5_bs15_s42_ex16_mel10_mts10000_k50_ec075_g099_lra3e-4_lrc3e-3/8e8bd911e5a39404df3349c2b89597c8d71467f9_ligand_9.pdbqt
 14 15 0 0 0
SMALL
GASTEIGER

@<TRIPOS>ATOM
      1  C          5.5060    1.9070    1.2020 C.3     1  UNL1        0.0800
      2  C          5.0000    0.7650    1.9860 C.2     1  UNL1        0.1300
      3  C          5.9580   -0.4060    2.1210 C.3     1  UNL1        0.0870
      4  O          3.9340    0.6570    2.5230 O.2     1  UNL1       -0.3000
      5  C          5.4980    1.7430   -0.2670 C.3     1  UNL1        0.0430
      6  C          6.6120    1.0020   -0.8640 C.2     1  UNL1       -0.0440
      7  C          7.9430    1.3740   -0.6680 C.2     1  UNL1        0.0080
      8  C          6.3660   -0.1170   -1.6260 C.2     1  UNL1        0.0540
      9  C          8.9370    0.6190   -1.2350 C.2     1  UNL1        0.0510
     10  C          7.4030   -0.8720   -2.1950 C.2     1  UNL1        0.1660
     11  C          8.7160   -0.5040   -2.0020 C.2     1  UNL1        0.1650
     12  O          7.4520   -2.0130   -2.9860 O.2     1  UNL1       -0.4540
     13  O          9.5420   -1.4170   -2.6700 O.2     1  UNL1       -0.4540
     14  C          8.7510   -2.5730   -2.8510 C.3     1  UNL1        0.4680
@<TRIPOS>BOND
     1    12    14    1
     2    12    10    1
     3    14    13    1
     4    13    11    1
     5    10    11    2
     6    10     8    1
     7    11     9    1
     8     8     6    2
     9     9     7    2
    10     6     7    1
    11     6     5    1
    12     5     1    1
    13     1     2    1
    14     2     3    1
    15     2     4    2
