@<TRIPOS>MOLECULE
/home/cewinharhar/GITHUB/reincatalyze/data/processed/docking_pred/2023-May-31-1727_sub9_nm5_bs15_s42_ex16_mel10_mts10000_k50_ec075_g099_lra3e-4_lrc3e-3/8f258178c278a1f8efc989ef7d8625b520fa90c8_ligand_9.pdbqt
 14 15 0 0 0
SMALL
GASTEIGER

@<TRIPOS>ATOM
      1  C          5.6870    0.0720    1.9910 C.3     1  UNL1        0.0800
      2  C          4.6930    1.1220    1.7060 C.2     1  UNL1        0.1300
      3  C          5.0470    2.0610    0.5650 C.3     1  UNL1        0.0870
      4  O          3.6500    1.3180    2.2640 O.2     1  UNL1       -0.3000
      5  C          7.0100    0.2370    1.3520 C.3     1  UNL1        0.0430
      6  C          7.3920   -0.7480    0.3370 C.2     1  UNL1       -0.0440
      7  C          7.3340   -0.4700   -1.0290 C.2     1  UNL1        0.0080
      8  C          7.8540   -1.9870    0.7190 C.2     1  UNL1        0.0540
      9  C          7.7330   -1.4300   -1.9230 C.2     1  UNL1        0.0510
     10  C          8.2560   -2.9510   -0.2180 C.2     1  UNL1        0.1660
     11  C          8.1980   -2.6760   -1.5660 C.2     1  UNL1        0.1650
     12  O          8.7500   -4.2470   -0.1270 O.2     1  UNL1       -0.4540
     13  O          8.6520   -3.7960   -2.2740 O.2     1  UNL1       -0.4540
     14  C          9.4160   -4.5390   -1.3470 C.3     1  UNL1        0.4680
@<TRIPOS>BOND
     1    13    11    1
     2    13    14    1
     3     9    11    2
     4     9     7    1
     5    11    10    1
     6    14    12    1
     7     7     6    2
     8    10    12    1
     9    10     8    2
    10     6     8    1
    11     6     5    1
    12     3     2    1
    13     5     1    1
    14     2     1    1
    15     2     4    2
