@<TRIPOS>MOLECULE
/home/cewinharhar/GITHUB/reincatalyze/data/processed/docking_pred/2023-May-31-1727_sub9_nm5_bs15_s42_ex16_mel10_mts10000_k50_ec075_g099_lra3e-4_lrc3e-3/8f258178c278a1f8efc989ef7d8625b520fa90c8_ligand_9.pdbqt
 14 15 0 0 0
SMALL
GASTEIGER

@<TRIPOS>ATOM
      1  C          5.8710    1.5580   -0.1960 C.3     1  UNL1        0.0800
      2  C          5.1030    1.3710    1.0480 C.2     1  UNL1        0.1300
      3  C          5.5060    0.1700    1.8870 C.3     1  UNL1        0.0870
      4  O          4.2100    2.0490    1.4700 O.2     1  UNL1       -0.3000
      5  C          7.2760    1.1010   -0.1690 C.3     1  UNL1        0.0430
      6  C          7.5740   -0.1900   -0.7960 C.2     1  UNL1       -0.0440
      7  C          7.6080   -0.3540   -2.1820 C.2     1  UNL1        0.0080
      8  C          7.8590   -1.2850   -0.0150 C.2     1  UNL1        0.0540
      9  C          7.9200   -1.5840   -2.7000 C.2     1  UNL1        0.0510
     10  C          8.1760   -2.5340   -0.5720 C.2     1  UNL1        0.1660
     11  C          8.2090   -2.6950   -1.9390 C.2     1  UNL1        0.1650
     12  O          8.4990   -3.7790   -0.0460 O.2     1  UNL1       -0.4540
     13  O          8.5480   -4.0230   -2.2280 O.2     1  UNL1       -0.4540
     14  C          9.1730   -4.5110   -1.0590 C.3     1  UNL1        0.4680
@<TRIPOS>BOND
     1     9     7    1
     2     9    11    2
     3    13    11    1
     4    13    14    1
     5     7     6    2
     6    11    10    1
     7    14    12    1
     8     6     5    1
     9     6     8    1
    10    10    12    1
    11    10     8    2
    12     1     5    1
    13     1     2    1
    14     2     4    2
    15     2     3    1
