MODEL 1
REMARK VINA RESULT:      -7.6      0.000      0.000
REMARK SMILES CC(=O)CCc1ccc2c(c1)OCO2
REMARK SMILES IDX 4 1 2 2 1 3 3 4 5 5 6 6 7 7 11 8 8 9 10 10 9 11 12 12 14 13
REMARK SMILES IDX 13 14
REMARK H PARENT
REMARK Flexibility Score: inf
ROOT
ATOM      1  C   UNL     1       5.777   1.759   1.301  1.00  0.00     0.080 C 
ENDROOT
BRANCH   1   2
ATOM      2  C   UNL     1       5.184   0.623   2.030  1.00  0.00     0.130 C 
ATOM      3  C   UNL     1       6.090  -0.585   2.198  1.00  0.00     0.087 C 
ATOM      4  O   UNL     1       4.085   0.544   2.501  1.00  0.00    -0.300 OA
ENDBRANCH   1   2
BRANCH   1   5
ATOM      5  C   UNL     1       5.739   1.677  -0.174  1.00  0.00     0.043 C 
BRANCH   5   6
ATOM      6  C   UNL     1       6.800   0.906  -0.829  1.00  0.00    -0.044 A 
ATOM      7  C   UNL     1       8.145   1.269  -0.744  1.00  0.00     0.008 A 
ATOM      8  C   UNL     1       6.487  -0.233  -1.535  1.00  0.00     0.054 A 
ATOM      9  C   UNL     1       9.087   0.486  -1.359  1.00  0.00     0.051 A 
ATOM     10  C   UNL     1       7.472  -1.017  -2.155  1.00  0.00     0.166 A 
ATOM     11  C   UNL     1       8.800  -0.658  -2.071  1.00  0.00     0.165 A 
ATOM     12  O   UNL     1       7.453  -2.182  -2.911  1.00  0.00    -0.454 OA
ATOM     13  O   UNL     1       9.566  -1.600  -2.770  1.00  0.00    -0.454 OA
ATOM     14  C   UNL     1       8.753  -2.752  -2.855  1.00  0.00     0.468 C 
ENDBRANCH   5   6
ENDBRANCH   1   5
TORSDOF 3
ENDMDL
MODEL 2
REMARK VINA RESULT:      -7.0      1.747      2.167
REMARK SMILES CC(=O)CCc1ccc2c(c1)OCO2
REMARK SMILES IDX 4 1 2 2 1 3 3 4 5 5 6 6 7 7 11 8 8 9 10 10 9 11 12 12 14 13
REMARK SMILES IDX 13 14
REMARK H PARENT
REMARK Flexibility Score: inf
ROOT
ATOM      1  C   UNL     1       5.871   1.558  -0.196  1.00  0.00     0.080 C 
ENDROOT
BRANCH   1   2
ATOM      2  C   UNL     1       5.103   1.371   1.048  1.00  0.00     0.130 C 
ATOM      3  C   UNL     1       5.506   0.170   1.887  1.00  0.00     0.087 C 
ATOM      4  O   UNL     1       4.210   2.049   1.470  1.00  0.00    -0.300 OA
ENDBRANCH   1   2
BRANCH   1   5
ATOM      5  C   UNL     1       7.276   1.101  -0.169  1.00  0.00     0.043 C 
BRANCH   5   6
ATOM      6  C   UNL     1       7.574  -0.190  -0.796  1.00  0.00    -0.044 A 
ATOM      7  C   UNL     1       7.608  -0.354  -2.182  1.00  0.00     0.008 A 
ATOM      8  C   UNL     1       7.859  -1.285  -0.015  1.00  0.00     0.054 A 
ATOM      9  C   UNL     1       7.920  -1.584  -2.700  1.00  0.00     0.051 A 
ATOM     10  C   UNL     1       8.176  -2.534  -0.572  1.00  0.00     0.166 A 
ATOM     11  C   UNL     1       8.209  -2.695  -1.939  1.00  0.00     0.165 A 
ATOM     12  O   UNL     1       8.499  -3.779  -0.046  1.00  0.00    -0.454 OA
ATOM     13  O   UNL     1       8.548  -4.023  -2.228  1.00  0.00    -0.454 OA
ATOM     14  C   UNL     1       9.173  -4.511  -1.059  1.00  0.00     0.468 C 
ENDBRANCH   5   6
ENDBRANCH   1   5
TORSDOF 3
ENDMDL
MODEL 3
REMARK VINA RESULT:      -6.7      1.922      2.448
REMARK SMILES CC(=O)CCc1ccc2c(c1)OCO2
REMARK SMILES IDX 4 1 2 2 1 3 3 4 5 5 6 6 7 7 11 8 8 9 10 10 9 11 12 12 14 13
REMARK SMILES IDX 13 14
REMARK H PARENT
REMARK Flexibility Score: inf
ROOT
ATOM      1  C   UNL     1       5.687   0.072   1.991  1.00  0.00     0.080 C 
ENDROOT
BRANCH   1   2
ATOM      2  C   UNL     1       4.693   1.122   1.706  1.00  0.00     0.130 C 
ATOM      3  C   UNL     1       5.047   2.061   0.565  1.00  0.00     0.087 C 
ATOM      4  O   UNL     1       3.650   1.318   2.264  1.00  0.00    -0.300 OA
ENDBRANCH   1   2
BRANCH   1   5
ATOM      5  C   UNL     1       7.010   0.237   1.352  1.00  0.00     0.043 C 
BRANCH   5   6
ATOM      6  C   UNL     1       7.392  -0.748   0.337  1.00  0.00    -0.044 A 
ATOM      7  C   UNL     1       7.334  -0.470  -1.029  1.00  0.00     0.008 A 
ATOM      8  C   UNL     1       7.854  -1.987   0.719  1.00  0.00     0.054 A 
ATOM      9  C   UNL     1       7.733  -1.430  -1.923  1.00  0.00     0.051 A 
ATOM     10  C   UNL     1       8.256  -2.951  -0.218  1.00  0.00     0.166 A 
ATOM     11  C   UNL     1       8.198  -2.676  -1.566  1.00  0.00     0.165 A 
ATOM     12  O   UNL     1       8.750  -4.247  -0.127  1.00  0.00    -0.454 OA
ATOM     13  O   UNL     1       8.652  -3.796  -2.274  1.00  0.00    -0.454 OA
ATOM     14  C   UNL     1       9.416  -4.539  -1.347  1.00  0.00     0.468 C 
ENDBRANCH   5   6
ENDBRANCH   1   5
TORSDOF 3
ENDMDL
MODEL 4
REMARK VINA RESULT:      -6.7      1.096      1.585
REMARK SMILES CC(=O)CCc1ccc2c(c1)OCO2
REMARK SMILES IDX 4 1 2 2 1 3 3 4 5 5 6 6 7 7 11 8 8 9 10 10 9 11 12 12 14 13
REMARK SMILES IDX 13 14
REMARK H PARENT
REMARK Flexibility Score: inf
ROOT
ATOM      1  C   UNL     1       5.335  -0.022   1.989  1.00  0.00     0.080 C 
ENDROOT
BRANCH   1   2
ATOM      2  C   UNL     1       4.388   1.101   1.869  1.00  0.00     0.130 C 
ATOM      3  C   UNL     1       4.733   2.132   0.807  1.00  0.00     0.087 C 
ATOM      4  O   UNL     1       3.390   1.293   2.504  1.00  0.00    -0.300 OA
ENDBRANCH   1   2
BRANCH   1   5
ATOM      5  C   UNL     1       6.760   0.300   1.762  1.00  0.00     0.043 C 
BRANCH   5   6
ATOM      6  C   UNL     1       7.312  -0.000   0.438  1.00  0.00    -0.044 A 
ATOM      7  C   UNL     1       7.870   0.987  -0.377  1.00  0.00     0.008 A 
ATOM      8  C   UNL     1       7.317  -1.294  -0.029  1.00  0.00     0.054 A 
ATOM      9  C   UNL     1       8.393   0.630  -1.592  1.00  0.00     0.051 A 
ATOM     10  C   UNL     1       7.859  -1.631  -1.278  1.00  0.00     0.166 A 
ATOM     11  C   UNL     1       8.410  -0.657  -2.082  1.00  0.00     0.165 A 
ATOM     12  O   UNL     1       7.999  -2.817  -1.989  1.00  0.00    -0.454 OA
ATOM     13  O   UNL     1       8.874  -1.256  -3.261  1.00  0.00    -0.454 OA
ATOM     14  C   UNL     1       9.028  -2.625  -2.948  1.00  0.00     0.468 C 
ENDBRANCH   5   6
ENDBRANCH   1   5
TORSDOF 3
ENDMDL
MODEL 5
REMARK VINA RESULT:      -6.5      1.525      2.225
REMARK SMILES CC(=O)CCc1ccc2c(c1)OCO2
REMARK SMILES IDX 4 1 2 2 1 3 3 4 5 5 6 6 7 7 11 8 8 9 10 10 9 11 12 12 14 13
REMARK SMILES IDX 13 14
REMARK H PARENT
REMARK Flexibility Score: inf
ROOT
ATOM      1  C   UNL     1       5.305  -0.085   2.193  1.00  0.00     0.080 C 
ENDROOT
BRANCH   1   2
ATOM      2  C   UNL     1       4.431   1.068   1.909  1.00  0.00     0.130 C 
ATOM      3  C   UNL     1       4.905   1.982   0.792  1.00  0.00     0.087 C 
ATOM      4  O   UNL     1       3.403   1.363   2.449  1.00  0.00    -0.300 OA
ENDBRANCH   1   2
BRANCH   1   5
ATOM      5  C   UNL     1       6.743   0.102   1.909  1.00  0.00     0.043 C 
BRANCH   5   6
ATOM      6  C   UNL     1       7.316  -0.680   0.810  1.00  0.00    -0.044 A 
ATOM      7  C   UNL     1       7.634  -2.032   0.945  1.00  0.00     0.008 A 
ATOM      8  C   UNL     1       7.531  -0.091  -0.415  1.00  0.00     0.054 A 
ATOM      9  C   UNL     1       8.141  -2.709  -0.133  1.00  0.00     0.051 A 
ATOM     10  C   UNL     1       8.052  -0.808  -1.502  1.00  0.00     0.166 A 
ATOM     11  C   UNL     1       8.366  -2.143  -1.368  1.00  0.00     0.165 A 
ATOM     12  O   UNL     1       8.366  -0.487  -2.817  1.00  0.00    -0.454 OA
ATOM     13  O   UNL     1       8.863  -2.613  -2.591  1.00  0.00    -0.454 OA
ATOM     14  C   UNL     1       8.399  -1.697  -3.560  1.00  0.00     0.468 C 
ENDBRANCH   5   6
ENDBRANCH   1   5
TORSDOF 3
ENDMDL
