@<TRIPOS>MOLECULE
/home/cewinharhar/GITHUB/reincatalyze/data/processed/docking_pred/2023-May-31-1727_sub9_nm5_bs15_s42_ex16_mel10_mts10000_k50_ec075_g099_lra3e-4_lrc3e-3/8f3f3cc121b2e0b9b67c9595347d7d2b0dd21437_ligand_9.pdbqt
 14 15 0 0 0
SMALL
GASTEIGER

@<TRIPOS>ATOM
      1  C          5.8400    0.2220    1.9810 C.3     1  UNL1        0.0800
      2  C          4.7510    1.1770    1.7040 C.2     1  UNL1        0.1300
      3  C          5.0000    2.1270    0.5450 C.3     1  UNL1        0.0870
      4  O          3.7060    1.2880    2.2790 O.2     1  UNL1       -0.3000
      5  C          7.0850    0.4100    1.2070 C.3     1  UNL1        0.0430
      6  C          7.4300   -0.6260    0.2300 C.2     1  UNL1       -0.0440
      7  C          7.3540   -0.4070   -1.1460 C.2     1  UNL1        0.0080
      8  C          7.8730   -1.8560    0.6580 C.2     1  UNL1        0.0540
      9  C          7.7180   -1.4130   -2.0030 C.2     1  UNL1        0.0510
     10  C          8.2400   -2.8680   -0.2410 C.2     1  UNL1        0.1660
     11  C          8.1640   -2.6520   -1.5990 C.2     1  UNL1        0.1650
     12  O          8.7090   -4.1690   -0.1010 O.2     1  UNL1       -0.4540
     13  O          8.5840   -3.8110   -2.2640 O.2     1  UNL1       -0.4540
     14  C          9.3490   -4.5280   -1.3170 C.3     1  UNL1        0.4680
@<TRIPOS>BOND
     1    13    11    1
     2    13    14    1
     3     9    11    2
     4     9     7    1
     5    11    10    1
     6    14    12    1
     7     7     6    2
     8    10    12    1
     9    10     8    2
    10     6     8    1
    11     6     5    1
    12     3     2    1
    13     5     1    1
    14     2     1    1
    15     2     4    2
