@<TRIPOS>MOLECULE
/home/cewinharhar/GITHUB/reincatalyze/data/processed/docking_pred/2023-May-31-1727_sub9_nm5_bs15_s42_ex16_mel10_mts10000_k50_ec075_g099_lra3e-4_lrc3e-3/8f3f3cc121b2e0b9b67c9595347d7d2b0dd21437_ligand_9.pdbqt
 14 15 0 0 0
SMALL
GASTEIGER

@<TRIPOS>ATOM
      1  C          6.3470    1.1510    0.8010 C.3     1  UNL1        0.0800
      2  C          5.6620    0.4140    1.8780 C.2     1  UNL1        0.1300
      3  C          6.3920   -0.8160    2.3900 C.3     1  UNL1        0.0870
      4  O          4.6090    0.6700    2.3900 O.2     1  UNL1       -0.3000
      5  C          5.9440    0.8110   -0.5800 C.3     1  UNL1        0.0430
      6  C          6.8850    0.0210   -1.3780 C.2     1  UNL1       -0.0440
      7  C          7.6760    0.5910   -2.3770 C.2     1  UNL1        0.0080
      8  C          7.0320   -1.3250   -1.1350 C.2     1  UNL1        0.0540
      9  C          8.5550   -0.2030   -3.0660 C.2     1  UNL1        0.0510
     10  C          7.9410   -2.1150   -1.8560 C.2     1  UNL1        0.1660
     11  C          8.7210   -1.5520   -2.8420 C.2     1  UNL1        0.1650
     12  O          8.2940   -3.4590   -1.8300 O.2     1  UNL1       -0.4540
     13  O          9.5310   -2.5500   -3.3990 O.2     1  UNL1       -0.4540
     14  C          9.5740   -3.5790   -2.4320 C.3     1  UNL1        0.4680
@<TRIPOS>BOND
     1    13    11    1
     2    13    14    1
     3     9    11    2
     4     9     7    1
     5    11    10    1
     6    14    12    1
     7     7     6    2
     8    10    12    1
     9    10     8    2
    10     6     8    1
    11     6     5    1
    12     5     1    1
    13     1     2    1
    14     2     3    1
    15     2     4    2
