@<TRIPOS>MOLECULE
/home/cewinharhar/GITHUB/reincatalyze/data/processed/docking_pred/2023-May-31-1727_sub9_nm5_bs15_s42_ex16_mel10_mts10000_k50_ec075_g099_lra3e-4_lrc3e-3/8f7c925e970cb887b69f6e81c5db99fda922d0ae_ligand_9.pdbqt
 14 15 0 0 0
SMALL
GASTEIGER

@<TRIPOS>ATOM
      1  C          6.5560    1.1910    1.2480 C.3     1  UNL1        0.0800
      2  C          5.2040    1.6950    0.9460 C.2     1  UNL1        0.1300
      3  C          4.9840    2.1500   -0.4860 C.3     1  UNL1        0.0870
      4  O          4.2700    1.7850    1.6910 O.2     1  UNL1       -0.3000
      5  C          7.5100    1.1720    0.1190 C.3     1  UNL1        0.0430
      6  C          7.7190   -0.1100   -0.5600 C.2     1  UNL1       -0.0440
      7  C          7.6890   -0.2290   -1.9500 C.2     1  UNL1        0.0080
      8  C          7.9830   -1.2430    0.1740 C.2     1  UNL1        0.0540
      9  C          7.9190   -1.4550   -2.5190 C.2     1  UNL1        0.0510
     10  C          8.2160   -2.4860   -0.4350 C.2     1  UNL1        0.1660
     11  C          8.1850   -2.6030   -1.8070 C.2     1  UNL1        0.1650
     12  O          8.4990   -3.7620    0.0370 O.2     1  UNL1       -0.4540
     13  O          8.4470   -3.9360   -2.1510 O.2     1  UNL1       -0.4540
     14  C          9.0960   -4.4910   -1.0250 C.3     1  UNL1        0.4680
@<TRIPOS>BOND
     1     9     7    1
     2     9    11    2
     3    13    11    1
     4    13    14    1
     5     7     6    2
     6    11    10    1
     7    14    12    1
     8     6     5    1
     9     6     8    1
    10     3     2    1
    11    10    12    1
    12    10     8    2
    13     5     1    1
    14     2     1    1
    15     2     4    2
