MODEL 1
REMARK VINA RESULT:      -7.6      0.000      0.000
REMARK SMILES CC(=O)CCc1ccc2c(c1)OCO2
REMARK SMILES IDX 4 1 2 2 1 3 3 4 5 5 6 6 7 7 11 8 8 9 10 10 9 11 12 12 14 13
REMARK SMILES IDX 13 14
REMARK H PARENT
REMARK Flexibility Score: inf
ROOT
ATOM      1  C   UNL     1       5.617   1.880   1.269  1.00  0.00     0.080 C 
ENDROOT
BRANCH   1   2
ATOM      2  C   UNL     1       5.032   0.745   2.006  1.00  0.00     0.130 C 
ATOM      3  C   UNL     1       5.945  -0.457   2.179  1.00  0.00     0.087 C 
ATOM      4  O   UNL     1       3.934   0.662   2.478  1.00  0.00    -0.300 OA
ENDBRANCH   1   2
BRANCH   1   5
ATOM      5  C   UNL     1       5.607   1.775  -0.205  1.00  0.00     0.043 C 
BRANCH   5   6
ATOM      6  C   UNL     1       6.691   1.012  -0.830  1.00  0.00    -0.044 A 
ATOM      7  C   UNL     1       8.031   1.382  -0.701  1.00  0.00     0.008 A 
ATOM      8  C   UNL     1       6.407  -0.125  -1.549  1.00  0.00     0.054 A 
ATOM      9  C   UNL     1       8.996   0.607  -1.290  1.00  0.00     0.051 A 
ATOM     10  C   UNL     1       7.415  -0.901  -2.141  1.00  0.00     0.166 A 
ATOM     11  C   UNL     1       8.737  -0.535  -2.015  1.00  0.00     0.165 A 
ATOM     12  O   UNL     1       7.426  -2.063  -2.902  1.00  0.00    -0.454 OA
ATOM     13  O   UNL     1       9.530  -1.470  -2.693  1.00  0.00    -0.454 OA
ATOM     14  C   UNL     1       8.727  -2.627  -2.809  1.00  0.00     0.468 C 
ENDBRANCH   5   6
ENDBRANCH   1   5
TORSDOF 3
ENDMDL
MODEL 2
REMARK VINA RESULT:      -7.0      1.793      2.236
REMARK SMILES CC(=O)CCc1ccc2c(c1)OCO2
REMARK SMILES IDX 4 1 2 2 1 3 3 4 5 5 6 6 7 7 11 8 8 9 10 10 9 11 12 12 14 13
REMARK SMILES IDX 13 14
REMARK H PARENT
REMARK Flexibility Score: inf
ROOT
ATOM      1  C   UNL     1       5.730   1.343  -0.274  1.00  0.00     0.080 C 
ENDROOT
BRANCH   1   2
ATOM      2  C   UNL     1       5.102   1.316   1.060  1.00  0.00     0.130 C 
ATOM      3  C   UNL     1       5.488   0.138   1.937  1.00  0.00     0.087 C 
ATOM      4  O   UNL     1       4.332   2.108   1.526  1.00  0.00    -0.300 OA
ENDBRANCH   1   2
BRANCH   1   5
ATOM      5  C   UNL     1       7.176   1.041  -0.319  1.00  0.00     0.043 C 
BRANCH   5   6
ATOM      6  C   UNL     1       7.574  -0.242  -0.905  1.00  0.00    -0.044 A 
ATOM      7  C   UNL     1       7.758  -0.408  -2.279  1.00  0.00     0.008 A 
ATOM      8  C   UNL     1       7.808  -1.327  -0.092  1.00  0.00     0.054 A 
ATOM      9  C   UNL     1       8.158  -1.629  -2.755  1.00  0.00     0.051 A 
ATOM     10  C   UNL     1       8.218  -2.567  -0.607  1.00  0.00     0.166 A 
ATOM     11  C   UNL     1       8.398  -2.730  -1.963  1.00  0.00     0.165 A 
ATOM     12  O   UNL     1       8.519  -3.801  -0.045  1.00  0.00    -0.454 OA
ATOM     13  O   UNL     1       8.804  -4.048  -2.208  1.00  0.00    -0.454 OA
ATOM     14  C   UNL     1       9.317  -4.515  -0.977  1.00  0.00     0.468 C 
ENDBRANCH   5   6
ENDBRANCH   1   5
TORSDOF 3
ENDMDL
MODEL 3
REMARK VINA RESULT:      -6.9      1.092      1.167
REMARK SMILES CC(=O)CCc1ccc2c(c1)OCO2
REMARK SMILES IDX 4 1 2 2 1 3 3 4 5 5 6 6 7 7 11 8 8 9 10 10 9 11 12 12 14 13
REMARK SMILES IDX 13 14
REMARK H PARENT
REMARK Flexibility Score: inf
ROOT
ATOM      1  C   UNL     1       6.253   1.212   0.945  1.00  0.00     0.080 C 
ENDROOT
BRANCH   1   2
ATOM      2  C   UNL     1       5.551   0.403   1.958  1.00  0.00     0.130 C 
ATOM      3  C   UNL     1       6.298  -0.830   2.437  1.00  0.00     0.087 C 
ATOM      4  O   UNL     1       4.473   0.603   2.440  1.00  0.00    -0.300 OA
ENDBRANCH   1   2
BRANCH   1   5
ATOM      5  C   UNL     1       5.901   0.941  -0.464  1.00  0.00     0.043 C 
BRANCH   5   6
ATOM      6  C   UNL     1       6.856   0.160  -1.256  1.00  0.00    -0.044 A 
ATOM      7  C   UNL     1       7.761   0.760  -2.133  1.00  0.00     0.008 A 
ATOM      8  C   UNL     1       6.900  -1.208  -1.128  1.00  0.00     0.054 A 
ATOM      9  C   UNL     1       8.645  -0.029  -2.822  1.00  0.00     0.051 A 
ATOM     10  C   UNL     1       7.816  -1.993  -1.846  1.00  0.00     0.166 A 
ATOM     11  C   UNL     1       8.708  -1.401  -2.712  1.00  0.00     0.165 A 
ATOM     12  O   UNL     1       8.083  -3.355  -1.917  1.00  0.00    -0.454 OA
ATOM     13  O   UNL     1       9.501  -2.399  -3.293  1.00  0.00    -0.454 OA
ATOM     14  C   UNL     1       9.399  -3.509  -2.426  1.00  0.00     0.468 C 
ENDBRANCH   5   6
ENDBRANCH   1   5
TORSDOF 3
ENDMDL
MODEL 4
REMARK VINA RESULT:      -6.9      1.822      2.425
REMARK SMILES CC(=O)CCc1ccc2c(c1)OCO2
REMARK SMILES IDX 4 1 2 2 1 3 3 4 5 5 6 6 7 7 11 8 8 9 10 10 9 11 12 12 14 13
REMARK SMILES IDX 13 14
REMARK H PARENT
REMARK Flexibility Score: inf
ROOT
ATOM      1  C   UNL     1       6.556   1.191   1.248  1.00  0.00     0.080 C 
ENDROOT
BRANCH   1   2
ATOM      2  C   UNL     1       5.204   1.695   0.946  1.00  0.00     0.130 C 
ATOM      3  C   UNL     1       4.984   2.150  -0.486  1.00  0.00     0.087 C 
ATOM      4  O   UNL     1       4.270   1.785   1.691  1.00  0.00    -0.300 OA
ENDBRANCH   1   2
BRANCH   1   5
ATOM      5  C   UNL     1       7.510   1.172   0.119  1.00  0.00     0.043 C 
BRANCH   5   6
ATOM      6  C   UNL     1       7.719  -0.110  -0.560  1.00  0.00    -0.044 A 
ATOM      7  C   UNL     1       7.689  -0.229  -1.950  1.00  0.00     0.008 A 
ATOM      8  C   UNL     1       7.983  -1.243   0.174  1.00  0.00     0.054 A 
ATOM      9  C   UNL     1       7.919  -1.455  -2.519  1.00  0.00     0.051 A 
ATOM     10  C   UNL     1       8.216  -2.486  -0.435  1.00  0.00     0.166 A 
ATOM     11  C   UNL     1       8.185  -2.603  -1.807  1.00  0.00     0.165 A 
ATOM     12  O   UNL     1       8.499  -3.762   0.037  1.00  0.00    -0.454 OA
ATOM     13  O   UNL     1       8.447  -3.936  -2.151  1.00  0.00    -0.454 OA
ATOM     14  C   UNL     1       9.096  -4.491  -1.025  1.00  0.00     0.468 C 
ENDBRANCH   5   6
ENDBRANCH   1   5
TORSDOF 3
ENDMDL
MODEL 5
REMARK VINA RESULT:      -6.7      1.179      1.654
REMARK SMILES CC(=O)CCc1ccc2c(c1)OCO2
REMARK SMILES IDX 4 1 2 2 1 3 3 4 5 5 6 6 7 7 11 8 8 9 10 10 9 11 12 12 14 13
REMARK SMILES IDX 13 14
REMARK H PARENT
REMARK Flexibility Score: inf
ROOT
ATOM      1  C   UNL     1       5.416  -0.074   1.955  1.00  0.00     0.080 C 
ENDROOT
BRANCH   1   2
ATOM      2  C   UNL     1       4.463   1.048   1.879  1.00  0.00     0.130 C 
ATOM      3  C   UNL     1       4.769   2.090   0.816  1.00  0.00     0.087 C 
ATOM      4  O   UNL     1       3.487   1.231   2.549  1.00  0.00    -0.300 OA
ENDBRANCH   1   2
BRANCH   1   5
ATOM      5  C   UNL     1       6.831   0.253   1.677  1.00  0.00     0.043 C 
BRANCH   5   6
ATOM      6  C   UNL     1       7.358  -0.115   0.361  1.00  0.00    -0.044 A 
ATOM      7  C   UNL     1       7.766   0.840  -0.572  1.00  0.00     0.008 A 
ATOM      8  C   UNL     1       7.491  -1.441   0.019  1.00  0.00     0.054 A 
ATOM      9  C   UNL     1       8.275   0.423  -1.774  1.00  0.00     0.051 A 
ATOM     10  C   UNL     1       8.016  -1.840  -1.220  1.00  0.00     0.166 A 
ATOM     11  C   UNL     1       8.418  -0.897  -2.140  1.00  0.00     0.165 A 
ATOM     12  O   UNL     1       8.261  -3.068  -1.821  1.00  0.00    -0.454 OA
ATOM     13  O   UNL     1       8.898  -1.555  -3.279  1.00  0.00    -0.454 OA
ATOM     14  C   UNL     1       9.220  -2.861  -2.848  1.00  0.00     0.468 C 
ENDBRANCH   5   6
ENDBRANCH   1   5
TORSDOF 3
ENDMDL
