@<TRIPOS>MOLECULE
/home/cewinharhar/GITHUB/reincatalyze/data/processed/docking_pred/2023-May-31-1727_sub9_nm5_bs15_s42_ex16_mel10_mts10000_k50_ec075_g099_lra3e-4_lrc3e-3/8f7c925e970cb887b69f6e81c5db99fda922d0ae_ligand_9.pdbqt
 14 15 0 0 0
SMALL
GASTEIGER

@<TRIPOS>ATOM
      1  C          5.4160   -0.0740    1.9550 C.3     1  UNL1        0.0800
      2  C          4.4630    1.0480    1.8790 C.2     1  UNL1        0.1300
      3  C          4.7690    2.0900    0.8160 C.3     1  UNL1        0.0870
      4  O          3.4870    1.2310    2.5490 O.2     1  UNL1       -0.3000
      5  C          6.8310    0.2530    1.6770 C.3     1  UNL1        0.0430
      6  C          7.3580   -0.1150    0.3610 C.2     1  UNL1       -0.0440
      7  C          7.7660    0.8400   -0.5720 C.2     1  UNL1        0.0080
      8  C          7.4910   -1.4410    0.0190 C.2     1  UNL1        0.0540
      9  C          8.2750    0.4230   -1.7740 C.2     1  UNL1        0.0510
     10  C          8.0160   -1.8400   -1.2200 C.2     1  UNL1        0.1660
     11  C          8.4180   -0.8970   -2.1400 C.2     1  UNL1        0.1650
     12  O          8.2610   -3.0680   -1.8210 O.2     1  UNL1       -0.4540
     13  O          8.8980   -1.5550   -3.2790 O.2     1  UNL1       -0.4540
     14  C          9.2200   -2.8610   -2.8480 C.3     1  UNL1        0.4680
@<TRIPOS>BOND
     1    13    14    1
     2    13    11    1
     3    14    12    1
     4    11     9    2
     5    11    10    1
     6    12    10    1
     7     9     7    1
     8    10     8    2
     9     7     6    2
    10     8     6    1
    11     6     5    1
    12     3     2    1
    13     5     1    1
    14     2     1    1
    15     2     4    2
