@<TRIPOS>MOLECULE
/home/cewinharhar/GITHUB/reincatalyze/data/processed/docking_pred/2023-May-31-1727_sub9_nm5_bs15_s42_ex16_mel10_mts10000_k50_ec075_g099_lra3e-4_lrc3e-3/8f7c925e970cb887b69f6e81c5db99fda922d0ae_ligand_9.pdbqt
 14 15 0 0 0
SMALL
GASTEIGER

@<TRIPOS>ATOM
      1  C          6.2530    1.2120    0.9450 C.3     1  UNL1        0.0800
      2  C          5.5510    0.4030    1.9580 C.2     1  UNL1        0.1300
      3  C          6.2980   -0.8300    2.4370 C.3     1  UNL1        0.0870
      4  O          4.4730    0.6030    2.4400 O.2     1  UNL1       -0.3000
      5  C          5.9010    0.9410   -0.4640 C.3     1  UNL1        0.0430
      6  C          6.8560    0.1600   -1.2560 C.2     1  UNL1       -0.0440
      7  C          7.7610    0.7600   -2.1330 C.2     1  UNL1        0.0080
      8  C          6.9000   -1.2080   -1.1280 C.2     1  UNL1        0.0540
      9  C          8.6450   -0.0290   -2.8220 C.2     1  UNL1        0.0510
     10  C          7.8160   -1.9930   -1.8460 C.2     1  UNL1        0.1660
     11  C          8.7080   -1.4010   -2.7120 C.2     1  UNL1        0.1650
     12  O          8.0830   -3.3550   -1.9170 O.2     1  UNL1       -0.4540
     13  O          9.5010   -2.3990   -3.2930 O.2     1  UNL1       -0.4540
     14  C          9.3990   -3.5090   -2.4260 C.3     1  UNL1        0.4680
@<TRIPOS>BOND
     1    13    11    1
     2    13    14    1
     3     9    11    2
     4     9     7    1
     5    11    10    1
     6    14    12    1
     7     7     6    2
     8    12    10    1
     9    10     8    2
    10     6     8    1
    11     6     5    1
    12     5     1    1
    13     1     2    1
    14     2     3    1
    15     2     4    2
