@<TRIPOS>MOLECULE
/home/cewinharhar/GITHUB/reincatalyze/data/processed/docking_pred/2023-May-31-1727_sub9_nm5_bs15_s42_ex16_mel10_mts10000_k50_ec075_g099_lra3e-4_lrc3e-3/8f7e92428ebbeefdf44ae8ea1c0956f20f305f25_ligand_9.pdbqt
 14 15 0 0 0
SMALL
GASTEIGER

@<TRIPOS>ATOM
      1  C          5.6060    1.8770    1.2580 C.3     1  UNL1        0.0800
      2  C          5.0260    0.7430    2.0020 C.2     1  UNL1        0.1300
      3  C          5.9360   -0.4640    2.1590 C.3     1  UNL1        0.0870
      4  O          3.9350    0.6650    2.4900 O.2     1  UNL1       -0.3000
      5  C          5.5940    1.7640   -0.2150 C.3     1  UNL1        0.0430
      6  C          6.6790    1.0010   -0.8380 C.2     1  UNL1       -0.0440
      7  C          8.0180    1.3750   -0.7120 C.2     1  UNL1        0.0080
      8  C          6.3970   -0.1410   -1.5510 C.2     1  UNL1        0.0540
      9  C          8.9850    0.5990   -1.2980 C.2     1  UNL1        0.0510
     10  C          7.4070   -0.9170   -2.1410 C.2     1  UNL1        0.1660
     11  C          8.7280   -0.5480   -2.0180 C.2     1  UNL1        0.1650
     12  O          7.4200   -2.0840   -2.8960 O.2     1  UNL1       -0.4540
     13  O          9.5220   -1.4840   -2.6920 O.2     1  UNL1       -0.4540
     14  C          8.7210   -2.6430   -2.8010 C.3     1  UNL1        0.4680
@<TRIPOS>BOND
     1    12    14    1
     2    12    10    1
     3    14    13    1
     4    13    11    1
     5    10    11    2
     6    10     8    1
     7    11     9    1
     8     8     6    2
     9     9     7    2
    10     6     7    1
    11     6     5    1
    12     5     1    1
    13     1     2    1
    14     2     3    1
    15     2     4    2
