@<TRIPOS>MOLECULE
/home/cewinharhar/GITHUB/reincatalyze/data/processed/docking_pred/2023-May-31-1727_sub9_nm5_bs15_s42_ex16_mel10_mts10000_k50_ec075_g099_lra3e-4_lrc3e-3/8f7e92428ebbeefdf44ae8ea1c0956f20f305f25_ligand_9.pdbqt
 14 15 0 0 0
SMALL
GASTEIGER

@<TRIPOS>ATOM
      1  C          6.1830    1.2580    0.9070 C.3     1  UNL1        0.0800
      2  C          5.5290    0.3890    1.9020 C.2     1  UNL1        0.1300
      3  C          6.3360   -0.8240    2.3360 C.3     1  UNL1        0.0870
      4  O          4.4500    0.5260    2.4030 O.2     1  UNL1       -0.3000
      5  C          5.8970    0.9530   -0.5110 C.3     1  UNL1        0.0430
      6  C          6.9100    0.1950   -1.2510 C.2     1  UNL1       -0.0440
      7  C          7.9830    0.8160   -1.8930 C.2     1  UNL1        0.0080
      8  C          6.8400   -1.1780   -1.3050 C.2     1  UNL1        0.0540
      9  C          8.9090    0.0430   -2.5440 C.2     1  UNL1        0.0510
     10  C          7.8020   -1.9450   -1.9780 C.2     1  UNL1        0.1660
     11  C          8.8600   -1.3320   -2.6130 C.2     1  UNL1        0.1650
     12  O          7.9830   -3.3060   -2.1930 O.2     1  UNL1       -0.4540
     13  O          9.6650   -2.3170   -3.2000 O.2     1  UNL1       -0.4540
     14  C          9.3510   -3.5120   -2.5170 C.3     1  UNL1        0.4680
@<TRIPOS>BOND
     1    13    11    1
     2    13    14    1
     3    11     9    2
     4    11    10    1
     5     9     7    1
     6    14    12    1
     7    12    10    1
     8    10     8    2
     9     7     6    2
    10     8     6    1
    11     6     5    1
    12     5     1    1
    13     1     2    1
    14     2     3    1
    15     2     4    2
