@<TRIPOS>MOLECULE
/home/cewinharhar/GITHUB/reincatalyze/data/processed/docking_pred/2023-May-31-1727_sub9_nm5_bs15_s42_ex16_mel10_mts10000_k50_ec075_g099_lra3e-4_lrc3e-3/91438d65c636cbfd2c8442c68b92b155f88758ee_ligand_9.pdbqt
 14 15 0 0 0
SMALL
GASTEIGER

@<TRIPOS>ATOM
      1  C          8.2090   -2.3430   -3.4880 C.3     1  UNL1        0.0800
      2  C          9.2590   -3.3710   -3.3720 C.2     1  UNL1        0.1300
      3  C          8.7600   -4.8040   -3.2990 C.3     1  UNL1        0.0870
      4  O         10.4460   -3.2090   -3.3300 O.2     1  UNL1       -0.3000
      5  C          8.5480   -1.0040   -2.9620 C.3     1  UNL1        0.0430
      6  C          7.7680   -0.5150   -1.8210 C.2     1  UNL1       -0.0440
      7  C          6.7570    0.4360   -1.9640 C.2     1  UNL1        0.0080
      8  C          8.0030   -1.0160   -0.5620 C.2     1  UNL1        0.0540
      9  C          6.0490    0.8280   -0.8570 C.2     1  UNL1        0.0510
     10  C          7.2620   -0.5970    0.5540 C.2     1  UNL1        0.1660
     11  C          6.2650    0.3420    0.4130 C.2     1  UNL1        0.1650
     12  O          7.2770   -0.9190    1.9060 O.2     1  UNL1       -0.4540
     13  O          5.6890    0.5800    1.6680 O.2     1  UNL1       -0.4540
     14  C          6.0170   -0.5510    2.4490 C.3     1  UNL1        0.4680
@<TRIPOS>BOND
     1     1     2    1
     2     1     5    1
     3     2     4    2
     4     2     3    1
     5     5     6    1
     6     7     6    2
     7     7     9    1
     8     6     8    1
     9     9    11    2
    10     8    10    2
    11    11    10    1
    12    11    13    1
    13    10    12    1
    14    13    14    1
    15    12    14    1
