@<TRIPOS>MOLECULE
/home/cewinharhar/GITHUB/reincatalyze/data/processed/docking_pred/2023-May-31-1727_sub9_nm5_bs15_s42_ex16_mel10_mts10000_k50_ec075_g099_lra3e-4_lrc3e-3/91438d65c636cbfd2c8442c68b92b155f88758ee_ligand_9.pdbqt
 14 15 0 0 0
SMALL
GASTEIGER

@<TRIPOS>ATOM
      1  C          8.2060   -2.4830   -3.6590 C.3     1  UNL1        0.0800
      2  C          9.2800   -3.4660   -3.4290 C.2     1  UNL1        0.1300
      3  C          8.8200   -4.9050   -3.2670 C.3     1  UNL1        0.0870
      4  O         10.4590   -3.2630   -3.3560 O.2     1  UNL1       -0.3000
      5  C          8.4110   -1.1430   -3.0690 C.3     1  UNL1        0.0430
      6  C          7.6500   -0.8200   -1.8590 C.2     1  UNL1       -0.0440
      7  C          7.7370   -1.5890   -0.6970 C.2     1  UNL1        0.0080
      8  C          6.8360    0.2890   -1.8330 C.2     1  UNL1        0.0540
      9  C          7.0170   -1.2120    0.4070 C.2     1  UNL1        0.0510
     10  C          6.1100    0.6520   -0.6890 C.2     1  UNL1        0.1660
     11  C          6.1960   -0.1080    0.4570 C.2     1  UNL1        0.1650
     12  O          5.2350    1.6860   -0.3800 O.2     1  UNL1       -0.4540
     13  O          5.3810    0.4680    1.4410 O.2     1  UNL1       -0.4540
     14  C          5.1950    1.8080    1.0340 C.3     1  UNL1        0.4680
@<TRIPOS>BOND
     1     1     2    1
     2     1     5    1
     3     2     4    2
     4     2     3    1
     5     5     6    1
     6     6     8    2
     7     6     7    1
     8     8    10    1
     9     7     9    2
    10    10    12    1
    11    10    11    2
    12    12    14    1
    13     9    11    1
    14    11    13    1
    15    14    13    1
