@<TRIPOS>MOLECULE
/home/cewinharhar/GITHUB/reincatalyze/data/processed/docking_pred/2023-May-31-1727_sub9_nm5_bs15_s42_ex16_mel10_mts10000_k50_ec075_g099_lra3e-4_lrc3e-3/9282b18981f6708324b0af4486d36de930a99903_ligand_9.pdbqt
 14 15 0 0 0
SMALL
GASTEIGER

@<TRIPOS>ATOM
      1  C          6.4900    2.1500    1.5320 C.3     1  UNL1        0.0800
      2  C          5.1590    1.9370    0.9330 C.2     1  UNL1        0.1300
      3  C          5.1240    1.9220   -0.5850 C.3     1  UNL1        0.0870
      4  O          4.1150    1.7760    1.4990 O.2     1  UNL1       -0.3000
      5  C          6.9040    1.1740    2.5610 C.3     1  UNL1        0.0430
      6  C          7.1190   -0.2090    2.1260 C.2     1  UNL1       -0.0440
      7  C          6.0650   -1.1060    1.9490 C.2     1  UNL1        0.0080
      8  C          8.3910   -0.6540    1.8500 C.2     1  UNL1        0.0540
      9  C          6.3370   -2.3770    1.5130 C.2     1  UNL1        0.0510
     10  C          8.6410   -1.9610    1.4050 C.2     1  UNL1        0.1660
     11  C          7.6010   -2.8460    1.2310 C.2     1  UNL1        0.1650
     12  O          9.7870   -2.6670    1.0590 O.2     1  UNL1       -0.4540
     13  O          8.1190   -4.0690    0.7850 O.2     1  UNL1       -0.4540
     14  C          9.3880   -3.7610    0.2460 C.3     1  UNL1        0.4680
@<TRIPOS>BOND
     1     3     2    1
     2    14    13    1
     3    14    12    1
     4    13    11    1
     5     2     4    2
     6     2     1    1
     7    12    10    1
     8    11    10    2
     9    11     9    1
    10    10     8    1
    11     9     7    2
    12     1     5    1
    13     8     6    2
    14     7     6    1
    15     6     5    1
