MODEL 1
REMARK VINA RESULT:       0.9      0.000      0.000
REMARK SMILES CC(=O)CCc1ccc2c(c1)OCO2
REMARK SMILES IDX 4 1 2 2 1 3 3 4 5 5 6 6 7 7 11 8 8 9 10 10 9 11 12 12 14 13
REMARK SMILES IDX 13 14
REMARK H PARENT
REMARK Flexibility Score: inf
ROOT
ATOM      1  C   UNL     1       8.852  -4.760  -0.423  1.00  0.00     0.080 C 
ENDROOT
BRANCH   1   2
ATOM      2  C   UNL     1       9.529  -4.595  -1.722  1.00  0.00     0.130 C 
ATOM      3  C   UNL     1      10.349  -5.787  -2.184  1.00  0.00     0.087 C 
ATOM      4  O   UNL     1       9.506  -3.641  -2.447  1.00  0.00    -0.300 OA
ENDBRANCH   1   2
BRANCH   1   5
ATOM      5  C   UNL     1       9.456  -4.046   0.722  1.00  0.00     0.043 C 
BRANCH   5   6
ATOM      6  C   UNL     1       8.829  -2.786   1.132  1.00  0.00    -0.044 A 
ATOM      7  C   UNL     1       9.548  -1.593   1.222  1.00  0.00     0.008 A 
ATOM      8  C   UNL     1       7.484  -2.747   1.416  1.00  0.00     0.054 A 
ATOM      9  C   UNL     1       8.892  -0.446   1.586  1.00  0.00     0.051 A 
ATOM     10  C   UNL     1       6.837  -1.558   1.786  1.00  0.00     0.166 A 
ATOM     11  C   UNL     1       7.547  -0.380   1.876  1.00  0.00     0.165 A 
ATOM     12  O   UNL     1       5.530  -1.226   2.121  1.00  0.00    -0.454 OA
ATOM     13  O   UNL     1       6.672   0.644   2.260  1.00  0.00    -0.454 OA
ATOM     14  C   UNL     1       5.380   0.174   1.934  1.00  0.00     0.468 C 
ENDBRANCH   5   6
ENDBRANCH   1   5
TORSDOF 3
ENDMDL
MODEL 2
REMARK VINA RESULT:       1.6      3.075      7.041
REMARK SMILES CC(=O)CCc1ccc2c(c1)OCO2
REMARK SMILES IDX 4 1 2 2 1 3 3 4 5 5 6 6 7 7 11 8 8 9 10 10 9 11 12 12 14 13
REMARK SMILES IDX 13 14
REMARK H PARENT
REMARK Flexibility Score: inf
ROOT
ATOM      1  C   UNL     1       2.059   0.158   3.036  1.00  0.00     0.080 C 
ENDROOT
BRANCH   1   2
ATOM      2  C   UNL     1       0.601   0.334   2.910  1.00  0.00     0.130 C 
ATOM      3  C   UNL     1      -0.242  -0.583   3.780  1.00  0.00     0.087 C 
ATOM      4  O   UNL     1       0.011   1.107   2.210  1.00  0.00    -0.300 OA
ENDBRANCH   1   2
BRANCH   1   5
ATOM      5  C   UNL     1       2.898   1.124   2.295  1.00  0.00     0.043 C 
BRANCH   5   6
ATOM      6  C   UNL     1       4.296   0.755   2.060  1.00  0.00    -0.044 A 
ATOM      7  C   UNL     1       5.297   1.710   1.873  1.00  0.00     0.008 A 
ATOM      8  C   UNL     1       4.666  -0.570   2.045  1.00  0.00     0.054 A 
ATOM      9  C   UNL     1       6.589   1.294   1.685  1.00  0.00     0.051 A 
ATOM     10  C   UNL     1       5.997  -0.968   1.851  1.00  0.00     0.166 A 
ATOM     11  C   UNL     1       6.984  -0.026   1.666  1.00  0.00     0.165 A 
ATOM     12  O   UNL     1       6.645  -2.196   1.790  1.00  0.00    -0.454 OA
ATOM     13  O   UNL     1       8.209  -0.684   1.496  1.00  0.00    -0.454 OA
ATOM     14  C   UNL     1       8.022  -1.969   2.051  1.00  0.00     0.468 C 
ENDBRANCH   5   6
ENDBRANCH   1   5
TORSDOF 3
ENDMDL
MODEL 3
REMARK VINA RESULT:       1.7      2.072      5.718
REMARK SMILES CC(=O)CCc1ccc2c(c1)OCO2
REMARK SMILES IDX 4 1 2 2 1 3 3 4 5 5 6 6 7 7 11 8 8 9 10 10 9 11 12 12 14 13
REMARK SMILES IDX 13 14
REMARK H PARENT
REMARK Flexibility Score: inf
ROOT
ATOM      1  C   UNL     1       6.490   2.150   1.532  1.00  0.00     0.080 C 
ENDROOT
BRANCH   1   2
ATOM      2  C   UNL     1       5.159   1.937   0.933  1.00  0.00     0.130 C 
ATOM      3  C   UNL     1       5.124   1.922  -0.585  1.00  0.00     0.087 C 
ATOM      4  O   UNL     1       4.115   1.776   1.499  1.00  0.00    -0.300 OA
ENDBRANCH   1   2
BRANCH   1   5
ATOM      5  C   UNL     1       6.904   1.174   2.561  1.00  0.00     0.043 C 
BRANCH   5   6
ATOM      6  C   UNL     1       7.119  -0.209   2.126  1.00  0.00    -0.044 A 
ATOM      7  C   UNL     1       6.065  -1.106   1.949  1.00  0.00     0.008 A 
ATOM      8  C   UNL     1       8.391  -0.654   1.850  1.00  0.00     0.054 A 
ATOM      9  C   UNL     1       6.337  -2.377   1.513  1.00  0.00     0.051 A 
ATOM     10  C   UNL     1       8.641  -1.961   1.405  1.00  0.00     0.166 A 
ATOM     11  C   UNL     1       7.601  -2.846   1.231  1.00  0.00     0.165 A 
ATOM     12  O   UNL     1       9.787  -2.667   1.059  1.00  0.00    -0.454 OA
ATOM     13  O   UNL     1       8.119  -4.069   0.785  1.00  0.00    -0.454 OA
ATOM     14  C   UNL     1       9.388  -3.761   0.246  1.00  0.00     0.468 C 
ENDBRANCH   5   6
ENDBRANCH   1   5
TORSDOF 3
ENDMDL
MODEL 4
REMARK VINA RESULT:       1.8      0.886      1.004
REMARK SMILES CC(=O)CCc1ccc2c(c1)OCO2
REMARK SMILES IDX 4 1 2 2 1 3 3 4 5 5 6 6 7 7 11 8 8 9 10 10 9 11 12 12 14 13
REMARK SMILES IDX 13 14
REMARK H PARENT
REMARK Flexibility Score: inf
ROOT
ATOM      1  C   UNL     1       9.551  -3.942   0.197  1.00  0.00     0.080 C 
ENDROOT
BRANCH   1   2
ATOM      2  C   UNL     1       9.263  -4.514  -1.131  1.00  0.00     0.130 C 
ATOM      3  C   UNL     1       8.912  -5.992  -1.139  1.00  0.00     0.087 C 
ATOM      4  O   UNL     1       9.274  -3.955  -2.190  1.00  0.00    -0.300 OA
ENDBRANCH   1   2
BRANCH   1   5
ATOM      5  C   UNL     1       8.398  -3.804   1.111  1.00  0.00     0.043 C 
BRANCH   5   6
ATOM      6  C   UNL     1       7.949  -2.444   1.423  1.00  0.00    -0.044 A 
ATOM      7  C   UNL     1       8.831  -1.363   1.475  1.00  0.00     0.008 A 
ATOM      8  C   UNL     1       6.615  -2.194   1.648  1.00  0.00     0.054 A 
ATOM      9  C   UNL     1       8.337  -0.113   1.746  1.00  0.00     0.051 A 
ATOM     10  C   UNL     1       6.137  -0.903   1.923  1.00  0.00     0.166 A 
ATOM     11  C   UNL     1       7.008   0.163   1.976  1.00  0.00     0.165 A 
ATOM     12  O   UNL     1       4.882  -0.367   2.184  1.00  0.00    -0.454 OA
ATOM     13  O   UNL     1       6.280   1.324   2.265  1.00  0.00    -0.454 OA
ATOM     14  C   UNL     1       4.945   1.025   1.913  1.00  0.00     0.468 C 
ENDBRANCH   5   6
ENDBRANCH   1   5
TORSDOF 3
ENDMDL
MODEL 5
REMARK VINA RESULT:       2.0      1.601      2.347
REMARK SMILES CC(=O)CCc1ccc2c(c1)OCO2
REMARK SMILES IDX 4 1 2 2 1 3 3 4 5 5 6 6 7 7 11 8 8 9 10 10 9 11 12 12 14 13
REMARK SMILES IDX 13 14
REMARK H PARENT
REMARK Flexibility Score: inf
ROOT
ATOM      1  C   UNL     1       8.883  -2.860   0.556  1.00  0.00     0.080 C 
ENDROOT
BRANCH   1   2
ATOM      2  C   UNL     1       9.509  -4.192   0.467  1.00  0.00     0.130 C 
ATOM      3  C   UNL     1       9.128  -5.010  -0.754  1.00  0.00     0.087 C 
ATOM      4  O   UNL     1      10.276  -4.697   1.238  1.00  0.00    -0.300 OA
ENDBRANCH   1   2
BRANCH   1   5
ATOM      5  C   UNL     1       8.075  -2.600   1.766  1.00  0.00     0.043 C 
BRANCH   5   6
ATOM      6  C   UNL     1       7.361  -1.322   1.833  1.00  0.00    -0.044 A 
ATOM      7  C   UNL     1       8.009  -0.098   1.652  1.00  0.00     0.008 A 
ATOM      8  C   UNL     1       6.004  -1.301   2.052  1.00  0.00     0.054 A 
ATOM      9  C   UNL     1       7.274   1.058   1.701  1.00  0.00     0.051 A 
ATOM     10  C   UNL     1       5.276  -0.103   2.097  1.00  0.00     0.166 A 
ATOM     11  C   UNL     1       5.915   1.105   1.920  1.00  0.00     0.165 A 
ATOM     12  O   UNL     1       3.938   0.215   2.295  1.00  0.00    -0.454 OA
ATOM     13  O   UNL     1       4.968   2.133   2.010  1.00  0.00    -0.454 OA
ATOM     14  C   UNL     1       3.721   1.515   1.766  1.00  0.00     0.468 C 
ENDBRANCH   5   6
ENDBRANCH   1   5
TORSDOF 3
ENDMDL
