@<TRIPOS>MOLECULE
/home/cewinharhar/GITHUB/reincatalyze/data/processed/docking_pred/2023-May-31-1727_sub9_nm5_bs15_s42_ex16_mel10_mts10000_k50_ec075_g099_lra3e-4_lrc3e-3/9282b18981f6708324b0af4486d36de930a99903_ligand_9.pdbqt
 14 15 0 0 0
SMALL
GASTEIGER

@<TRIPOS>ATOM
      1  C          2.0590    0.1580    3.0360 C.2     1  UNL1        0.0800
      2  C          0.6010    0.3340    2.9100 C.2     1  UNL1        0.1300
      3  C         -0.2420   -0.5830    3.7800 C.3     1  UNL1        0.0870
      4  O          0.0110    1.1070    2.2100 O.2     1  UNL1       -0.3000
      5  C          2.8980    1.1240    2.2950 C.2     1  UNL1        0.0430
      6  C          4.2960    0.7550    2.0600 C.2     1  UNL1       -0.0440
      7  C          5.2970    1.7100    1.8730 C.2     1  UNL1        0.0080
      8  C          4.6660   -0.5700    2.0450 C.2     1  UNL1        0.0540
      9  C          6.5890    1.2940    1.6850 C.2     1  UNL1        0.0510
     10  C          5.9970   -0.9680    1.8510 C.2     1  UNL1        0.1660
     11  C          6.9840   -0.0260    1.6660 C.2     1  UNL1        0.1650
     12  O          6.6450   -2.1960    1.7900 O.2     1  UNL1       -0.4540
     13  O          8.2090   -0.6840    1.4960 O.2     1  UNL1       -0.4540
     14  C          8.0220   -1.9690    2.0510 C.3     1  UNL1        0.4680
@<TRIPOS>BOND
     1    13    11    1
     2    13    14    1
     3    11     9    2
     4    11    10    1
     5     9     7    1
     6    12    10    1
     7    12    14    1
     8    10     8    2
     9     7     6    2
    10     8     6    1
    11     6     5    1
    12     4     2    2
    13     5     1    2
    14     2     1    1
    15     2     3    1
