@<TRIPOS>MOLECULE
/home/cewinharhar/GITHUB/reincatalyze/data/processed/docking_pred/2023-May-31-1727_sub9_nm5_bs15_s42_ex16_mel10_mts10000_k50_ec075_g099_lra3e-4_lrc3e-3/9282b18981f6708324b0af4486d36de930a99903_ligand_9.pdbqt
 14 15 0 0 0
SMALL
GASTEIGER

@<TRIPOS>ATOM
      1  C          8.8830   -2.8600    0.5560 C.2     1  UNL1        0.0800
      2  C          9.5090   -4.1920    0.4670 C.2     1  UNL1        0.1300
      3  C          9.1280   -5.0100   -0.7540 C.3     1  UNL1        0.0870
      4  O         10.2760   -4.6970    1.2380 O.2     1  UNL1       -0.3000
      5  C          8.0750   -2.6000    1.7660 C.2     1  UNL1        0.0430
      6  C          7.3610   -1.3220    1.8330 C.2     1  UNL1       -0.0440
      7  C          8.0090   -0.0980    1.6520 C.2     1  UNL1        0.0080
      8  C          6.0040   -1.3010    2.0520 C.2     1  UNL1        0.0540
      9  C          7.2740    1.0580    1.7010 C.2     1  UNL1        0.0510
     10  C          5.2760   -0.1030    2.0970 C.2     1  UNL1        0.1660
     11  C          5.9150    1.1050    1.9200 C.2     1  UNL1        0.1650
     12  O          3.9380    0.2150    2.2950 O.2     1  UNL1       -0.4540
     13  O          4.9680    2.1330    2.0100 O.2     1  UNL1       -0.4540
     14  C          3.7210    1.5150    1.7660 C.3     1  UNL1        0.4680
@<TRIPOS>BOND
     1     3     2    1
     2     2     1    1
     3     2     4    2
     4     1     5    2
     5     7     9    1
     6     7     6    2
     7     9    11    2
     8     5     6    1
     9    14    13    1
    10    14    12    1
    11     6     8    1
    12    11    13    1
    13    11    10    1
    14     8    10    2
    15    10    12    1
