@<TRIPOS>MOLECULE
/home/cewinharhar/GITHUB/reincatalyze/data/processed/docking_pred/2023-May-31-1727_sub9_nm5_bs15_s42_ex16_mel10_mts10000_k50_ec075_g099_lra3e-4_lrc3e-3/9282b18981f6708324b0af4486d36de930a99903_ligand_9.pdbqt
 14 15 0 0 0
SMALL
GASTEIGER

@<TRIPOS>ATOM
      1  C          8.8520   -4.7600   -0.4230 C.3     1  UNL1        0.0800
      2  C          9.5290   -4.5950   -1.7220 C.2     1  UNL1        0.1300
      3  C         10.3490   -5.7870   -2.1840 C.3     1  UNL1        0.0870
      4  O          9.5060   -3.6410   -2.4470 O.2     1  UNL1       -0.3000
      5  C          9.4560   -4.0460    0.7220 C.3     1  UNL1        0.0430
      6  C          8.8290   -2.7860    1.1320 C.2     1  UNL1       -0.0440
      7  C          9.5480   -1.5930    1.2220 C.2     1  UNL1        0.0080
      8  C          7.4840   -2.7470    1.4160 C.2     1  UNL1        0.0540
      9  C          8.8920   -0.4460    1.5860 C.2     1  UNL1        0.0510
     10  C          6.8370   -1.5580    1.7860 C.2     1  UNL1        0.1660
     11  C          7.5470   -0.3800    1.8760 C.2     1  UNL1        0.1650
     12  O          5.5300   -1.2260    2.1210 O.2     1  UNL1       -0.4540
     13  O          6.6720    0.6440    2.2600 O.2     1  UNL1       -0.4540
     14  C          5.3800    0.1740    1.9340 C.3     1  UNL1        0.4680
@<TRIPOS>BOND
     1     4     2    2
     2     3     2    1
     3     2     1    1
     4     1     5    1
     5     5     6    1
     6     6     7    2
     7     6     8    1
     8     7     9    1
     9     8    10    2
    10     9    11    2
    11    10    11    1
    12    10    12    1
    13    11    13    1
    14    14    12    1
    15    14    13    1
