@<TRIPOS>MOLECULE
/home/cewinharhar/GITHUB/reincatalyze/data/processed/docking_pred/2023-May-31-1727_sub9_nm5_bs15_s42_ex16_mel10_mts10000_k50_ec075_g099_lra3e-4_lrc3e-3/9282b18981f6708324b0af4486d36de930a99903_ligand_9.pdbqt
 14 15 0 0 0
SMALL
GASTEIGER

@<TRIPOS>ATOM
      1  C          9.5510   -3.9420    0.1970 C.3     1  UNL1        0.0800
      2  C          9.2630   -4.5140   -1.1310 C.2     1  UNL1        0.1300
      3  C          8.9120   -5.9920   -1.1390 C.3     1  UNL1        0.0870
      4  O          9.2740   -3.9550   -2.1900 O.2     1  UNL1       -0.3000
      5  C          8.3980   -3.8040    1.1110 C.3     1  UNL1        0.0430
      6  C          7.9490   -2.4440    1.4230 C.2     1  UNL1       -0.0440
      7  C          8.8310   -1.3630    1.4750 C.2     1  UNL1        0.0080
      8  C          6.6150   -2.1940    1.6480 C.2     1  UNL1        0.0540
      9  C          8.3370   -0.1130    1.7460 C.2     1  UNL1        0.0510
     10  C          6.1370   -0.9030    1.9230 C.2     1  UNL1        0.1660
     11  C          7.0080    0.1630    1.9760 C.2     1  UNL1        0.1650
     12  O          4.8820   -0.3670    2.1840 O.2     1  UNL1       -0.4540
     13  O          6.2800    1.3240    2.2650 O.2     1  UNL1       -0.4540
     14  C          4.9450    1.0250    1.9130 C.3     1  UNL1        0.4680
@<TRIPOS>BOND
     1     4     2    2
     2     3     2    1
     3     2     1    1
     4     1     5    1
     5     5     6    1
     6     6     7    2
     7     6     8    1
     8     7     9    1
     9     8    10    2
    10     9    11    2
    11    14    12    1
    12    14    13    1
    13    10    11    1
    14    10    12    1
    15    11    13    1
