@<TRIPOS>MOLECULE
/home/cewinharhar/GITHUB/reincatalyze/data/processed/docking_pred/2023-May-31-1727_sub9_nm5_bs15_s42_ex16_mel10_mts10000_k50_ec075_g099_lra3e-4_lrc3e-3/939bd1e5684a89eea32cbd4f4170b12915347732_ligand_9.pdbqt
 14 15 0 0 0
SMALL
GASTEIGER

@<TRIPOS>ATOM
      1  C          5.9860    1.5760   -0.3470 C.3     1  UNL1        0.0800
      2  C          5.2810    1.4840    0.9450 C.2     1  UNL1        0.1300
      3  C          5.7950    0.4120    1.8910 C.3     1  UNL1        0.0870
      4  O          4.3620    2.1500    1.3300 O.2     1  UNL1       -0.3000
      5  C          7.3930    1.1260   -0.3540 C.3     1  UNL1        0.0430
      6  C          7.6720   -0.1940   -0.9280 C.2     1  UNL1       -0.0440
      7  C          7.7280   -0.4090   -2.3060 C.2     1  UNL1        0.0080
      8  C          7.9170   -1.2660   -0.1010 C.2     1  UNL1        0.0540
      9  C          8.0210   -1.6650   -2.7720 C.2     1  UNL1        0.0510
     10  C          8.2150   -2.5410   -0.6060 C.2     1  UNL1        0.1660
     11  C          8.2700   -2.7530   -1.9660 C.2     1  UNL1        0.1650
     12  O          8.4990   -3.7730   -0.0300 O.2     1  UNL1       -0.4540
     13  O          8.5830   -4.0990   -2.1990 O.2     1  UNL1       -0.4540
     14  C          9.1750   -4.5570   -1.0010 C.3     1  UNL1        0.4680
@<TRIPOS>BOND
     1     9     7    1
     2     9    11    2
     3     7     6    2
     4    13    11    1
     5    13    14    1
     6    11    10    1
     7    14    12    1
     8     6     5    1
     9     6     8    1
    10    10     8    2
    11    10    12    1
    12     5     1    1
    13     1     2    1
    14     2     4    2
    15     2     3    1
