MODEL 1
REMARK VINA RESULT:      -7.6      0.000      0.000
REMARK SMILES CC(=O)CCc1ccc2c(c1)OCO2
REMARK SMILES IDX 4 1 2 2 1 3 3 4 5 5 6 6 7 7 11 8 8 9 10 10 9 11 12 12 14 13
REMARK SMILES IDX 13 14
REMARK H PARENT
REMARK Flexibility Score: inf
ROOT
ATOM      1  C   UNL     1       5.576   1.864   1.250  1.00  0.00     0.080 C 
ENDROOT
BRANCH   1   2
ATOM      2  C   UNL     1       5.013   0.732   2.009  1.00  0.00     0.130 C 
ATOM      3  C   UNL     1       5.919  -0.480   2.136  1.00  0.00     0.087 C 
ATOM      4  O   UNL     1       3.937   0.660   2.531  1.00  0.00    -0.300 OA
ENDBRANCH   1   2
BRANCH   1   5
ATOM      5  C   UNL     1       5.561   1.732  -0.222  1.00  0.00     0.043 C 
BRANCH   5   6
ATOM      6  C   UNL     1       6.660   0.984  -0.839  1.00  0.00    -0.044 A 
ATOM      7  C   UNL     1       7.997   1.343  -0.662  1.00  0.00     0.008 A 
ATOM      8  C   UNL     1       6.393  -0.131  -1.600  1.00  0.00     0.054 A 
ATOM      9  C   UNL     1       8.975   0.582  -1.246  1.00  0.00     0.051 A 
ATOM     10  C   UNL     1       7.414  -0.893  -2.186  1.00  0.00     0.166 A 
ATOM     11  C   UNL     1       8.733  -0.537  -2.012  1.00  0.00     0.165 A 
ATOM     12  O   UNL     1       7.442  -2.032  -2.981  1.00  0.00    -0.454 OA
ATOM     13  O   UNL     1       9.541  -1.455  -2.695  1.00  0.00    -0.454 OA
ATOM     14  C   UNL     1       8.737  -2.604  -2.868  1.00  0.00     0.468 C 
ENDBRANCH   5   6
ENDBRANCH   1   5
TORSDOF 3
ENDMDL
MODEL 2
REMARK VINA RESULT:      -7.0      1.834      2.313
REMARK SMILES CC(=O)CCc1ccc2c(c1)OCO2
REMARK SMILES IDX 4 1 2 2 1 3 3 4 5 5 6 6 7 7 11 8 8 9 10 10 9 11 12 12 14 13
REMARK SMILES IDX 13 14
REMARK H PARENT
REMARK Flexibility Score: inf
ROOT
ATOM      1  C   UNL     1       5.986   1.576  -0.347  1.00  0.00     0.080 C 
ENDROOT
BRANCH   1   2
ATOM      2  C   UNL     1       5.281   1.484   0.945  1.00  0.00     0.130 C 
ATOM      3  C   UNL     1       5.795   0.412   1.891  1.00  0.00     0.087 C 
ATOM      4  O   UNL     1       4.362   2.150   1.330  1.00  0.00    -0.300 OA
ENDBRANCH   1   2
BRANCH   1   5
ATOM      5  C   UNL     1       7.393   1.126  -0.354  1.00  0.00     0.043 C 
BRANCH   5   6
ATOM      6  C   UNL     1       7.672  -0.194  -0.928  1.00  0.00    -0.044 A 
ATOM      7  C   UNL     1       7.728  -0.409  -2.306  1.00  0.00     0.008 A 
ATOM      8  C   UNL     1       7.917  -1.266  -0.101  1.00  0.00     0.054 A 
ATOM      9  C   UNL     1       8.021  -1.665  -2.772  1.00  0.00     0.051 A 
ATOM     10  C   UNL     1       8.215  -2.541  -0.606  1.00  0.00     0.166 A 
ATOM     11  C   UNL     1       8.270  -2.753  -1.966  1.00  0.00     0.165 A 
ATOM     12  O   UNL     1       8.499  -3.773  -0.030  1.00  0.00    -0.454 OA
ATOM     13  O   UNL     1       8.583  -4.099  -2.199  1.00  0.00    -0.454 OA
ATOM     14  C   UNL     1       9.175  -4.557  -1.001  1.00  0.00     0.468 C 
ENDBRANCH   5   6
ENDBRANCH   1   5
TORSDOF 3
ENDMDL
MODEL 3
REMARK VINA RESULT:      -6.9      1.082      1.157
REMARK SMILES CC(=O)CCc1ccc2c(c1)OCO2
REMARK SMILES IDX 4 1 2 2 1 3 3 4 5 5 6 6 7 7 11 8 8 9 10 10 9 11 12 12 14 13
REMARK SMILES IDX 13 14
REMARK H PARENT
REMARK Flexibility Score: inf
ROOT
ATOM      1  C   UNL     1       6.187   1.315   0.822  1.00  0.00     0.080 C 
ENDROOT
BRANCH   1   2
ATOM      2  C   UNL     1       5.572   0.497   1.883  1.00  0.00     0.130 C 
ATOM      3  C   UNL     1       6.401  -0.685   2.355  1.00  0.00     0.087 C 
ATOM      4  O   UNL     1       4.507   0.654   2.408  1.00  0.00    -0.300 OA
ENDBRANCH   1   2
BRANCH   1   5
ATOM      5  C   UNL     1       5.846   0.945  -0.567  1.00  0.00     0.043 C 
BRANCH   5   6
ATOM      6  C   UNL     1       6.835   0.166  -1.316  1.00  0.00    -0.044 A 
ATOM      7  C   UNL     1       7.807   0.770  -2.116  1.00  0.00     0.008 A 
ATOM      8  C   UNL     1       6.845  -1.206  -1.223  1.00  0.00     0.054 A 
ATOM      9  C   UNL     1       8.719  -0.020  -2.767  1.00  0.00     0.051 A 
ATOM     10  C   UNL     1       7.791  -1.991  -1.900  1.00  0.00     0.166 A 
ATOM     11  C   UNL     1       8.750  -1.395  -2.690  1.00  0.00     0.165 A 
ATOM     12  O   UNL     1       8.036  -3.356  -1.991  1.00  0.00    -0.454 OA
ATOM     13  O   UNL     1       9.559  -2.394  -3.246  1.00  0.00    -0.454 OA
ATOM     14  C   UNL     1       9.380  -3.524  -2.417  1.00  0.00     0.468 C 
ENDBRANCH   5   6
ENDBRANCH   1   5
TORSDOF 3
ENDMDL
MODEL 4
REMARK VINA RESULT:      -6.8      1.851      2.384
REMARK SMILES CC(=O)CCc1ccc2c(c1)OCO2
REMARK SMILES IDX 4 1 2 2 1 3 3 4 5 5 6 6 7 7 11 8 8 9 10 10 9 11 12 12 14 13
REMARK SMILES IDX 13 14
REMARK H PARENT
REMARK Flexibility Score: inf
ROOT
ATOM      1  C   UNL     1       6.710   0.948   1.441  1.00  0.00     0.080 C 
ENDROOT
BRANCH   1   2
ATOM      2  C   UNL     1       5.259   1.206   1.478  1.00  0.00     0.130 C 
ATOM      3  C   UNL     1       4.738   2.147   0.405  1.00  0.00     0.087 C 
ATOM      4  O   UNL     1       4.453   0.765   2.248  1.00  0.00    -0.300 OA
ENDBRANCH   1   2
BRANCH   1   5
ATOM      5  C   UNL     1       7.351   1.024   0.111  1.00  0.00     0.043 C 
BRANCH   5   6
ATOM      6  C   UNL     1       7.604  -0.241  -0.584  1.00  0.00    -0.044 A 
ATOM      7  C   UNL     1       7.554  -0.348  -1.975  1.00  0.00     0.008 A 
ATOM      8  C   UNL     1       7.930  -1.368   0.133  1.00  0.00     0.054 A 
ATOM      9  C   UNL     1       7.829  -1.556  -2.561  1.00  0.00     0.051 A 
ATOM     10  C   UNL     1       8.207  -2.593  -0.493  1.00  0.00     0.166 A 
ATOM     11  C   UNL     1       8.158  -2.699  -1.865  1.00  0.00     0.165 A 
ATOM     12  O   UNL     1       8.554  -3.860  -0.038  1.00  0.00    -0.454 OA
ATOM     13  O   UNL     1       8.472  -4.015  -2.227  1.00  0.00    -0.454 OA
ATOM     14  C   UNL     1       9.164  -4.552  -1.118  1.00  0.00     0.468 C 
ENDBRANCH   5   6
ENDBRANCH   1   5
TORSDOF 3
ENDMDL
MODEL 5
REMARK VINA RESULT:      -6.7      1.171      1.655
REMARK SMILES CC(=O)CCc1ccc2c(c1)OCO2
REMARK SMILES IDX 4 1 2 2 1 3 3 4 5 5 6 6 7 7 11 8 8 9 10 10 9 11 12 12 14 13
REMARK SMILES IDX 13 14
REMARK H PARENT
REMARK Flexibility Score: inf
ROOT
ATOM      1  C   UNL     1       5.375  -0.100   1.946  1.00  0.00     0.080 C 
ENDROOT
BRANCH   1   2
ATOM      2  C   UNL     1       4.445   1.039   1.846  1.00  0.00     0.130 C 
ATOM      3  C   UNL     1       4.790   2.070   0.785  1.00  0.00     0.087 C 
ATOM      4  O   UNL     1       3.459   1.242   2.497  1.00  0.00    -0.300 OA
ENDBRANCH   1   2
BRANCH   1   5
ATOM      5  C   UNL     1       6.802   0.202   1.704  1.00  0.00     0.043 C 
BRANCH   5   6
ATOM      6  C   UNL     1       7.342  -0.127   0.382  1.00  0.00    -0.044 A 
ATOM      7  C   UNL     1       7.765   0.856  -0.514  1.00  0.00     0.008 A 
ATOM      8  C   UNL     1       7.473  -1.441  -0.001  1.00  0.00     0.054 A 
ATOM      9  C   UNL     1       8.286   0.476  -1.723  1.00  0.00     0.051 A 
ATOM     10  C   UNL     1       8.010  -1.803  -1.246  1.00  0.00     0.166 A 
ATOM     11  C   UNL     1       8.427  -0.833  -2.130  1.00  0.00     0.165 A 
ATOM     12  O   UNL     1       8.255  -3.013  -1.884  1.00  0.00    -0.454 OA
ATOM     13  O   UNL     1       8.916  -1.457  -3.285  1.00  0.00    -0.454 OA
ATOM     14  C   UNL     1       9.227  -2.777  -2.892  1.00  0.00     0.468 C 
ENDBRANCH   5   6
ENDBRANCH   1   5
TORSDOF 3
ENDMDL
