@<TRIPOS>MOLECULE
/home/cewinharhar/GITHUB/reincatalyze/data/processed/docking_pred/2023-May-31-1727_sub9_nm5_bs15_s42_ex16_mel10_mts10000_k50_ec075_g099_lra3e-4_lrc3e-3/939bd1e5684a89eea32cbd4f4170b12915347732_ligand_9.pdbqt
 14 15 0 0 0
SMALL
GASTEIGER

@<TRIPOS>ATOM
      1  C          5.3750   -0.1000    1.9460 C.3     1  UNL1        0.0800
      2  C          4.4450    1.0390    1.8460 C.2     1  UNL1        0.1300
      3  C          4.7900    2.0700    0.7850 C.3     1  UNL1        0.0870
      4  O          3.4590    1.2420    2.4970 O.2     1  UNL1       -0.3000
      5  C          6.8020    0.2020    1.7040 C.3     1  UNL1        0.0430
      6  C          7.3420   -0.1270    0.3820 C.2     1  UNL1       -0.0440
      7  C          7.7650    0.8560   -0.5140 C.2     1  UNL1        0.0080
      8  C          7.4730   -1.4410   -0.0010 C.2     1  UNL1        0.0540
      9  C          8.2860    0.4760   -1.7230 C.2     1  UNL1        0.0510
     10  C          8.0100   -1.8030   -1.2460 C.2     1  UNL1        0.1660
     11  C          8.4270   -0.8330   -2.1300 C.2     1  UNL1        0.1650
     12  O          8.2550   -3.0130   -1.8840 O.2     1  UNL1       -0.4540
     13  O          8.9160   -1.4570   -3.2850 O.2     1  UNL1       -0.4540
     14  C          9.2270   -2.7770   -2.8920 C.3     1  UNL1        0.4680
@<TRIPOS>BOND
     1    13    14    1
     2    13    11    1
     3    14    12    1
     4    11     9    2
     5    11    10    1
     6    12    10    1
     7     9     7    1
     8    10     8    2
     9     7     6    2
    10     8     6    1
    11     6     5    1
    12     3     2    1
    13     5     1    1
    14     2     1    1
    15     2     4    2
