@<TRIPOS>MOLECULE
/home/cewinharhar/GITHUB/reincatalyze/data/processed/docking_pred/2023-May-31-1727_sub9_nm5_bs15_s42_ex16_mel10_mts10000_k50_ec075_g099_lra3e-4_lrc3e-3/939bd1e5684a89eea32cbd4f4170b12915347732_ligand_9.pdbqt
 14 15 0 0 0
SMALL
GASTEIGER

@<TRIPOS>ATOM
      1  C          6.7100    0.9480    1.4410 C.3     1  UNL1        0.0800
      2  C          5.2590    1.2060    1.4780 C.2     1  UNL1        0.1300
      3  C          4.7380    2.1470    0.4050 C.3     1  UNL1        0.0870
      4  O          4.4530    0.7650    2.2480 O.2     1  UNL1       -0.3000
      5  C          7.3510    1.0240    0.1110 C.3     1  UNL1        0.0430
      6  C          7.6040   -0.2410   -0.5840 C.2     1  UNL1       -0.0440
      7  C          7.5540   -0.3480   -1.9750 C.2     1  UNL1        0.0080
      8  C          7.9300   -1.3680    0.1330 C.2     1  UNL1        0.0540
      9  C          7.8290   -1.5560   -2.5610 C.2     1  UNL1        0.0510
     10  C          8.2070   -2.5930   -0.4930 C.2     1  UNL1        0.1660
     11  C          8.1580   -2.6990   -1.8650 C.2     1  UNL1        0.1650
     12  O          8.5540   -3.8600   -0.0380 O.2     1  UNL1       -0.4540
     13  O          8.4720   -4.0150   -2.2270 O.2     1  UNL1       -0.4540
     14  C          9.1640   -4.5520   -1.1180 C.3     1  UNL1        0.4680
@<TRIPOS>BOND
     1     9     7    1
     2     9    11    2
     3    13    11    1
     4    13    14    1
     5     7     6    2
     6    11    10    1
     7    14    12    1
     8     6     5    1
     9     6     8    1
    10    10    12    1
    11    10     8    2
    12     5     1    1
    13     3     2    1
    14     1     2    1
    15     2     4    2
