@<TRIPOS>MOLECULE
/home/cewinharhar/GITHUB/reincatalyze/data/processed/docking_pred/2023-May-31-1727_sub9_nm5_bs15_s42_ex16_mel10_mts10000_k50_ec075_g099_lra3e-4_lrc3e-3/939bd1e5684a89eea32cbd4f4170b12915347732_ligand_9.pdbqt
 14 15 0 0 0
SMALL
GASTEIGER

@<TRIPOS>ATOM
      1  C          6.1870    1.3150    0.8220 C.3     1  UNL1        0.0800
      2  C          5.5720    0.4970    1.8830 C.2     1  UNL1        0.1300
      3  C          6.4010   -0.6850    2.3550 C.3     1  UNL1        0.0870
      4  O          4.5070    0.6540    2.4080 O.2     1  UNL1       -0.3000
      5  C          5.8460    0.9450   -0.5670 C.3     1  UNL1        0.0430
      6  C          6.8350    0.1660   -1.3160 C.2     1  UNL1       -0.0440
      7  C          7.8070    0.7700   -2.1160 C.2     1  UNL1        0.0080
      8  C          6.8450   -1.2060   -1.2230 C.2     1  UNL1        0.0540
      9  C          8.7190   -0.0200   -2.7670 C.2     1  UNL1        0.0510
     10  C          7.7910   -1.9910   -1.9000 C.2     1  UNL1        0.1660
     11  C          8.7500   -1.3950   -2.6900 C.2     1  UNL1        0.1650
     12  O          8.0360   -3.3560   -1.9910 O.2     1  UNL1       -0.4540
     13  O          9.5590   -2.3940   -3.2460 O.2     1  UNL1       -0.4540
     14  C          9.3800   -3.5240   -2.4170 C.3     1  UNL1        0.4680
@<TRIPOS>BOND
     1    13    11    1
     2    13    14    1
     3     9    11    2
     4     9     7    1
     5    11    10    1
     6    14    12    1
     7     7     6    2
     8    12    10    1
     9    10     8    2
    10     6     8    1
    11     6     5    1
    12     5     1    1
    13     1     2    1
    14     2     3    1
    15     2     4    2
