@<TRIPOS>MOLECULE
/home/cewinharhar/GITHUB/reincatalyze/data/processed/docking_pred/2023-May-31-1727_sub9_nm5_bs15_s42_ex16_mel10_mts10000_k50_ec075_g099_lra3e-4_lrc3e-3/93b19c8378935853b44d27bbf459025f9fc44a5e_ligand_9.pdbqt
 14 15 0 0 0
SMALL
GASTEIGER

@<TRIPOS>ATOM
      1  C          5.6220    0.0100    2.0040 C.3     1  UNL1        0.0800
      2  C          4.6620    1.1010    1.7580 C.2     1  UNL1        0.1300
      3  C          5.0170    2.0330    0.6130 C.3     1  UNL1        0.0870
      4  O          3.6460    1.3340    2.3490 O.2     1  UNL1       -0.3000
      5  C          6.9610    0.1720    1.4000 C.3     1  UNL1        0.0430
      6  C          7.3560   -0.7980    0.3740 C.2     1  UNL1       -0.0440
      7  C          7.2780   -0.5110   -0.9890 C.2     1  UNL1        0.0080
      8  C          7.8480   -2.0280    0.7430 C.2     1  UNL1        0.0540
      9  C          7.6900   -1.4560   -1.8930 C.2     1  UNL1        0.0510
     10  C          8.2630   -2.9770   -0.2040 C.2     1  UNL1        0.1660
     11  C          8.1860   -2.6940   -1.5500 C.2     1  UNL1        0.1650
     12  O          8.7860   -4.2620   -0.1270 O.2     1  UNL1       -0.4540
     13  O          8.6580   -3.7990   -2.2700 O.2     1  UNL1       -0.4540
     14  C          9.4470   -4.5310   -1.3550 C.3     1  UNL1        0.4680
@<TRIPOS>BOND
     1    13    11    1
     2    13    14    1
     3     9    11    2
     4     9     7    1
     5    11    10    1
     6    14    12    1
     7     7     6    2
     8    10    12    1
     9    10     8    2
    10     6     8    1
    11     6     5    1
    12     3     2    1
    13     5     1    1
    14     2     1    1
    15     2     4    2
