@<TRIPOS>MOLECULE
/home/cewinharhar/GITHUB/reincatalyze/data/processed/docking_pred/2023-May-31-1727_sub9_nm5_bs15_s42_ex16_mel10_mts10000_k50_ec075_g099_lra3e-4_lrc3e-3/93b19c8378935853b44d27bbf459025f9fc44a5e_ligand_9.pdbqt
 14 15 0 0 0
SMALL
GASTEIGER

@<TRIPOS>ATOM
      1  C          5.7050    1.8690    1.2790 C.3     1  UNL1        0.0800
      2  C          5.1290    0.7350    2.0230 C.2     1  UNL1        0.1300
      3  C          6.0610   -0.4460    2.2340 C.3     1  UNL1        0.0870
      4  O          4.0230    0.6380    2.4760 O.2     1  UNL1       -0.3000
      5  C          5.6760    1.7630   -0.1950 C.3     1  UNL1        0.0430
      6  C          6.7470    0.9910   -0.8320 C.2     1  UNL1       -0.0440
      7  C          8.0890    1.3620   -0.7380 C.2     1  UNL1        0.0080
      8  C          6.4470   -0.1560   -1.5290 C.2     1  UNL1        0.0540
      9  C          9.0410    0.5780   -1.3370 C.2     1  UNL1        0.0510
     10  C          7.4420   -0.9410   -2.1320 C.2     1  UNL1        0.1660
     11  C          8.7660   -0.5740   -2.0400 C.2     1  UNL1        0.1650
     12  O          7.4350   -2.1140   -2.8760 O.2     1  UNL1       -0.4540
     13  O          9.5430   -1.5190   -2.7220 O.2     1  UNL1       -0.4540
     14  C          8.7370   -2.6760   -2.8030 C.3     1  UNL1        0.4680
@<TRIPOS>BOND
     1    12    14    1
     2    12    10    1
     3    14    13    1
     4    13    11    1
     5    10    11    2
     6    10     8    1
     7    11     9    1
     8     8     6    2
     9     9     7    2
    10     6     7    1
    11     6     5    1
    12     5     1    1
    13     1     2    1
    14     2     3    1
    15     2     4    2
