MODEL 1
REMARK VINA RESULT:      -7.5      0.000      0.000
REMARK SMILES CC(=O)CCc1ccc2c(c1)OCO2
REMARK SMILES IDX 4 1 2 2 1 3 3 4 5 5 6 6 7 7 11 8 8 9 10 10 9 11 12 12 14 13
REMARK SMILES IDX 13 14
REMARK H PARENT
REMARK Flexibility Score: inf
ROOT
ATOM      1  C   UNL     1       5.705   1.869   1.279  1.00  0.00     0.080 C 
ENDROOT
BRANCH   1   2
ATOM      2  C   UNL     1       5.129   0.735   2.023  1.00  0.00     0.130 C 
ATOM      3  C   UNL     1       6.061  -0.446   2.234  1.00  0.00     0.087 C 
ATOM      4  O   UNL     1       4.023   0.638   2.476  1.00  0.00    -0.300 OA
ENDBRANCH   1   2
BRANCH   1   5
ATOM      5  C   UNL     1       5.676   1.763  -0.195  1.00  0.00     0.043 C 
BRANCH   5   6
ATOM      6  C   UNL     1       6.747   0.991  -0.832  1.00  0.00    -0.044 A 
ATOM      7  C   UNL     1       8.089   1.362  -0.738  1.00  0.00     0.008 A 
ATOM      8  C   UNL     1       6.447  -0.156  -1.529  1.00  0.00     0.054 A 
ATOM      9  C   UNL     1       9.041   0.578  -1.337  1.00  0.00     0.051 A 
ATOM     10  C   UNL     1       7.442  -0.941  -2.132  1.00  0.00     0.166 A 
ATOM     11  C   UNL     1       8.766  -0.574  -2.040  1.00  0.00     0.165 A 
ATOM     12  O   UNL     1       7.435  -2.114  -2.876  1.00  0.00    -0.454 OA
ATOM     13  O   UNL     1       9.543  -1.519  -2.722  1.00  0.00    -0.454 OA
ATOM     14  C   UNL     1       8.737  -2.676  -2.803  1.00  0.00     0.468 C 
ENDBRANCH   5   6
ENDBRANCH   1   5
TORSDOF 3
ENDMDL
MODEL 2
REMARK VINA RESULT:      -7.0      1.754      2.186
REMARK SMILES CC(=O)CCc1ccc2c(c1)OCO2
REMARK SMILES IDX 4 1 2 2 1 3 3 4 5 5 6 6 7 7 11 8 8 9 10 10 9 11 12 12 14 13
REMARK SMILES IDX 13 14
REMARK H PARENT
REMARK Flexibility Score: inf
ROOT
ATOM      1  C   UNL     1       5.764   1.472  -0.225  1.00  0.00     0.080 C 
ENDROOT
BRANCH   1   2
ATOM      2  C   UNL     1       5.052   1.357   1.061  1.00  0.00     0.130 C 
ATOM      3  C   UNL     1       5.500   0.212   1.952  1.00  0.00     0.087 C 
ATOM      4  O   UNL     1       4.171   2.054   1.479  1.00  0.00    -0.300 OA
ENDBRANCH   1   2
BRANCH   1   5
ATOM      5  C   UNL     1       7.191   1.087  -0.216  1.00  0.00     0.043 C 
BRANCH   5   6
ATOM      6  C   UNL     1       7.542  -0.197  -0.828  1.00  0.00    -0.044 A 
ATOM      7  C   UNL     1       7.633  -0.362  -2.211  1.00  0.00     0.008 A 
ATOM      8  C   UNL     1       7.823  -1.285  -0.034  1.00  0.00     0.054 A 
ATOM      9  C   UNL     1       7.993  -1.585  -2.714  1.00  0.00     0.051 A 
ATOM     10  C   UNL     1       8.190  -2.526  -0.576  1.00  0.00     0.166 A 
ATOM     11  C   UNL     1       8.279  -2.689  -1.941  1.00  0.00     0.165 A 
ATOM     12  O   UNL     1       8.521  -3.763  -0.036  1.00  0.00    -0.454 OA
ATOM     13  O   UNL     1       8.659  -4.009  -2.213  1.00  0.00    -0.454 OA
ATOM     14  C   UNL     1       9.250  -4.480  -1.020  1.00  0.00     0.468 C 
ENDBRANCH   5   6
ENDBRANCH   1   5
TORSDOF 3
ENDMDL
MODEL 3
REMARK VINA RESULT:      -6.9      0.966      1.025
REMARK SMILES CC(=O)CCc1ccc2c(c1)OCO2
REMARK SMILES IDX 4 1 2 2 1 3 3 4 5 5 6 6 7 7 11 8 8 9 10 10 9 11 12 12 14 13
REMARK SMILES IDX 13 14
REMARK H PARENT
REMARK Flexibility Score: inf
ROOT
ATOM      1  C   UNL     1       6.149   1.216   0.892  1.00  0.00     0.080 C 
ENDROOT
BRANCH   1   2
ATOM      2  C   UNL     1       5.499   0.362   1.903  1.00  0.00     0.130 C 
ATOM      3  C   UNL     1       6.304  -0.849   2.345  1.00  0.00     0.087 C 
ATOM      4  O   UNL     1       4.424   0.510   2.410  1.00  0.00    -0.300 OA
ENDBRANCH   1   2
BRANCH   1   5
ATOM      5  C   UNL     1       5.854   0.893  -0.520  1.00  0.00     0.043 C 
BRANCH   5   6
ATOM      6  C   UNL     1       6.874   0.148  -1.264  1.00  0.00    -0.044 A 
ATOM      7  C   UNL     1       7.936   0.783  -1.910  1.00  0.00     0.008 A 
ATOM      8  C   UNL     1       6.820  -1.225  -1.318  1.00  0.00     0.054 A 
ATOM      9  C   UNL     1       8.869   0.022  -2.565  1.00  0.00     0.051 A 
ATOM     10  C   UNL     1       7.790  -1.980  -1.996  1.00  0.00     0.166 A 
ATOM     11  C   UNL     1       8.837  -1.353  -2.634  1.00  0.00     0.165 A 
ATOM     12  O   UNL     1       7.987  -3.339  -2.212  1.00  0.00    -0.454 OA
ATOM     13  O   UNL     1       9.652  -2.328  -3.226  1.00  0.00    -0.454 OA
ATOM     14  C   UNL     1       9.355  -3.527  -2.542  1.00  0.00     0.468 C 
ENDBRANCH   5   6
ENDBRANCH   1   5
TORSDOF 3
ENDMDL
MODEL 4
REMARK VINA RESULT:      -6.7      1.156      1.642
REMARK SMILES CC(=O)CCc1ccc2c(c1)OCO2
REMARK SMILES IDX 4 1 2 2 1 3 3 4 5 5 6 6 7 7 11 8 8 9 10 10 9 11 12 12 14 13
REMARK SMILES IDX 13 14
REMARK H PARENT
REMARK Flexibility Score: inf
ROOT
ATOM      1  C   UNL     1       5.366  -0.108   1.941  1.00  0.00     0.080 C 
ENDROOT
BRANCH   1   2
ATOM      2  C   UNL     1       4.438   1.035   1.870  1.00  0.00     0.130 C 
ATOM      3  C   UNL     1       4.784   2.088   0.831  1.00  0.00     0.087 C 
ATOM      4  O   UNL     1       3.455   1.227   2.528  1.00  0.00    -0.300 OA
ENDBRANCH   1   2
BRANCH   1   5
ATOM      5  C   UNL     1       6.792   0.194   1.698  1.00  0.00     0.043 C 
BRANCH   5   6
ATOM      6  C   UNL     1       7.326  -0.119   0.369  1.00  0.00    -0.044 A 
ATOM      7  C   UNL     1       7.708   0.877  -0.532  1.00  0.00     0.008 A 
ATOM      8  C   UNL     1       7.490  -1.429  -0.017  1.00  0.00     0.054 A 
ATOM      9  C   UNL     1       8.225   0.512  -1.748  1.00  0.00     0.051 A 
ATOM     10  C   UNL     1       8.022  -1.774  -1.268  1.00  0.00     0.166 A 
ATOM     11  C   UNL     1       8.400  -0.792  -2.157  1.00  0.00     0.165 A 
ATOM     12  O   UNL     1       8.296  -2.976  -1.910  1.00  0.00    -0.454 OA
ATOM     13  O   UNL     1       8.894  -1.401  -3.318  1.00  0.00    -0.454 OA
ATOM     14  C   UNL     1       9.248  -2.712  -2.930  1.00  0.00     0.468 C 
ENDBRANCH   5   6
ENDBRANCH   1   5
TORSDOF 3
ENDMDL
MODEL 5
REMARK VINA RESULT:      -6.7      1.933      2.502
REMARK SMILES CC(=O)CCc1ccc2c(c1)OCO2
REMARK SMILES IDX 4 1 2 2 1 3 3 4 5 5 6 6 7 7 11 8 8 9 10 10 9 11 12 12 14 13
REMARK SMILES IDX 13 14
REMARK H PARENT
REMARK Flexibility Score: inf
ROOT
ATOM      1  C   UNL     1       5.622   0.010   2.004  1.00  0.00     0.080 C 
ENDROOT
BRANCH   1   2
ATOM      2  C   UNL     1       4.662   1.101   1.758  1.00  0.00     0.130 C 
ATOM      3  C   UNL     1       5.017   2.033   0.613  1.00  0.00     0.087 C 
ATOM      4  O   UNL     1       3.646   1.334   2.349  1.00  0.00    -0.300 OA
ENDBRANCH   1   2
BRANCH   1   5
ATOM      5  C   UNL     1       6.961   0.172   1.400  1.00  0.00     0.043 C 
BRANCH   5   6
ATOM      6  C   UNL     1       7.356  -0.798   0.374  1.00  0.00    -0.044 A 
ATOM      7  C   UNL     1       7.278  -0.511  -0.989  1.00  0.00     0.008 A 
ATOM      8  C   UNL     1       7.848  -2.028   0.743  1.00  0.00     0.054 A 
ATOM      9  C   UNL     1       7.690  -1.456  -1.893  1.00  0.00     0.051 A 
ATOM     10  C   UNL     1       8.263  -2.977  -0.204  1.00  0.00     0.166 A 
ATOM     11  C   UNL     1       8.186  -2.694  -1.550  1.00  0.00     0.165 A 
ATOM     12  O   UNL     1       8.786  -4.262  -0.127  1.00  0.00    -0.454 OA
ATOM     13  O   UNL     1       8.658  -3.799  -2.270  1.00  0.00    -0.454 OA
ATOM     14  C   UNL     1       9.447  -4.531  -1.355  1.00  0.00     0.468 C 
ENDBRANCH   5   6
ENDBRANCH   1   5
TORSDOF 3
ENDMDL
