@<TRIPOS>MOLECULE
/home/cewinharhar/GITHUB/reincatalyze/data/processed/docking_pred/2023-May-31-1727_sub9_nm5_bs15_s42_ex16_mel10_mts10000_k50_ec075_g099_lra3e-4_lrc3e-3/93b19c8378935853b44d27bbf459025f9fc44a5e_ligand_9.pdbqt
 14 15 0 0 0
SMALL
GASTEIGER

@<TRIPOS>ATOM
      1  C          6.1490    1.2160    0.8920 C.3     1  UNL1        0.0800
      2  C          5.4990    0.3620    1.9030 C.2     1  UNL1        0.1300
      3  C          6.3040   -0.8490    2.3450 C.3     1  UNL1        0.0870
      4  O          4.4240    0.5100    2.4100 O.2     1  UNL1       -0.3000
      5  C          5.8540    0.8930   -0.5200 C.3     1  UNL1        0.0430
      6  C          6.8740    0.1480   -1.2640 C.2     1  UNL1       -0.0440
      7  C          7.9360    0.7830   -1.9100 C.2     1  UNL1        0.0080
      8  C          6.8200   -1.2250   -1.3180 C.2     1  UNL1        0.0540
      9  C          8.8690    0.0220   -2.5650 C.2     1  UNL1        0.0510
     10  C          7.7900   -1.9800   -1.9960 C.2     1  UNL1        0.1660
     11  C          8.8370   -1.3530   -2.6340 C.2     1  UNL1        0.1650
     12  O          7.9870   -3.3390   -2.2120 O.2     1  UNL1       -0.4540
     13  O          9.6520   -2.3280   -3.2260 O.2     1  UNL1       -0.4540
     14  C          9.3550   -3.5270   -2.5420 C.3     1  UNL1        0.4680
@<TRIPOS>BOND
     1    13    11    1
     2    13    14    1
     3    11     9    2
     4    11    10    1
     5     9     7    1
     6    14    12    1
     7    12    10    1
     8    10     8    2
     9     7     6    2
    10     8     6    1
    11     6     5    1
    12     5     1    1
    13     1     2    1
    14     2     3    1
    15     2     4    2
