@<TRIPOS>MOLECULE
/home/cewinharhar/GITHUB/reincatalyze/data/processed/docking_pred/2023-May-31-1727_sub9_nm5_bs15_s42_ex16_mel10_mts10000_k50_ec075_g099_lra3e-4_lrc3e-3/93b19c8378935853b44d27bbf459025f9fc44a5e_ligand_9.pdbqt
 14 15 0 0 0
SMALL
GASTEIGER

@<TRIPOS>ATOM
      1  C          5.3660   -0.1080    1.9410 C.3     1  UNL1        0.0800
      2  C          4.4380    1.0350    1.8700 C.2     1  UNL1        0.1300
      3  C          4.7840    2.0880    0.8310 C.3     1  UNL1        0.0870
      4  O          3.4550    1.2270    2.5280 O.2     1  UNL1       -0.3000
      5  C          6.7920    0.1940    1.6980 C.3     1  UNL1        0.0430
      6  C          7.3260   -0.1190    0.3690 C.2     1  UNL1       -0.0440
      7  C          7.7080    0.8770   -0.5320 C.2     1  UNL1        0.0080
      8  C          7.4900   -1.4290   -0.0170 C.2     1  UNL1        0.0540
      9  C          8.2250    0.5120   -1.7480 C.2     1  UNL1        0.0510
     10  C          8.0220   -1.7740   -1.2680 C.2     1  UNL1        0.1660
     11  C          8.4000   -0.7920   -2.1570 C.2     1  UNL1        0.1650
     12  O          8.2960   -2.9760   -1.9100 O.2     1  UNL1       -0.4540
     13  O          8.8940   -1.4010   -3.3180 O.2     1  UNL1       -0.4540
     14  C          9.2480   -2.7120   -2.9300 C.3     1  UNL1        0.4680
@<TRIPOS>BOND
     1    13    14    1
     2    13    11    1
     3    14    12    1
     4    11     9    2
     5    11    10    1
     6    12    10    1
     7     9     7    1
     8    10     8    2
     9     7     6    2
    10     8     6    1
    11     6     5    1
    12     3     2    1
    13     5     1    1
    14     2     1    1
    15     2     4    2
