@<TRIPOS>MOLECULE
/home/cewinharhar/GITHUB/reincatalyze/data/processed/docking_pred/2023-May-31-1727_sub9_nm5_bs15_s42_ex16_mel10_mts10000_k50_ec075_g099_lra3e-4_lrc3e-3/93b19c8378935853b44d27bbf459025f9fc44a5e_ligand_9.pdbqt
 14 15 0 0 0
SMALL
GASTEIGER

@<TRIPOS>ATOM
      1  C          5.7640    1.4720   -0.2250 C.3     1  UNL1        0.0800
      2  C          5.0520    1.3570    1.0610 C.2     1  UNL1        0.1300
      3  C          5.5000    0.2120    1.9520 C.3     1  UNL1        0.0870
      4  O          4.1710    2.0540    1.4790 O.2     1  UNL1       -0.3000
      5  C          7.1910    1.0870   -0.2160 C.3     1  UNL1        0.0430
      6  C          7.5420   -0.1970   -0.8280 C.2     1  UNL1       -0.0440
      7  C          7.6330   -0.3620   -2.2110 C.2     1  UNL1        0.0080
      8  C          7.8230   -1.2850   -0.0340 C.2     1  UNL1        0.0540
      9  C          7.9930   -1.5850   -2.7140 C.2     1  UNL1        0.0510
     10  C          8.1900   -2.5260   -0.5760 C.2     1  UNL1        0.1660
     11  C          8.2790   -2.6890   -1.9410 C.2     1  UNL1        0.1650
     12  O          8.5210   -3.7630   -0.0360 O.2     1  UNL1       -0.4540
     13  O          8.6590   -4.0090   -2.2130 O.2     1  UNL1       -0.4540
     14  C          9.2500   -4.4800   -1.0200 C.3     1  UNL1        0.4680
@<TRIPOS>BOND
     1     9     7    1
     2     9    11    2
     3    13    11    1
     4    13    14    1
     5     7     6    2
     6    11    10    1
     7    14    12    1
     8     6     5    1
     9     6     8    1
    10    10    12    1
    11    10     8    2
    12     1     5    1
    13     1     2    1
    14     2     4    2
    15     2     3    1
