@<TRIPOS>MOLECULE
/home/cewinharhar/GITHUB/reincatalyze/data/processed/docking_pred/2023-May-31-1727_sub9_nm5_bs15_s42_ex16_mel10_mts10000_k50_ec075_g099_lra3e-4_lrc3e-3/93c3770ef064b633c902e85f3368d9330fbaaeb8_ligand_9.pdbqt
 14 15 0 0 0
SMALL
GASTEIGER

@<TRIPOS>ATOM
      1  C          5.3730   -0.0810    1.9450 C.3     1  UNL1        0.0800
      2  C          4.4330    1.0510    1.8490 C.2     1  UNL1        0.1300
      3  C          4.7680    2.0870    0.7900 C.3     1  UNL1        0.0870
      4  O          3.4470    1.2460    2.5020 O.2     1  UNL1       -0.3000
      5  C          6.7960    0.2320    1.6970 C.3     1  UNL1        0.0430
      6  C          7.3350   -0.1020    0.3750 C.2     1  UNL1       -0.0440
      7  C          7.7540    0.8770   -0.5270 C.2     1  UNL1        0.0080
      8  C          7.4690   -1.4190   -0.0010 C.2     1  UNL1        0.0540
      9  C          8.2730    0.4920   -1.7350 C.2     1  UNL1        0.0510
     10  C          8.0050   -1.7850   -1.2450 C.2     1  UNL1        0.1660
     11  C          8.4170   -0.8180   -2.1360 C.2     1  UNL1        0.1650
     12  O          8.2520   -2.9970   -1.8770 O.2     1  UNL1       -0.4540
     13  O          8.9070   -1.4470   -3.2880 O.2     1  UNL1       -0.4540
     14  C          9.2220   -2.7650   -2.8880 C.3     1  UNL1        0.4680
@<TRIPOS>BOND
     1    13    14    1
     2    13    11    1
     3    14    12    1
     4    11     9    2
     5    11    10    1
     6    12    10    1
     7     9     7    1
     8    10     8    2
     9     7     6    2
    10     8     6    1
    11     6     5    1
    12     3     2    1
    13     5     1    1
    14     2     1    1
    15     2     4    2
