MODEL 1
REMARK VINA RESULT:      -7.7      0.000      0.000
REMARK SMILES CC(=O)CCc1ccc2c(c1)OCO2
REMARK SMILES IDX 4 1 2 2 1 3 3 4 5 5 6 6 7 7 11 8 8 9 10 10 9 11 12 12 14 13
REMARK SMILES IDX 13 14
REMARK H PARENT
REMARK Flexibility Score: inf
ROOT
ATOM      1  C   UNL     1       5.477   1.892   1.212  1.00  0.00     0.080 C 
ENDROOT
BRANCH   1   2
ATOM      2  C   UNL     1       4.949   0.758   1.992  1.00  0.00     0.130 C 
ATOM      3  C   UNL     1       5.864  -0.451   2.082  1.00  0.00     0.087 C 
ATOM      4  O   UNL     1       3.895   0.681   2.557  1.00  0.00    -0.300 OA
ENDBRANCH   1   2
BRANCH   1   5
ATOM      5  C   UNL     1       5.470   1.731  -0.257  1.00  0.00     0.043 C 
BRANCH   5   6
ATOM      6  C   UNL     1       6.588   0.996  -0.856  1.00  0.00    -0.044 A 
ATOM      7  C   UNL     1       7.916   1.383  -0.671  1.00  0.00     0.008 A 
ATOM      8  C   UNL     1       6.348  -0.132  -1.606  1.00  0.00     0.054 A 
ATOM      9  C   UNL     1       8.914   0.632  -1.238  1.00  0.00     0.051 A 
ATOM     10  C   UNL     1       7.388  -0.882  -2.175  1.00  0.00     0.166 A 
ATOM     11  C   UNL     1       8.699  -0.499  -1.993  1.00  0.00     0.165 A 
ATOM     12  O   UNL     1       7.444  -2.029  -2.956  1.00  0.00    -0.454 OA
ATOM     13  O   UNL     1       9.530  -1.410  -2.659  1.00  0.00    -0.454 OA
ATOM     14  C   UNL     1       8.749  -2.575  -2.825  1.00  0.00     0.468 C 
ENDBRANCH   5   6
ENDBRANCH   1   5
TORSDOF 3
ENDMDL
MODEL 2
REMARK VINA RESULT:      -7.1      1.832      2.308
REMARK SMILES CC(=O)CCc1ccc2c(c1)OCO2
REMARK SMILES IDX 4 1 2 2 1 3 3 4 5 5 6 6 7 7 11 8 8 9 10 10 9 11 12 12 14 13
REMARK SMILES IDX 13 14
REMARK H PARENT
REMARK Flexibility Score: inf
ROOT
ATOM      1  C   UNL     1       5.776   1.431  -0.208  1.00  0.00     0.080 C 
ENDROOT
BRANCH   1   2
ATOM      2  C   UNL     1       5.061   1.349   1.078  1.00  0.00     0.130 C 
ATOM      3  C   UNL     1       5.397   0.140   1.934  1.00  0.00     0.087 C 
ATOM      4  O   UNL     1       4.256   2.118   1.522  1.00  0.00    -0.300 OA
ENDBRANCH   1   2
BRANCH   1   5
ATOM      5  C   UNL     1       7.194   1.014  -0.193  1.00  0.00     0.043 C 
BRANCH   5   6
ATOM      6  C   UNL     1       7.520  -0.277  -0.806  1.00  0.00    -0.044 A 
ATOM      7  C   UNL     1       7.526  -0.463  -2.189  1.00  0.00     0.008 A 
ATOM      8  C   UNL     1       7.861  -1.349  -0.014  1.00  0.00     0.054 A 
ATOM      9  C   UNL     1       7.867  -1.690  -2.695  1.00  0.00     0.051 A 
ATOM     10  C   UNL     1       8.207  -2.595  -0.559  1.00  0.00     0.166 A 
ATOM     11  C   UNL     1       8.212  -2.778  -1.924  1.00  0.00     0.165 A 
ATOM     12  O   UNL     1       8.584  -3.819  -0.022  1.00  0.00    -0.454 OA
ATOM     13  O   UNL     1       8.589  -4.099  -2.199  1.00  0.00    -0.454 OA
ATOM     14  C   UNL     1       9.258  -4.546  -1.039  1.00  0.00     0.468 C 
ENDBRANCH   5   6
ENDBRANCH   1   5
TORSDOF 3
ENDMDL
MODEL 3
REMARK VINA RESULT:      -7.0      1.117      1.231
REMARK SMILES CC(=O)CCc1ccc2c(c1)OCO2
REMARK SMILES IDX 4 1 2 2 1 3 3 4 5 5 6 6 7 7 11 8 8 9 10 10 9 11 12 12 14 13
REMARK SMILES IDX 13 14
REMARK H PARENT
REMARK Flexibility Score: inf
ROOT
ATOM      1  C   UNL     1       6.237   1.185   0.900  1.00  0.00     0.080 C 
ENDROOT
BRANCH   1   2
ATOM      2  C   UNL     1       5.559   0.369   1.924  1.00  0.00     0.130 C 
ATOM      3  C   UNL     1       6.333  -0.849   2.401  1.00  0.00     0.087 C 
ATOM      4  O   UNL     1       4.483   0.552   2.417  1.00  0.00    -0.300 OA
ENDBRANCH   1   2
BRANCH   1   5
ATOM      5  C   UNL     1       5.892   0.884  -0.505  1.00  0.00     0.043 C 
BRANCH   5   6
ATOM      6  C   UNL     1       6.865   0.111  -1.283  1.00  0.00    -0.044 A 
ATOM      7  C   UNL     1       7.794   0.720  -2.128  1.00  0.00     0.008 A 
ATOM      8  C   UNL     1       6.901  -1.260  -1.173  1.00  0.00     0.054 A 
ATOM      9  C   UNL     1       8.693  -0.064  -2.805  1.00  0.00     0.051 A 
ATOM     10  C   UNL     1       7.833  -2.037  -1.877  1.00  0.00     0.166 A 
ATOM     11  C   UNL     1       8.749  -1.437  -2.712  1.00  0.00     0.165 A 
ATOM     12  O   UNL     1       8.097  -3.399  -1.960  1.00  0.00    -0.454 OA
ATOM     13  O   UNL     1       9.553  -2.429  -3.287  1.00  0.00    -0.454 OA
ATOM     14  C   UNL     1       9.426  -3.551  -2.438  1.00  0.00     0.468 C 
ENDBRANCH   5   6
ENDBRANCH   1   5
TORSDOF 3
ENDMDL
MODEL 4
REMARK VINA RESULT:      -6.8      1.160      1.653
REMARK SMILES CC(=O)CCc1ccc2c(c1)OCO2
REMARK SMILES IDX 4 1 2 2 1 3 3 4 5 5 6 6 7 7 11 8 8 9 10 10 9 11 12 12 14 13
REMARK SMILES IDX 13 14
REMARK H PARENT
REMARK Flexibility Score: inf
ROOT
ATOM      1  C   UNL     1       5.373  -0.081   1.945  1.00  0.00     0.080 C 
ENDROOT
BRANCH   1   2
ATOM      2  C   UNL     1       4.433   1.051   1.849  1.00  0.00     0.130 C 
ATOM      3  C   UNL     1       4.768   2.087   0.790  1.00  0.00     0.087 C 
ATOM      4  O   UNL     1       3.447   1.246   2.502  1.00  0.00    -0.300 OA
ENDBRANCH   1   2
BRANCH   1   5
ATOM      5  C   UNL     1       6.796   0.232   1.697  1.00  0.00     0.043 C 
BRANCH   5   6
ATOM      6  C   UNL     1       7.335  -0.102   0.375  1.00  0.00    -0.044 A 
ATOM      7  C   UNL     1       7.754   0.877  -0.527  1.00  0.00     0.008 A 
ATOM      8  C   UNL     1       7.469  -1.419  -0.001  1.00  0.00     0.054 A 
ATOM      9  C   UNL     1       8.273   0.492  -1.735  1.00  0.00     0.051 A 
ATOM     10  C   UNL     1       8.005  -1.785  -1.245  1.00  0.00     0.166 A 
ATOM     11  C   UNL     1       8.417  -0.818  -2.136  1.00  0.00     0.165 A 
ATOM     12  O   UNL     1       8.252  -2.997  -1.877  1.00  0.00    -0.454 OA
ATOM     13  O   UNL     1       8.907  -1.447  -3.288  1.00  0.00    -0.454 OA
ATOM     14  C   UNL     1       9.222  -2.765  -2.888  1.00  0.00     0.468 C 
ENDBRANCH   5   6
ENDBRANCH   1   5
TORSDOF 3
ENDMDL
MODEL 5
REMARK VINA RESULT:      -6.8      1.968      2.541
REMARK SMILES CC(=O)CCc1ccc2c(c1)OCO2
REMARK SMILES IDX 4 1 2 2 1 3 3 4 5 5 6 6 7 7 11 8 8 9 10 10 9 11 12 12 14 13
REMARK SMILES IDX 13 14
REMARK H PARENT
REMARK Flexibility Score: inf
ROOT
ATOM      1  C   UNL     1       5.608   0.013   2.036  1.00  0.00     0.080 C 
ENDROOT
BRANCH   1   2
ATOM      2  C   UNL     1       4.641   1.102   1.810  1.00  0.00     0.130 C 
ATOM      3  C   UNL     1       4.986   2.053   0.676  1.00  0.00     0.087 C 
ATOM      4  O   UNL     1       3.626   1.322   2.409  1.00  0.00    -0.300 OA
ENDBRANCH   1   2
BRANCH   1   5
ATOM      5  C   UNL     1       6.940   0.186   1.420  1.00  0.00     0.043 C 
BRANCH   5   6
ATOM      6  C   UNL     1       7.336  -0.783   0.395  1.00  0.00    -0.044 A 
ATOM      7  C   UNL     1       7.246  -0.501  -0.970  1.00  0.00     0.008 A 
ATOM      8  C   UNL     1       7.840  -2.008   0.763  1.00  0.00     0.054 A 
ATOM      9  C   UNL     1       7.660  -1.445  -1.874  1.00  0.00     0.051 A 
ATOM     10  C   UNL     1       8.257  -2.956  -0.184  1.00  0.00     0.166 A 
ATOM     11  C   UNL     1       8.168  -2.678  -1.530  1.00  0.00     0.165 A 
ATOM     12  O   UNL     1       8.791  -4.236  -0.107  1.00  0.00    -0.454 OA
ATOM     13  O   UNL     1       8.645  -3.781  -2.250  1.00  0.00    -0.454 OA
ATOM     14  C   UNL     1       9.446  -4.504  -1.339  1.00  0.00     0.468 C 
ENDBRANCH   5   6
ENDBRANCH   1   5
TORSDOF 3
ENDMDL
