@<TRIPOS>MOLECULE
/home/cewinharhar/GITHUB/reincatalyze/data/processed/docking_pred/2023-May-31-1727_sub9_nm5_bs15_s42_ex16_mel10_mts10000_k50_ec075_g099_lra3e-4_lrc3e-3/93c3770ef064b633c902e85f3368d9330fbaaeb8_ligand_9.pdbqt
 14 15 0 0 0
SMALL
GASTEIGER

@<TRIPOS>ATOM
      1  C          5.7760    1.4310   -0.2080 C.3     1  UNL1        0.0800
      2  C          5.0610    1.3490    1.0780 C.2     1  UNL1        0.1300
      3  C          5.3970    0.1400    1.9340 C.3     1  UNL1        0.0870
      4  O          4.2560    2.1180    1.5220 O.2     1  UNL1       -0.3000
      5  C          7.1940    1.0140   -0.1930 C.3     1  UNL1        0.0430
      6  C          7.5200   -0.2770   -0.8060 C.2     1  UNL1       -0.0440
      7  C          7.5260   -0.4630   -2.1890 C.2     1  UNL1        0.0080
      8  C          7.8610   -1.3490   -0.0140 C.2     1  UNL1        0.0540
      9  C          7.8670   -1.6900   -2.6950 C.2     1  UNL1        0.0510
     10  C          8.2070   -2.5950   -0.5590 C.2     1  UNL1        0.1660
     11  C          8.2120   -2.7780   -1.9240 C.2     1  UNL1        0.1650
     12  O          8.5840   -3.8190   -0.0220 O.2     1  UNL1       -0.4540
     13  O          8.5890   -4.0990   -2.1990 O.2     1  UNL1       -0.4540
     14  C          9.2580   -4.5460   -1.0390 C.3     1  UNL1        0.4680
@<TRIPOS>BOND
     1     9     7    1
     2     9    11    2
     3    13    11    1
     4    13    14    1
     5     7     6    2
     6    11    10    1
     7    14    12    1
     8     6     5    1
     9     6     8    1
    10    10    12    1
    11    10     8    2
    12     1     5    1
    13     1     2    1
    14     2     4    2
    15     2     3    1
