@<TRIPOS>MOLECULE
/home/cewinharhar/GITHUB/reincatalyze/data/processed/docking_pred/2023-May-31-1727_sub9_nm5_bs15_s42_ex16_mel10_mts10000_k50_ec075_g099_lra3e-4_lrc3e-3/93f5b296c54773c487a3666b5d29638d3a74aef5_ligand_9.pdbqt
 14 15 0 0 0
SMALL
GASTEIGER

@<TRIPOS>ATOM
      1  C          5.5780    1.8660    1.2240 C.3     1  UNL1        0.0800
      2  C          5.0130    0.7410    1.9900 C.2     1  UNL1        0.1300
      3  C          5.9280   -0.4600    2.1510 C.3     1  UNL1        0.0870
      4  O          3.9280    0.6660    2.4940 O.2     1  UNL1       -0.3000
      5  C          5.5610    1.7260   -0.2480 C.3     1  UNL1        0.0430
      6  C          6.6590    0.9740   -0.8620 C.2     1  UNL1       -0.0440
      7  C          7.9950    1.3450   -0.7030 C.2     1  UNL1        0.0080
      8  C          6.3920   -0.1550   -1.6000 C.2     1  UNL1        0.0540
      9  C          8.9730    0.5800   -1.2830 C.2     1  UNL1        0.0510
     10  C          7.4130   -0.9210   -2.1830 C.2     1  UNL1        0.1660
     11  C          8.7320   -0.5540   -2.0270 C.2     1  UNL1        0.1650
     12  O          7.4410   -2.0740   -2.9580 O.2     1  UNL1       -0.4540
     13  O          9.5390   -1.4780   -2.7020 O.2     1  UNL1       -0.4540
     14  C          8.7410   -2.6350   -2.8470 C.3     1  UNL1        0.4680
@<TRIPOS>BOND
     1    12    14    1
     2    12    10    1
     3    14    13    1
     4    13    11    1
     5    10    11    2
     6    10     8    1
     7    11     9    1
     8     8     6    2
     9     9     7    2
    10     6     7    1
    11     6     5    1
    12     5     1    1
    13     1     2    1
    14     2     3    1
    15     2     4    2
