@<TRIPOS>MOLECULE
/home/cewinharhar/GITHUB/reincatalyze/data/processed/docking_pred/2023-May-31-1727_sub9_nm5_bs15_s42_ex16_mel10_mts10000_k50_ec075_g099_lra3e-4_lrc3e-3/93f5b296c54773c487a3666b5d29638d3a74aef5_ligand_9.pdbqt
 14 15 0 0 0
SMALL
GASTEIGER

@<TRIPOS>ATOM
      1  C          5.5740   -0.0100    2.0310 C.3     1  UNL1        0.0800
      2  C          4.6240    1.0970    1.8130 C.2     1  UNL1        0.1300
      3  C          4.9960    2.0630    0.7010 C.3     1  UNL1        0.0870
      4  O          3.6060    1.3200    2.4040 O.2     1  UNL1       -0.3000
      5  C          6.9210    0.1630    1.4480 C.3     1  UNL1        0.0430
      6  C          7.3280   -0.7860    0.4080 C.2     1  UNL1       -0.0440
      7  C          7.2830   -0.4660   -0.9500 C.2     1  UNL1        0.0080
      8  C          7.8000   -2.0300    0.7580 C.2     1  UNL1        0.0540
      9  C          7.7050   -1.3940   -1.8670 C.2     1  UNL1        0.0510
     10  C          8.2260   -2.9600   -0.2020 C.2     1  UNL1        0.1660
     11  C          8.1810   -2.6450   -1.5430 C.2     1  UNL1        0.1650
     12  O          8.7340   -4.2520   -0.1450 O.2     1  UNL1       -0.4540
     13  O          8.6580   -3.7370   -2.2780 O.2     1  UNL1       -0.4540
     14  C          9.4190   -4.4990   -1.3640 C.3     1  UNL1        0.4680
@<TRIPOS>BOND
     1    13    11    1
     2    13    14    1
     3     9    11    2
     4     9     7    1
     5    11    10    1
     6    14    12    1
     7     7     6    2
     8    10    12    1
     9    10     8    2
    10     6     8    1
    11     6     5    1
    12     3     2    1
    13     5     1    1
    14     2     1    1
    15     2     4    2
