@<TRIPOS>MOLECULE
/home/cewinharhar/GITHUB/reincatalyze/data/processed/docking_pred/2023-May-31-1727_sub9_nm5_bs15_s42_ex16_mel10_mts10000_k50_ec075_g099_lra3e-4_lrc3e-3/947f63470f9832a4045274e3eb94108fa3776dc7_ligand_9.pdbqt
 14 15 0 0 0
SMALL
GASTEIGER

@<TRIPOS>ATOM
      1  C          5.6740    1.2150   -0.4660 C.3     1  UNL1        0.0800
      2  C          5.1940    1.4140    0.9140 C.2     1  UNL1        0.1300
      3  C          5.8940    0.5790    1.9720 C.3     1  UNL1        0.0870
      4  O          4.3270    2.1500    1.2920 O.2     1  UNL1       -0.3000
      5  C          7.1300    1.0220   -0.6280 C.3     1  UNL1        0.0430
      6  C          7.5820   -0.2760   -1.1340 C.2     1  UNL1       -0.0440
      7  C          7.8870   -0.4850   -2.4800 C.2     1  UNL1        0.0080
      8  C          7.7460   -1.3330   -0.2690 C.2     1  UNL1        0.0540
      9  C          8.3310   -1.7190   -2.8800 C.2     1  UNL1        0.0510
     10  C          8.2030   -2.5870   -0.7050 C.2     1  UNL1        0.1660
     11  C          8.5030   -2.7930   -2.0340 C.2     1  UNL1        0.1650
     12  O          8.4570   -3.8000   -0.0780 O.2     1  UNL1       -0.4540
     13  O          8.9320   -4.1160   -2.1980 O.2     1  UNL1       -0.4540
     14  C          9.3360   -4.5400   -0.9130 C.3     1  UNL1        0.4680
@<TRIPOS>BOND
     1     9     7    1
     2     9    11    2
     3     7     6    2
     4    13    11    1
     5    13    14    1
     6    11    10    1
     7     6     5    1
     8     6     8    1
     9    14    12    1
    10    10     8    2
    11    10    12    1
    12     5     1    1
    13     1     2    1
    14     2     4    2
    15     2     3    1
