@<TRIPOS>MOLECULE
/home/cewinharhar/GITHUB/reincatalyze/data/processed/docking_pred/2023-May-31-1727_sub9_nm5_bs15_s42_ex16_mel10_mts10000_k50_ec075_g099_lra3e-4_lrc3e-3/947f63470f9832a4045274e3eb94108fa3776dc7_ligand_9.pdbqt
 14 15 0 0 0
SMALL
GASTEIGER

@<TRIPOS>ATOM
      1  C          5.6200    1.9010    1.2640 C.3     1  UNL1        0.0800
      2  C          5.0470    0.7600    2.0020 C.2     1  UNL1        0.1300
      3  C          5.9780   -0.4260    2.1900 C.3     1  UNL1        0.0870
      4  O          3.9460    0.6620    2.4650 O.2     1  UNL1       -0.3000
      5  C          5.6110    1.7930   -0.2100 C.3     1  UNL1        0.0430
      6  C          6.6940    1.0270   -0.8330 C.2     1  UNL1       -0.0440
      7  C          8.0360    1.3840   -0.6900 C.2     1  UNL1        0.0080
      8  C          6.4060   -0.1020   -1.5640 C.2     1  UNL1        0.0540
      9  C          8.9990    0.6050   -1.2770 C.2     1  UNL1        0.0510
     10  C          7.4130   -0.8810   -2.1550 C.2     1  UNL1        0.1660
     11  C          8.7370   -0.5280   -2.0150 C.2     1  UNL1        0.1650
     12  O          7.4200   -2.0370   -2.9260 O.2     1  UNL1       -0.4540
     13  O          9.5270   -1.4640   -2.6940 O.2     1  UNL1       -0.4540
     14  C          8.7150   -2.6120   -2.8260 C.3     1  UNL1        0.4680
@<TRIPOS>BOND
     1    12    14    1
     2    12    10    1
     3    14    13    1
     4    13    11    1
     5    10    11    2
     6    10     8    1
     7    11     9    1
     8     8     6    2
     9     9     7    2
    10     6     7    1
    11     6     5    1
    12     5     1    1
    13     1     2    1
    14     2     3    1
    15     2     4    2
