@<TRIPOS>MOLECULE
/home/cewinharhar/GITHUB/reincatalyze/data/processed/docking_pred/2023-May-31-1727_sub9_nm5_bs15_s42_ex16_mel10_mts10000_k50_ec075_g099_lra3e-4_lrc3e-3/9545d038953ad0bd3b50a81295f717fe73892d7b_ligand_9.pdbqt
 14 15 0 0 0
SMALL
GASTEIGER

@<TRIPOS>ATOM
      1  C          5.7770    1.4240   -0.3080 C.3     1  UNL1        0.0800
      2  C          5.0940    1.3710    0.9970 C.2     1  UNL1        0.1300
      3  C          5.5150    0.2280    1.9060 C.3     1  UNL1        0.0870
      4  O          4.2550    2.1150    1.4190 O.2     1  UNL1       -0.3000
      5  C          7.2100    1.0590   -0.3080 C.3     1  UNL1        0.0430
      6  C          7.5720   -0.2320   -0.8980 C.2     1  UNL1       -0.0440
      7  C          7.7100   -0.4080   -2.2760 C.2     1  UNL1        0.0080
      8  C          7.8160   -1.3160   -0.0870 C.2     1  UNL1        0.0540
      9  C          8.0780   -1.6380   -2.7570 C.2     1  UNL1        0.0510
     10  C          8.1910   -2.5640   -0.6060 C.2     1  UNL1        0.1660
     11  C          8.3270   -2.7380   -1.9660 C.2     1  UNL1        0.1650
     12  O          8.4930   -3.7990   -0.0460 O.2     1  UNL1       -0.4540
     13  O          8.7070   -4.0630   -2.2150 O.2     1  UNL1       -0.4540
     14  C          9.2510   -4.5300   -0.9980 C.3     1  UNL1        0.4680
@<TRIPOS>BOND
     1     9     7    1
     2     9    11    2
     3     7     6    2
     4    13    11    1
     5    13    14    1
     6    11    10    1
     7    14    12    1
     8     6     5    1
     9     6     8    1
    10    10     8    2
    11    10    12    1
    12     1     5    1
    13     1     2    1
    14     2     4    2
    15     2     3    1
