MODEL 1
REMARK VINA RESULT:      -7.6      0.000      0.000
REMARK SMILES CC(=O)CCc1ccc2c(c1)OCO2
REMARK SMILES IDX 4 1 2 2 1 3 3 4 5 5 6 6 7 7 11 8 8 9 10 10 9 11 12 12 14 13
REMARK SMILES IDX 13 14
REMARK H PARENT
REMARK Flexibility Score: inf
ROOT
ATOM      1  C   UNL     1       5.605   1.877   1.234  1.00  0.00     0.080 C 
ENDROOT
BRANCH   1   2
ATOM      2  C   UNL     1       5.079   0.737   2.007  1.00  0.00     0.130 C 
ATOM      3  C   UNL     1       6.036  -0.429   2.179  1.00  0.00     0.087 C 
ATOM      4  O   UNL     1       3.996   0.626   2.508  1.00  0.00    -0.300 OA
ENDBRANCH   1   2
BRANCH   1   5
ATOM      5  C   UNL     1       5.583   1.733  -0.236  1.00  0.00     0.043 C 
BRANCH   5   6
ATOM      6  C   UNL     1       6.678   0.980  -0.853  1.00  0.00    -0.044 A 
ATOM      7  C   UNL     1       8.016   1.339  -0.682  1.00  0.00     0.008 A 
ATOM      8  C   UNL     1       6.406  -0.139  -1.606  1.00  0.00     0.054 A 
ATOM      9  C   UNL     1       8.992   0.572  -1.266  1.00  0.00     0.051 A 
ATOM     10  C   UNL     1       7.425  -0.906  -2.192  1.00  0.00     0.166 A 
ATOM     11  C   UNL     1       8.745  -0.551  -2.024  1.00  0.00     0.165 A 
ATOM     12  O   UNL     1       7.449  -2.050  -2.980  1.00  0.00    -0.454 OA
ATOM     13  O   UNL     1       9.549  -1.474  -2.705  1.00  0.00    -0.454 OA
ATOM     14  C   UNL     1       8.743  -2.622  -2.868  1.00  0.00     0.468 C 
ENDBRANCH   5   6
ENDBRANCH   1   5
TORSDOF 3
ENDMDL
MODEL 2
REMARK VINA RESULT:      -7.0      1.818      2.261
REMARK SMILES CC(=O)CCc1ccc2c(c1)OCO2
REMARK SMILES IDX 4 1 2 2 1 3 3 4 5 5 6 6 7 7 11 8 8 9 10 10 9 11 12 12 14 13
REMARK SMILES IDX 13 14
REMARK H PARENT
REMARK Flexibility Score: inf
ROOT
ATOM      1  C   UNL     1       5.777   1.424  -0.308  1.00  0.00     0.080 C 
ENDROOT
BRANCH   1   2
ATOM      2  C   UNL     1       5.094   1.371   0.997  1.00  0.00     0.130 C 
ATOM      3  C   UNL     1       5.515   0.228   1.906  1.00  0.00     0.087 C 
ATOM      4  O   UNL     1       4.255   2.115   1.419  1.00  0.00    -0.300 OA
ENDBRANCH   1   2
BRANCH   1   5
ATOM      5  C   UNL     1       7.210   1.059  -0.308  1.00  0.00     0.043 C 
BRANCH   5   6
ATOM      6  C   UNL     1       7.572  -0.232  -0.898  1.00  0.00    -0.044 A 
ATOM      7  C   UNL     1       7.710  -0.408  -2.276  1.00  0.00     0.008 A 
ATOM      8  C   UNL     1       7.816  -1.316  -0.087  1.00  0.00     0.054 A 
ATOM      9  C   UNL     1       8.078  -1.638  -2.757  1.00  0.00     0.051 A 
ATOM     10  C   UNL     1       8.191  -2.564  -0.606  1.00  0.00     0.166 A 
ATOM     11  C   UNL     1       8.327  -2.738  -1.966  1.00  0.00     0.165 A 
ATOM     12  O   UNL     1       8.493  -3.799  -0.046  1.00  0.00    -0.454 OA
ATOM     13  O   UNL     1       8.707  -4.063  -2.215  1.00  0.00    -0.454 OA
ATOM     14  C   UNL     1       9.251  -4.530  -0.998  1.00  0.00     0.468 C 
ENDBRANCH   5   6
ENDBRANCH   1   5
TORSDOF 3
ENDMDL
MODEL 3
REMARK VINA RESULT:      -6.9      1.035      1.092
REMARK SMILES CC(=O)CCc1ccc2c(c1)OCO2
REMARK SMILES IDX 4 1 2 2 1 3 3 4 5 5 6 6 7 7 11 8 8 9 10 10 9 11 12 12 14 13
REMARK SMILES IDX 13 14
REMARK H PARENT
REMARK Flexibility Score: inf
ROOT
ATOM      1  C   UNL     1       6.179   1.268   0.921  1.00  0.00     0.080 C 
ENDROOT
BRANCH   1   2
ATOM      2  C   UNL     1       5.527   0.434   1.947  1.00  0.00     0.130 C 
ATOM      3  C   UNL     1       6.323  -0.777   2.402  1.00  0.00     0.087 C 
ATOM      4  O   UNL     1       4.456   0.600   2.458  1.00  0.00    -0.300 OA
ENDBRANCH   1   2
BRANCH   1   5
ATOM      5  C   UNL     1       5.850   0.948  -0.484  1.00  0.00     0.043 C 
BRANCH   5   6
ATOM      6  C   UNL     1       6.842   0.183  -1.246  1.00  0.00    -0.044 A 
ATOM      7  C   UNL     1       7.826   0.802  -2.018  1.00  0.00     0.008 A 
ATOM      8  C   UNL     1       6.840  -1.192  -1.193  1.00  0.00     0.054 A 
ATOM      9  C   UNL     1       8.738   0.025  -2.684  1.00  0.00     0.051 A 
ATOM     10  C   UNL     1       7.787  -1.963  -1.884  1.00  0.00     0.166 A 
ATOM     11  C   UNL     1       8.757  -1.352  -2.647  1.00  0.00     0.165 A 
ATOM     12  O   UNL     1       8.023  -3.326  -2.012  1.00  0.00    -0.454 OA
ATOM     13  O   UNL     1       9.565  -2.340  -3.224  1.00  0.00    -0.454 OA
ATOM     14  C   UNL     1       9.370  -3.492  -2.431  1.00  0.00     0.468 C 
ENDBRANCH   5   6
ENDBRANCH   1   5
TORSDOF 3
ENDMDL
MODEL 4
REMARK VINA RESULT:      -6.8      1.940      2.521
REMARK SMILES CC(=O)CCc1ccc2c(c1)OCO2
REMARK SMILES IDX 4 1 2 2 1 3 3 4 5 5 6 6 7 7 11 8 8 9 10 10 9 11 12 12 14 13
REMARK SMILES IDX 13 14
REMARK H PARENT
REMARK Flexibility Score: inf
ROOT
ATOM      1  C   UNL     1       5.481  -0.010   2.084  1.00  0.00     0.080 C 
ENDROOT
BRANCH   1   2
ATOM      2  C   UNL     1       4.548   1.107   1.851  1.00  0.00     0.130 C 
ATOM      3  C   UNL     1       4.951   2.071   0.749  1.00  0.00     0.087 C 
ATOM      4  O   UNL     1       3.521   1.338   2.423  1.00  0.00    -0.300 OA
ENDBRANCH   1   2
BRANCH   1   5
ATOM      5  C   UNL     1       6.843   0.153   1.534  1.00  0.00     0.043 C 
BRANCH   5   6
ATOM      6  C   UNL     1       7.259  -0.781   0.485  1.00  0.00    -0.044 A 
ATOM      7  C   UNL     1       7.192  -0.456  -0.871  1.00  0.00     0.008 A 
ATOM      8  C   UNL     1       7.762  -2.016   0.822  1.00  0.00     0.054 A 
ATOM      9  C   UNL     1       7.624  -1.368  -1.798  1.00  0.00     0.051 A 
ATOM     10  C   UNL     1       8.198  -2.932  -0.148  1.00  0.00     0.166 A 
ATOM     11  C   UNL     1       8.130  -2.610  -1.486  1.00  0.00     0.165 A 
ATOM     12  O   UNL     1       8.735  -4.212  -0.103  1.00  0.00    -0.454 OA
ATOM     13  O   UNL     1       8.623  -3.688  -2.233  1.00  0.00    -0.454 OA
ATOM     14  C   UNL     1       9.411  -4.438  -1.332  1.00  0.00     0.468 C 
ENDBRANCH   5   6
ENDBRANCH   1   5
TORSDOF 3
ENDMDL
MODEL 5
REMARK VINA RESULT:      -6.7      1.097      1.600
REMARK SMILES CC(=O)CCc1ccc2c(c1)OCO2
REMARK SMILES IDX 4 1 2 2 1 3 3 4 5 5 6 6 7 7 11 8 8 9 10 10 9 11 12 12 14 13
REMARK SMILES IDX 13 14
REMARK H PARENT
REMARK Flexibility Score: inf
ROOT
ATOM      1  C   UNL     1       5.350  -0.026   1.985  1.00  0.00     0.080 C 
ENDROOT
BRANCH   1   2
ATOM      2  C   UNL     1       4.407   1.101   1.871  1.00  0.00     0.130 C 
ATOM      3  C   UNL     1       4.752   2.133   0.811  1.00  0.00     0.087 C 
ATOM      4  O   UNL     1       3.412   1.295   2.511  1.00  0.00    -0.300 OA
ENDBRANCH   1   2
BRANCH   1   5
ATOM      5  C   UNL     1       6.776   0.294   1.765  1.00  0.00     0.043 C 
BRANCH   5   6
ATOM      6  C   UNL     1       7.333   0.000   0.442  1.00  0.00    -0.044 A 
ATOM      7  C   UNL     1       7.915   0.987  -0.356  1.00  0.00     0.008 A 
ATOM      8  C   UNL     1       7.319  -1.288  -0.041  1.00  0.00     0.054 A 
ATOM      9  C   UNL     1       8.441   0.636  -1.573  1.00  0.00     0.051 A 
ATOM     10  C   UNL     1       7.865  -1.619  -1.291  1.00  0.00     0.166 A 
ATOM     11  C   UNL     1       8.438  -0.645  -2.078  1.00  0.00     0.165 A 
ATOM     12  O   UNL     1       7.989  -2.798  -2.015  1.00  0.00    -0.454 OA
ATOM     13  O   UNL     1       8.901  -1.237  -3.261  1.00  0.00    -0.454 OA
ATOM     14  C   UNL     1       9.029  -2.612  -2.965  1.00  0.00     0.468 C 
ENDBRANCH   5   6
ENDBRANCH   1   5
TORSDOF 3
ENDMDL
