@<TRIPOS>MOLECULE
/home/cewinharhar/GITHUB/reincatalyze/data/processed/docking_pred/2023-May-31-1727_sub9_nm5_bs15_s42_ex16_mel10_mts10000_k50_ec075_g099_lra3e-4_lrc3e-3/9545d038953ad0bd3b50a81295f717fe73892d7b_ligand_9.pdbqt
 14 15 0 0 0
SMALL
GASTEIGER

@<TRIPOS>ATOM
      1  C          5.6050    1.8770    1.2340 C.3     1  UNL1        0.0800
      2  C          5.0790    0.7370    2.0070 C.2     1  UNL1        0.1300
      3  C          6.0360   -0.4290    2.1790 C.3     1  UNL1        0.0870
      4  O          3.9960    0.6260    2.5080 O.2     1  UNL1       -0.3000
      5  C          5.5830    1.7330   -0.2360 C.3     1  UNL1        0.0430
      6  C          6.6780    0.9800   -0.8530 C.2     1  UNL1       -0.0440
      7  C          8.0160    1.3390   -0.6820 C.2     1  UNL1        0.0080
      8  C          6.4060   -0.1390   -1.6060 C.2     1  UNL1        0.0540
      9  C          8.9920    0.5720   -1.2660 C.2     1  UNL1        0.0510
     10  C          7.4250   -0.9060   -2.1920 C.2     1  UNL1        0.1660
     11  C          8.7450   -0.5510   -2.0240 C.2     1  UNL1        0.1650
     12  O          7.4490   -2.0500   -2.9800 O.2     1  UNL1       -0.4540
     13  O          9.5490   -1.4740   -2.7050 O.2     1  UNL1       -0.4540
     14  C          8.7430   -2.6220   -2.8680 C.3     1  UNL1        0.4680
@<TRIPOS>BOND
     1    12    14    1
     2    12    10    1
     3    14    13    1
     4    13    11    1
     5    10    11    2
     6    10     8    1
     7    11     9    1
     8     8     6    2
     9     9     7    2
    10     6     7    1
    11     6     5    1
    12     5     1    1
    13     1     2    1
    14     2     3    1
    15     2     4    2
