@<TRIPOS>MOLECULE
/home/cewinharhar/GITHUB/reincatalyze/data/processed/docking_pred/2023-May-31-1727_sub9_nm5_bs15_s42_ex16_mel10_mts10000_k50_ec075_g099_lra3e-4_lrc3e-3/9545d038953ad0bd3b50a81295f717fe73892d7b_ligand_9.pdbqt
 14 15 0 0 0
SMALL
GASTEIGER

@<TRIPOS>ATOM
      1  C          5.4810   -0.0100    2.0840 C.3     1  UNL1        0.0800
      2  C          4.5480    1.1070    1.8510 C.2     1  UNL1        0.1300
      3  C          4.9510    2.0710    0.7490 C.3     1  UNL1        0.0870
      4  O          3.5210    1.3380    2.4230 O.2     1  UNL1       -0.3000
      5  C          6.8430    0.1530    1.5340 C.3     1  UNL1        0.0430
      6  C          7.2590   -0.7810    0.4850 C.2     1  UNL1       -0.0440
      7  C          7.1920   -0.4560   -0.8710 C.2     1  UNL1        0.0080
      8  C          7.7620   -2.0160    0.8220 C.2     1  UNL1        0.0540
      9  C          7.6240   -1.3680   -1.7980 C.2     1  UNL1        0.0510
     10  C          8.1980   -2.9320   -0.1480 C.2     1  UNL1        0.1660
     11  C          8.1300   -2.6100   -1.4860 C.2     1  UNL1        0.1650
     12  O          8.7350   -4.2120   -0.1030 O.2     1  UNL1       -0.4540
     13  O          8.6230   -3.6880   -2.2330 O.2     1  UNL1       -0.4540
     14  C          9.4110   -4.4380   -1.3320 C.3     1  UNL1        0.4680
@<TRIPOS>BOND
     1    13    11    1
     2    13    14    1
     3     9    11    2
     4     9     7    1
     5    11    10    1
     6    14    12    1
     7     7     6    2
     8    10    12    1
     9    10     8    2
    10     6     8    1
    11     6     5    1
    12     3     2    1
    13     5     1    1
    14     2     1    1
    15     2     4    2
