@<TRIPOS>MOLECULE
/home/cewinharhar/GITHUB/reincatalyze/data/processed/docking_pred/2023-May-31-1727_sub9_nm5_bs15_s42_ex16_mel10_mts10000_k50_ec075_g099_lra3e-4_lrc3e-3/955e59fc22a1e87e2ab10a68f3a5c98643a236a4_ligand_9.pdbqt
 14 15 0 0 0
SMALL
GASTEIGER

@<TRIPOS>ATOM
      1  C          5.3730   -0.0430    1.9350 C.3     1  UNL1        0.0800
      2  C          4.4340    1.0910    1.8600 C.2     1  UNL1        0.1300
      3  C          4.7620    2.1380    0.8100 C.3     1  UNL1        0.0870
      4  O          3.4540    1.2790    2.5240 O.2     1  UNL1       -0.3000
      5  C          6.7970    0.2730    1.6950 C.3     1  UNL1        0.0430
      6  C          7.3440   -0.0580    0.3760 C.2     1  UNL1       -0.0440
      7  C          7.7940    0.9210   -0.5110 C.2     1  UNL1        0.0080
      8  C          7.4530   -1.3730   -0.0130 C.2     1  UNL1        0.0540
      9  C          8.3190    0.5380   -1.7170 C.2     1  UNL1        0.0510
     10  C          7.9950   -1.7380   -1.2550 C.2     1  UNL1        0.1660
     11  C          8.4390   -0.7710   -2.1300 C.2     1  UNL1        0.1650
     12  O          8.2240   -2.9480   -1.8980 O.2     1  UNL1       -0.4540
     13  O          8.9280   -1.3980   -3.2830 O.2     1  UNL1       -0.4540
     14  C          9.2100   -2.7260   -2.8950 C.3     1  UNL1        0.4680
@<TRIPOS>BOND
     1    13    14    1
     2    13    11    1
     3    14    12    1
     4    11     9    2
     5    11    10    1
     6    12    10    1
     7     9     7    1
     8    10     8    2
     9     7     6    2
    10     8     6    1
    11     6     5    1
    12     3     2    1
    13     5     1    1
    14     2     1    1
    15     2     4    2
