MODEL 1
REMARK VINA RESULT:      -7.6      0.000      0.000
REMARK SMILES CC(=O)CCc1ccc2c(c1)OCO2
REMARK SMILES IDX 4 1 2 2 1 3 3 4 5 5 6 6 7 7 11 8 8 9 10 10 9 11 12 12 14 13
REMARK SMILES IDX 13 14
REMARK H PARENT
REMARK Flexibility Score: inf
ROOT
ATOM      1  C   UNL     1       5.578   1.866   1.224  1.00  0.00     0.080 C 
ENDROOT
BRANCH   1   2
ATOM      2  C   UNL     1       5.013   0.741   1.990  1.00  0.00     0.130 C 
ATOM      3  C   UNL     1       5.928  -0.460   2.151  1.00  0.00     0.087 C 
ATOM      4  O   UNL     1       3.928   0.666   2.494  1.00  0.00    -0.300 OA
ENDBRANCH   1   2
BRANCH   1   5
ATOM      5  C   UNL     1       5.561   1.726  -0.248  1.00  0.00     0.043 C 
BRANCH   5   6
ATOM      6  C   UNL     1       6.659   0.974  -0.862  1.00  0.00    -0.044 A 
ATOM      7  C   UNL     1       7.995   1.345  -0.703  1.00  0.00     0.008 A 
ATOM      8  C   UNL     1       6.392  -0.155  -1.600  1.00  0.00     0.054 A 
ATOM      9  C   UNL     1       8.973   0.580  -1.283  1.00  0.00     0.051 A 
ATOM     10  C   UNL     1       7.413  -0.921  -2.183  1.00  0.00     0.166 A 
ATOM     11  C   UNL     1       8.732  -0.554  -2.027  1.00  0.00     0.165 A 
ATOM     12  O   UNL     1       7.441  -2.074  -2.958  1.00  0.00    -0.454 OA
ATOM     13  O   UNL     1       9.539  -1.478  -2.702  1.00  0.00    -0.454 OA
ATOM     14  C   UNL     1       8.741  -2.635  -2.847  1.00  0.00     0.468 C 
ENDBRANCH   5   6
ENDBRANCH   1   5
TORSDOF 3
ENDMDL
MODEL 2
REMARK VINA RESULT:      -7.0      1.825      2.264
REMARK SMILES CC(=O)CCc1ccc2c(c1)OCO2
REMARK SMILES IDX 4 1 2 2 1 3 3 4 5 5 6 6 7 7 11 8 8 9 10 10 9 11 12 12 14 13
REMARK SMILES IDX 13 14
REMARK H PARENT
REMARK Flexibility Score: inf
ROOT
ATOM      1  C   UNL     1       5.822   1.434  -0.302  1.00  0.00     0.080 C 
ENDROOT
BRANCH   1   2
ATOM      2  C   UNL     1       5.111   1.365   0.987  1.00  0.00     0.130 C 
ATOM      3  C   UNL     1       5.423   0.145   1.837  1.00  0.00     0.087 C 
ATOM      4  O   UNL     1       4.326   2.150   1.437  1.00  0.00    -0.300 OA
ENDBRANCH   1   2
BRANCH   1   5
ATOM      5  C   UNL     1       7.249   1.048  -0.281  1.00  0.00     0.043 C 
BRANCH   5   6
ATOM      6  C   UNL     1       7.603  -0.244  -0.875  1.00  0.00    -0.044 A 
ATOM      7  C   UNL     1       7.750  -0.414  -2.252  1.00  0.00     0.008 A 
ATOM      8  C   UNL     1       7.830  -1.334  -0.067  1.00  0.00     0.054 A 
ATOM      9  C   UNL     1       8.110  -1.645  -2.737  1.00  0.00     0.051 A 
ATOM     10  C   UNL     1       8.198  -2.583  -0.590  1.00  0.00     0.166 A 
ATOM     11  C   UNL     1       8.343  -2.751  -1.950  1.00  0.00     0.165 A 
ATOM     12  O   UNL     1       8.484  -3.824  -0.034  1.00  0.00    -0.454 OA
ATOM     13  O   UNL     1       8.711  -4.079  -2.202  1.00  0.00    -0.454 OA
ATOM     14  C   UNL     1       9.242  -4.557  -0.984  1.00  0.00     0.468 C 
ENDBRANCH   5   6
ENDBRANCH   1   5
TORSDOF 3
ENDMDL
MODEL 3
REMARK VINA RESULT:      -6.7      1.946      2.501
REMARK SMILES CC(=O)CCc1ccc2c(c1)OCO2
REMARK SMILES IDX 4 1 2 2 1 3 3 4 5 5 6 6 7 7 11 8 8 9 10 10 9 11 12 12 14 13
REMARK SMILES IDX 13 14
REMARK H PARENT
REMARK Flexibility Score: inf
ROOT
ATOM      1  C   UNL     1       5.574  -0.010   2.031  1.00  0.00     0.080 C 
ENDROOT
BRANCH   1   2
ATOM      2  C   UNL     1       4.624   1.097   1.813  1.00  0.00     0.130 C 
ATOM      3  C   UNL     1       4.996   2.063   0.701  1.00  0.00     0.087 C 
ATOM      4  O   UNL     1       3.606   1.320   2.404  1.00  0.00    -0.300 OA
ENDBRANCH   1   2
BRANCH   1   5
ATOM      5  C   UNL     1       6.921   0.163   1.448  1.00  0.00     0.043 C 
BRANCH   5   6
ATOM      6  C   UNL     1       7.328  -0.786   0.408  1.00  0.00    -0.044 A 
ATOM      7  C   UNL     1       7.283  -0.466  -0.950  1.00  0.00     0.008 A 
ATOM      8  C   UNL     1       7.800  -2.030   0.758  1.00  0.00     0.054 A 
ATOM      9  C   UNL     1       7.705  -1.394  -1.867  1.00  0.00     0.051 A 
ATOM     10  C   UNL     1       8.226  -2.960  -0.202  1.00  0.00     0.166 A 
ATOM     11  C   UNL     1       8.181  -2.645  -1.543  1.00  0.00     0.165 A 
ATOM     12  O   UNL     1       8.734  -4.252  -0.145  1.00  0.00    -0.454 OA
ATOM     13  O   UNL     1       8.658  -3.737  -2.278  1.00  0.00    -0.454 OA
ATOM     14  C   UNL     1       9.419  -4.499  -1.364  1.00  0.00     0.468 C 
ENDBRANCH   5   6
ENDBRANCH   1   5
TORSDOF 3
ENDMDL
MODEL 4
REMARK VINA RESULT:      -6.7      1.801      2.437
REMARK SMILES CC(=O)CCc1ccc2c(c1)OCO2
REMARK SMILES IDX 4 1 2 2 1 3 3 4 5 5 6 6 7 7 11 8 8 9 10 10 9 11 12 12 14 13
REMARK SMILES IDX 13 14
REMARK H PARENT
REMARK Flexibility Score: inf
ROOT
ATOM      1  C   UNL     1       6.870   1.604   0.950  1.00  0.00     0.080 C 
ENDROOT
BRANCH   1   2
ATOM      2  C   UNL     1       5.425   1.836   0.769  1.00  0.00     0.130 C 
ATOM      3  C   UNL     1       4.991   2.150  -0.653  1.00  0.00     0.087 C 
ATOM      4  O   UNL     1       4.565   1.806   1.602  1.00  0.00    -0.300 OA
ENDBRANCH   1   2
BRANCH   1   5
ATOM      5  C   UNL     1       7.668   1.469  -0.286  1.00  0.00     0.043 C 
BRANCH   5   6
ATOM      6  C   UNL     1       7.842   0.118  -0.828  1.00  0.00    -0.044 A 
ATOM      7  C   UNL     1       7.872  -0.135  -2.200  1.00  0.00     0.008 A 
ATOM      8  C   UNL     1       8.011  -0.949   0.024  1.00  0.00     0.054 A 
ATOM      9  C   UNL     1       8.065  -1.420  -2.637  1.00  0.00     0.051 A 
ATOM     10  C   UNL     1       8.207  -2.255  -0.450  1.00  0.00     0.166 A 
ATOM     11  C   UNL     1       8.236  -2.505  -1.805  1.00  0.00     0.165 A 
ATOM     12  O   UNL     1       8.400  -3.490   0.156  1.00  0.00    -0.454 OA
ATOM     13  O   UNL     1       8.444  -3.875  -2.005  1.00  0.00    -0.454 OA
ATOM     14  C   UNL     1       9.008  -4.348  -0.799  1.00  0.00     0.468 C 
ENDBRANCH   5   6
ENDBRANCH   1   5
TORSDOF 3
ENDMDL
MODEL 5
REMARK VINA RESULT:      -6.7      1.144      1.628
REMARK SMILES CC(=O)CCc1ccc2c(c1)OCO2
REMARK SMILES IDX 4 1 2 2 1 3 3 4 5 5 6 6 7 7 11 8 8 9 10 10 9 11 12 12 14 13
REMARK SMILES IDX 13 14
REMARK H PARENT
REMARK Flexibility Score: inf
ROOT
ATOM      1  C   UNL     1       5.373  -0.043   1.935  1.00  0.00     0.080 C 
ENDROOT
BRANCH   1   2
ATOM      2  C   UNL     1       4.434   1.091   1.860  1.00  0.00     0.130 C 
ATOM      3  C   UNL     1       4.762   2.138   0.810  1.00  0.00     0.087 C 
ATOM      4  O   UNL     1       3.454   1.279   2.524  1.00  0.00    -0.300 OA
ENDBRANCH   1   2
BRANCH   1   5
ATOM      5  C   UNL     1       6.797   0.273   1.695  1.00  0.00     0.043 C 
BRANCH   5   6
ATOM      6  C   UNL     1       7.344  -0.058   0.376  1.00  0.00    -0.044 A 
ATOM      7  C   UNL     1       7.794   0.921  -0.511  1.00  0.00     0.008 A 
ATOM      8  C   UNL     1       7.453  -1.373  -0.013  1.00  0.00     0.054 A 
ATOM      9  C   UNL     1       8.319   0.538  -1.717  1.00  0.00     0.051 A 
ATOM     10  C   UNL     1       7.995  -1.738  -1.255  1.00  0.00     0.166 A 
ATOM     11  C   UNL     1       8.439  -0.771  -2.130  1.00  0.00     0.165 A 
ATOM     12  O   UNL     1       8.224  -2.948  -1.898  1.00  0.00    -0.454 OA
ATOM     13  O   UNL     1       8.928  -1.398  -3.283  1.00  0.00    -0.454 OA
ATOM     14  C   UNL     1       9.210  -2.726  -2.895  1.00  0.00     0.468 C 
ENDBRANCH   5   6
ENDBRANCH   1   5
TORSDOF 3
ENDMDL
