@<TRIPOS>MOLECULE
/home/cewinharhar/GITHUB/reincatalyze/data/processed/docking_pred/2023-May-31-1727_sub9_nm5_bs15_s42_ex16_mel10_mts10000_k50_ec075_g099_lra3e-4_lrc3e-3/96aa1335557473cc7235c71144735280de1f686e_ligand_9.pdbqt
 14 15 0 0 0
SMALL
GASTEIGER

@<TRIPOS>ATOM
      1  C          6.2880    1.4990    0.6220 C.3     1  UNL1        0.0800
      2  C          5.8680    0.7150    1.7970 C.2     1  UNL1        0.1300
      3  C          6.9040   -0.2590    2.3320 C.3     1  UNL1        0.0870
      4  O          4.8170    0.7570    2.3720 O.2     1  UNL1       -0.3000
      5  C          5.8730    0.9720   -0.6950 C.3     1  UNL1        0.0430
      6  C          6.8460    0.1590   -1.4290 C.2     1  UNL1       -0.0440
      7  C          7.7740    0.7210   -2.3070 C.2     1  UNL1        0.0080
      8  C          6.8850   -1.2030   -1.2420 C.2     1  UNL1        0.0540
      9  C          8.6740   -0.0970   -2.9390 C.2     1  UNL1        0.0510
     10  C          7.8180   -2.0180   -1.9020 C.2     1  UNL1        0.1660
     11  C          8.7330   -1.4630   -2.7700 C.2     1  UNL1        0.1650
     12  O          8.0840   -3.3810   -1.9090 O.2     1  UNL1       -0.4540
     13  O          9.5380   -2.4850   -3.2880 O.2     1  UNL1       -0.4540
     14  C          9.4130   -3.5580   -2.3780 C.3     1  UNL1        0.4680
@<TRIPOS>BOND
     1    13    11    1
     2    13    14    1
     3     9    11    2
     4     9     7    1
     5    11    10    1
     6    14    12    1
     7     7     6    2
     8    12    10    1
     9    10     8    2
    10     6     8    1
    11     6     5    1
    12     5     1    1
    13     1     2    1
    14     2     3    1
    15     2     4    2
