@<TRIPOS>MOLECULE
/home/cewinharhar/GITHUB/reincatalyze/data/processed/docking_pred/2023-May-31-1727_sub9_nm5_bs15_s42_ex16_mel10_mts10000_k50_ec075_g099_lra3e-4_lrc3e-3/96aa1335557473cc7235c71144735280de1f686e_ligand_9.pdbqt
 14 15 0 0 0
SMALL
GASTEIGER

@<TRIPOS>ATOM
      1  C          5.0250    1.7350    0.5540 C.3     1  UNL1        0.0800
      2  C          4.8080    1.0330    1.8320 C.2     1  UNL1        0.1300
      3  C          3.3760    1.0340    2.3400 C.3     1  UNL1        0.0870
      4  O          5.6200    0.4670    2.5080 O.2     1  UNL1       -0.3000
      5  C          6.4150    2.1450    0.2650 C.3     1  UNL1        0.0430
      6  C          7.2350    1.2230   -0.5260 C.2     1  UNL1       -0.0440
      7  C          8.6130    1.3940   -0.6760 C.2     1  UNL1        0.0080
      8  C          6.6570    0.1290   -1.1270 C.2     1  UNL1        0.0540
      9  C          9.3220    0.4770   -1.4080 C.2     1  UNL1        0.0510
     10  C          7.4070   -0.7940   -1.8700 C.2     1  UNL1        0.1660
     11  C          8.7660   -0.6250   -2.0190 C.2     1  UNL1        0.1650
     12  O          7.1020   -1.9570   -2.5680 O.2     1  UNL1       -0.4540
     13  O          9.2680   -1.6760   -2.7970 O.2     1  UNL1       -0.4540
     14  C          8.3030   -2.7030   -2.7050 C.3     1  UNL1        0.4680
@<TRIPOS>BOND
     1    13    14    1
     2    13    11    1
     3    14    12    1
     4    12    10    1
     5    11    10    2
     6    11     9    1
     7    10     8    1
     8     9     7    2
     9     8     6    2
    10     7     6    1
    11     6     5    1
    12     5     1    1
    13     1     2    1
    14     2     3    1
    15     2     4    2
