MODEL 1
REMARK VINA RESULT:      -7.3      0.000      0.000
REMARK SMILES CC(=O)CCc1ccc2c(c1)OCO2
REMARK SMILES IDX 4 1 2 2 1 3 3 4 5 5 6 6 7 7 11 8 8 9 10 10 9 11 12 12 14 13
REMARK SMILES IDX 13 14
REMARK H PARENT
REMARK Flexibility Score: inf
ROOT
ATOM      1  C   UNL     1       5.663   2.105   1.088  1.00  0.00     0.080 C 
ENDROOT
BRANCH   1   2
ATOM      2  C   UNL     1       5.363   0.965   1.974  1.00  0.00     0.130 C 
ATOM      3  C   UNL     1       6.545   0.068   2.300  1.00  0.00     0.087 C 
ATOM      4  O   UNL     1       4.309   0.669   2.460  1.00  0.00    -0.300 OA
ENDBRANCH   1   2
BRANCH   1   5
ATOM      5  C   UNL     1       5.598   1.836  -0.364  1.00  0.00     0.043 C 
BRANCH   5   6
ATOM      6  C   UNL     1       6.682   1.041  -0.947  1.00  0.00    -0.044 A 
ATOM      7  C   UNL     1       8.026   1.379  -0.781  1.00  0.00     0.008 A 
ATOM      8  C   UNL     1       6.392  -0.098  -1.663  1.00  0.00     0.054 A 
ATOM      9  C   UNL     1       8.989   0.574  -1.332  1.00  0.00     0.051 A 
ATOM     10  C   UNL     1       7.398  -0.904  -2.216  1.00  0.00     0.166 A 
ATOM     11  C   UNL     1       8.724  -0.570  -2.053  1.00  0.00     0.165 A 
ATOM     12  O   UNL     1       7.403  -2.075  -2.964  1.00  0.00    -0.454 OA
ATOM     13  O   UNL     1       9.514  -1.531  -2.696  1.00  0.00    -0.454 OA
ATOM     14  C   UNL     1       8.686  -2.669  -2.825  1.00  0.00     0.468 C 
ENDBRANCH   5   6
ENDBRANCH   1   5
TORSDOF 3
ENDMDL
MODEL 2
REMARK VINA RESULT:      -6.9      1.794      2.252
REMARK SMILES CC(=O)CCc1ccc2c(c1)OCO2
REMARK SMILES IDX 4 1 2 2 1 3 3 4 5 5 6 6 7 7 11 8 8 9 10 10 9 11 12 12 14 13
REMARK SMILES IDX 13 14
REMARK H PARENT
REMARK Flexibility Score: inf
ROOT
ATOM      1  C   UNL     1       5.728   1.386  -0.387  1.00  0.00     0.080 C 
ENDROOT
BRANCH   1   2
ATOM      2  C   UNL     1       5.202   1.458   0.988  1.00  0.00     0.130 C 
ATOM      3  C   UNL     1       5.970   0.650   2.021  1.00  0.00     0.087 C 
ATOM      4  O   UNL     1       4.251   2.071   1.380  1.00  0.00    -0.300 OA
ENDBRANCH   1   2
BRANCH   1   5
ATOM      5  C   UNL     1       7.173   1.101  -0.518  1.00  0.00     0.043 C 
BRANCH   5   6
ATOM      6  C   UNL     1       7.551  -0.215  -1.041  1.00  0.00    -0.044 A 
ATOM      7  C   UNL     1       7.738  -0.447  -2.405  1.00  0.00     0.008 A 
ATOM      8  C   UNL     1       7.762  -1.265  -0.178  1.00  0.00     0.054 A 
ATOM      9  C   UNL     1       8.118  -1.697  -2.822  1.00  0.00     0.051 A 
ATOM     10  C   UNL     1       8.152  -2.534  -0.633  1.00  0.00     0.166 A 
ATOM     11  C   UNL     1       8.335  -2.763  -1.978  1.00  0.00     0.165 A 
ATOM     12  O   UNL     1       8.429  -3.746  -0.012  1.00  0.00    -0.454 OA
ATOM     13  O   UNL     1       8.719  -4.098  -2.159  1.00  0.00    -0.454 OA
ATOM     14  C   UNL     1       9.218  -4.516  -0.906  1.00  0.00     0.468 C 
ENDBRANCH   5   6
ENDBRANCH   1   5
TORSDOF 3
ENDMDL
MODEL 3
REMARK VINA RESULT:      -6.9      1.923      2.494
REMARK SMILES CC(=O)CCc1ccc2c(c1)OCO2
REMARK SMILES IDX 4 1 2 2 1 3 3 4 5 5 6 6 7 7 11 8 8 9 10 10 9 11 12 12 14 13
REMARK SMILES IDX 13 14
REMARK H PARENT
REMARK Flexibility Score: inf
ROOT
ATOM      1  C   UNL     1       6.646   0.673   1.452  1.00  0.00     0.080 C 
ENDROOT
BRANCH   1   2
ATOM      2  C   UNL     1       5.268   1.198   1.484  1.00  0.00     0.130 C 
ATOM      3  C   UNL     1       4.908   2.148   0.355  1.00  0.00     0.087 C 
ATOM      4  O   UNL     1       4.411   0.963   2.288  1.00  0.00    -0.300 OA
ENDBRANCH   1   2
BRANCH   1   5
ATOM      5  C   UNL     1       7.352   0.777   0.158  1.00  0.00     0.043 C 
BRANCH   5   6
ATOM      6  C   UNL     1       7.664  -0.475  -0.537  1.00  0.00    -0.044 A 
ATOM      7  C   UNL     1       7.731  -0.555  -1.929  1.00  0.00     0.008 A 
ATOM      8  C   UNL     1       7.931  -1.615   0.184  1.00  0.00     0.054 A 
ATOM      9  C   UNL     1       8.055  -1.753  -2.512  1.00  0.00     0.051 A 
ATOM     10  C   UNL     1       8.261  -2.828  -0.439  1.00  0.00     0.166 A 
ATOM     11  C   UNL     1       8.326  -2.908  -1.813  1.00  0.00     0.165 A 
ATOM     12  O   UNL     1       8.571  -4.103   0.019  1.00  0.00    -0.454 OA
ATOM     13  O   UNL     1       8.672  -4.217  -2.172  1.00  0.00    -0.454 OA
ATOM     14  C   UNL     1       9.269  -4.775  -1.020  1.00  0.00     0.468 C 
ENDBRANCH   5   6
ENDBRANCH   1   5
TORSDOF 3
ENDMDL
MODEL 4
REMARK VINA RESULT:      -6.7      1.115      1.204
REMARK SMILES CC(=O)CCc1ccc2c(c1)OCO2
REMARK SMILES IDX 4 1 2 2 1 3 3 4 5 5 6 6 7 7 11 8 8 9 10 10 9 11 12 12 14 13
REMARK SMILES IDX 13 14
REMARK H PARENT
REMARK Flexibility Score: inf
ROOT
ATOM      1  C   UNL     1       6.288   1.499   0.622  1.00  0.00     0.080 C 
ENDROOT
BRANCH   1   2
ATOM      2  C   UNL     1       5.868   0.715   1.797  1.00  0.00     0.130 C 
ATOM      3  C   UNL     1       6.904  -0.259   2.332  1.00  0.00     0.087 C 
ATOM      4  O   UNL     1       4.817   0.757   2.372  1.00  0.00    -0.300 OA
ENDBRANCH   1   2
BRANCH   1   5
ATOM      5  C   UNL     1       5.873   0.972  -0.695  1.00  0.00     0.043 C 
BRANCH   5   6
ATOM      6  C   UNL     1       6.846   0.159  -1.429  1.00  0.00    -0.044 A 
ATOM      7  C   UNL     1       7.774   0.721  -2.307  1.00  0.00     0.008 A 
ATOM      8  C   UNL     1       6.885  -1.203  -1.242  1.00  0.00     0.054 A 
ATOM      9  C   UNL     1       8.674  -0.097  -2.939  1.00  0.00     0.051 A 
ATOM     10  C   UNL     1       7.818  -2.018  -1.902  1.00  0.00     0.166 A 
ATOM     11  C   UNL     1       8.733  -1.463  -2.770  1.00  0.00     0.165 A 
ATOM     12  O   UNL     1       8.084  -3.381  -1.909  1.00  0.00    -0.454 OA
ATOM     13  O   UNL     1       9.538  -2.485  -3.288  1.00  0.00    -0.454 OA
ATOM     14  C   UNL     1       9.413  -3.558  -2.378  1.00  0.00     0.468 C 
ENDBRANCH   5   6
ENDBRANCH   1   5
TORSDOF 3
ENDMDL
MODEL 5
REMARK VINA RESULT:      -6.5      0.858      1.106
REMARK SMILES CC(=O)CCc1ccc2c(c1)OCO2
REMARK SMILES IDX 4 1 2 2 1 3 3 4 5 5 6 6 7 7 11 8 8 9 10 10 9 11 12 12 14 13
REMARK SMILES IDX 13 14
REMARK H PARENT
REMARK Flexibility Score: inf
ROOT
ATOM      1  C   UNL     1       5.025   1.735   0.554  1.00  0.00     0.080 C 
ENDROOT
BRANCH   1   2
ATOM      2  C   UNL     1       4.808   1.033   1.832  1.00  0.00     0.130 C 
ATOM      3  C   UNL     1       3.376   1.034   2.340  1.00  0.00     0.087 C 
ATOM      4  O   UNL     1       5.620   0.467   2.508  1.00  0.00    -0.300 OA
ENDBRANCH   1   2
BRANCH   1   5
ATOM      5  C   UNL     1       6.415   2.145   0.265  1.00  0.00     0.043 C 
BRANCH   5   6
ATOM      6  C   UNL     1       7.235   1.223  -0.526  1.00  0.00    -0.044 A 
ATOM      7  C   UNL     1       8.613   1.394  -0.676  1.00  0.00     0.008 A 
ATOM      8  C   UNL     1       6.657   0.129  -1.127  1.00  0.00     0.054 A 
ATOM      9  C   UNL     1       9.322   0.477  -1.408  1.00  0.00     0.051 A 
ATOM     10  C   UNL     1       7.407  -0.794  -1.870  1.00  0.00     0.166 A 
ATOM     11  C   UNL     1       8.766  -0.625  -2.019  1.00  0.00     0.165 A 
ATOM     12  O   UNL     1       7.102  -1.957  -2.568  1.00  0.00    -0.454 OA
ATOM     13  O   UNL     1       9.268  -1.676  -2.797  1.00  0.00    -0.454 OA
ATOM     14  C   UNL     1       8.303  -2.703  -2.705  1.00  0.00     0.468 C 
ENDBRANCH   5   6
ENDBRANCH   1   5
TORSDOF 3
ENDMDL
