@<TRIPOS>MOLECULE
/home/cewinharhar/GITHUB/reincatalyze/data/processed/docking_pred/2023-May-31-1727_sub9_nm5_bs15_s42_ex16_mel10_mts10000_k50_ec075_g099_lra3e-4_lrc3e-3/96aa1335557473cc7235c71144735280de1f686e_ligand_9.pdbqt
 14 15 0 0 0
SMALL
GASTEIGER

@<TRIPOS>ATOM
      1  C          5.6630    2.1050    1.0880 C.3     1  UNL1        0.0800
      2  C          5.3630    0.9650    1.9740 C.2     1  UNL1        0.1300
      3  C          6.5450    0.0680    2.3000 C.3     1  UNL1        0.0870
      4  O          4.3090    0.6690    2.4600 O.2     1  UNL1       -0.3000
      5  C          5.5980    1.8360   -0.3640 C.3     1  UNL1        0.0430
      6  C          6.6820    1.0410   -0.9470 C.2     1  UNL1       -0.0440
      7  C          8.0260    1.3790   -0.7810 C.2     1  UNL1        0.0080
      8  C          6.3920   -0.0980   -1.6630 C.2     1  UNL1        0.0540
      9  C          8.9890    0.5740   -1.3320 C.2     1  UNL1        0.0510
     10  C          7.3980   -0.9040   -2.2160 C.2     1  UNL1        0.1660
     11  C          8.7240   -0.5700   -2.0530 C.2     1  UNL1        0.1650
     12  O          7.4030   -2.0750   -2.9640 O.2     1  UNL1       -0.4540
     13  O          9.5140   -1.5310   -2.6960 O.2     1  UNL1       -0.4540
     14  C          8.6860   -2.6690   -2.8250 C.3     1  UNL1        0.4680
@<TRIPOS>BOND
     1    12    14    1
     2    12    10    1
     3    14    13    1
     4    13    11    1
     5    10    11    2
     6    10     8    1
     7    11     9    1
     8     8     6    2
     9     9     7    2
    10     6     7    1
    11     6     5    1
    12     5     1    1
    13     1     2    1
    14     2     3    1
    15     2     4    2
