@<TRIPOS>MOLECULE
/home/cewinharhar/GITHUB/reincatalyze/data/processed/docking_pred/2023-May-31-1727_sub9_nm5_bs15_s42_ex16_mel10_mts10000_k50_ec075_g099_lra3e-4_lrc3e-3/96aa1335557473cc7235c71144735280de1f686e_ligand_9.pdbqt
 14 15 0 0 0
SMALL
GASTEIGER

@<TRIPOS>ATOM
      1  C          5.7280    1.3860   -0.3870 C.3     1  UNL1        0.0800
      2  C          5.2020    1.4580    0.9880 C.2     1  UNL1        0.1300
      3  C          5.9700    0.6500    2.0210 C.3     1  UNL1        0.0870
      4  O          4.2510    2.0710    1.3800 O.2     1  UNL1       -0.3000
      5  C          7.1730    1.1010   -0.5180 C.3     1  UNL1        0.0430
      6  C          7.5510   -0.2150   -1.0410 C.2     1  UNL1       -0.0440
      7  C          7.7380   -0.4470   -2.4050 C.2     1  UNL1        0.0080
      8  C          7.7620   -1.2650   -0.1780 C.2     1  UNL1        0.0540
      9  C          8.1180   -1.6970   -2.8220 C.2     1  UNL1        0.0510
     10  C          8.1520   -2.5340   -0.6330 C.2     1  UNL1        0.1660
     11  C          8.3350   -2.7630   -1.9780 C.2     1  UNL1        0.1650
     12  O          8.4290   -3.7460   -0.0120 O.2     1  UNL1       -0.4540
     13  O          8.7190   -4.0980   -2.1590 O.2     1  UNL1       -0.4540
     14  C          9.2180   -4.5160   -0.9060 C.3     1  UNL1        0.4680
@<TRIPOS>BOND
     1     9     7    1
     2     9    11    2
     3     7     6    2
     4    13    11    1
     5    13    14    1
     6    11    10    1
     7     6     5    1
     8     6     8    1
     9    14    12    1
    10    10     8    2
    11    10    12    1
    12     5     1    1
    13     1     2    1
    14     2     4    2
    15     2     3    1
