@<TRIPOS>MOLECULE
/home/cewinharhar/GITHUB/reincatalyze/data/processed/docking_pred/2023-May-31-1727_sub9_nm5_bs15_s42_ex16_mel10_mts10000_k50_ec075_g099_lra3e-4_lrc3e-3/98143cc994f0f1178ca0c26b4d55a54c550f1343_ligand_9.pdbqt
 14 15 0 0 0
SMALL
GASTEIGER

@<TRIPOS>ATOM
      1  C          9.5820    1.8960    2.2300 C.3     1  UNL1        0.0800
      2  C         10.8580    1.4110    2.7880 C.2     1  UNL1        0.1300
      3  C         11.5360    0.3070    1.9960 C.3     1  UNL1        0.0870
      4  O         11.4150    1.7840    3.7820 O.2     1  UNL1       -0.3000
      5  C          8.4330    0.9720    2.3340 C.3     1  UNL1        0.0430
      6  C          7.9140    0.4050    1.0870 C.2     1  UNL1       -0.0440
      7  C          6.8630    0.9950    0.3820 C.2     1  UNL1        0.0080
      8  C          8.4820   -0.7300    0.5580 C.2     1  UNL1        0.0540
      9  C          6.4460    0.4260   -0.7930 C.2     1  UNL1        0.0510
     10  C          8.0350   -1.2920   -0.6480 C.2     1  UNL1        0.1660
     11  C          6.9980   -0.7100   -1.3430 C.2     1  UNL1        0.1650
     12  O          8.4070   -2.4000   -1.4000 O.2     1  UNL1       -0.4540
     13  O          6.7530   -1.4620   -2.4990 O.2     1  UNL1       -0.4540
     14  C          7.9390   -2.1960   -2.7260 C.3     1  UNL1        0.4680
@<TRIPOS>BOND
     1    14    13    1
     2    14    12    1
     3    13    11    1
     4    12    10    1
     5    11     9    2
     6    11    10    1
     7     9     7    1
     8    10     8    2
     9     7     6    2
    10     8     6    1
    11     6     5    1
    12     3     2    1
    13     1     5    1
    14     1     2    1
    15     2     4    2
