@<TRIPOS>MOLECULE
/home/cewinharhar/GITHUB/reincatalyze/data/processed/docking_pred/2023-May-31-1727_sub9_nm5_bs15_s42_ex16_mel10_mts10000_k50_ec075_g099_lra3e-4_lrc3e-3/98143cc994f0f1178ca0c26b4d55a54c550f1343_ligand_9.pdbqt
 14 15 0 0 0
SMALL
GASTEIGER

@<TRIPOS>ATOM
      1  C          4.8180    1.7290    0.6420 C.3     1  UNL1        0.0800
      2  C          4.4450    1.0370    1.8900 C.2     1  UNL1        0.1300
      3  C          5.3700   -0.0940    2.3070 C.3     1  UNL1        0.0870
      4  O          3.5090    1.2610    2.6030 O.2     1  UNL1       -0.3000
      5  C          6.2300    2.1500    0.5290 C.3     1  UNL1        0.0430
      6  C          7.1140    1.3170   -0.2910 C.2     1  UNL1       -0.0440
      7  C          8.4960    1.5100   -0.3270 C.2     1  UNL1        0.0080
      8  C          6.5920    0.2860   -1.0380 C.2     1  UNL1        0.0540
      9  C          9.2660    0.6750   -1.0950 C.2     1  UNL1        0.0510
     10  C          7.4040   -0.5540   -1.8150 C.2     1  UNL1        0.1660
     11  C          8.7670   -0.3630   -1.8510 C.2     1  UNL1        0.1650
     12  O          7.1620   -1.6420   -2.6460 O.2     1  UNL1       -0.4540
     13  O          9.3350   -1.3270   -2.6940 O.2     1  UNL1       -0.4540
     14  C          8.3780   -2.3640   -2.7720 C.3     1  UNL1        0.4680
@<TRIPOS>BOND
     1    14    13    1
     2    14    12    1
     3    13    11    1
     4    12    10    1
     5    11    10    2
     6    11     9    1
     7    10     8    1
     8     9     7    2
     9     8     6    2
    10     7     6    1
    11     6     5    1
    12     5     1    1
    13     1     2    1
    14     2     3    1
    15     2     4    2
