@<TRIPOS>MOLECULE
/home/cewinharhar/GITHUB/reincatalyze/data/processed/docking_pred/2023-May-31-1727_sub9_nm5_bs15_s42_ex16_mel10_mts10000_k50_ec075_g099_lra3e-4_lrc3e-3/98720eda2f8b5e3d73e45599e80051818594e19a_ligand_9.pdbqt
 14 15 0 0 0
SMALL
GASTEIGER

@<TRIPOS>ATOM
      1  C          6.1750    1.3880    0.7910 C.3     1  UNL1        0.0800
      2  C          5.5860    0.5290    1.8340 C.2     1  UNL1        0.1300
      3  C          6.4560   -0.6310    2.2870 C.3     1  UNL1        0.0870
      4  O          4.5150    0.6390    2.3590 O.2     1  UNL1       -0.3000
      5  C          5.8710    1.0160   -0.6070 C.3     1  UNL1        0.0430
      6  C          6.8770    0.2270   -1.3240 C.2     1  UNL1       -0.0440
      7  C          7.9490    0.8200   -1.9930 C.2     1  UNL1        0.0080
      8  C          6.7990   -1.1460   -1.3300 C.2     1  UNL1        0.0540
      9  C          8.8680    0.0190   -2.6200 C.2     1  UNL1        0.0510
     10  C          7.7540   -1.9420   -1.9810 C.2     1  UNL1        0.1660
     11  C          8.8120   -1.3570   -2.6410 C.2     1  UNL1        0.1650
     12  O          7.9270   -3.3100   -2.1490 O.2     1  UNL1       -0.4540
     13  O          9.6090   -2.3660   -3.1970 O.2     1  UNL1       -0.4540
     14  C          9.2920   -3.5350   -2.4710 C.3     1  UNL1        0.4680
@<TRIPOS>BOND
     1    13    11    1
     2    13    14    1
     3    11     9    2
     4    11    10    1
     5     9     7    1
     6    14    12    1
     7    12    10    1
     8     7     6    2
     9    10     8    2
    10     8     6    1
    11     6     5    1
    12     5     1    1
    13     1     2    1
    14     2     3    1
    15     2     4    2
