@<TRIPOS>MOLECULE
/home/cewinharhar/GITHUB/reincatalyze/data/processed/docking_pred/2023-May-31-1727_sub9_nm5_bs15_s42_ex16_mel10_mts10000_k50_ec075_g099_lra3e-4_lrc3e-3/98720eda2f8b5e3d73e45599e80051818594e19a_ligand_9.pdbqt
 14 15 0 0 0
SMALL
GASTEIGER

@<TRIPOS>ATOM
      1  C          5.9390   -0.0510    2.1810 C.3     1  UNL1        0.0800
      2  C          4.8480    0.8980    1.8970 C.2     1  UNL1        0.1300
      3  C          5.0900    1.8370    0.7280 C.3     1  UNL1        0.0870
      4  O          3.8040    1.0140    2.4750 O.2     1  UNL1       -0.3000
      5  C          7.1980    0.1630    1.4370 C.3     1  UNL1        0.0430
      6  C          7.5330   -0.8100    0.3940 C.2     1  UNL1       -0.0440
      7  C          7.4670   -0.4970   -0.9650 C.2     1  UNL1        0.0080
      8  C          7.9570   -2.0730    0.7390 C.2     1  UNL1        0.0540
      9  C          7.8220   -1.4480   -1.8860 C.2     1  UNL1        0.0510
     10  C          8.3140   -3.0270   -0.2250 C.2     1  UNL1        0.1660
     11  C          8.2480   -2.7180   -1.5660 C.2     1  UNL1        0.1650
     12  O          8.7650   -4.3400   -0.1720 O.2     1  UNL1       -0.4540
     13  O          8.6550   -3.8350   -2.3060 O.2     1  UNL1       -0.4540
     14  C          9.4050   -4.6260   -1.4070 C.3     1  UNL1        0.4680
@<TRIPOS>BOND
     1    13    11    1
     2    13    14    1
     3     9    11    2
     4     9     7    1
     5    11    10    1
     6    14    12    1
     7     7     6    2
     8    10    12    1
     9    10     8    2
    10     6     8    1
    11     6     5    1
    12     3     2    1
    13     5     1    1
    14     2     1    1
    15     2     4    2
