@<TRIPOS>MOLECULE
/home/cewinharhar/GITHUB/reincatalyze/data/processed/docking_pred/2023-May-31-1727_sub9_nm5_bs15_s42_ex16_mel10_mts10000_k50_ec075_g099_lra3e-4_lrc3e-3/98ce2146f260201d1ebb2f82702d5d512d51d1e1_ligand_9.pdbqt
 14 15 0 0 0
SMALL
GASTEIGER

@<TRIPOS>ATOM
      1  C          6.2180    1.2630    0.8640 C.3     1  UNL1        0.0800
      2  C          5.5900    0.4500    1.9210 C.2     1  UNL1        0.1300
      3  C          6.4210   -0.7190    2.4220 C.3     1  UNL1        0.0870
      4  O          4.5140    0.6040    2.4250 O.2     1  UNL1       -0.3000
      5  C          5.8570    0.9150   -0.5270 C.3     1  UNL1        0.0430
      6  C          6.8320    0.1400   -1.2990 C.2     1  UNL1       -0.0440
      7  C          7.7610    0.7470   -2.1470 C.2     1  UNL1        0.0080
      8  C          6.8730   -1.2300   -1.1800 C.2     1  UNL1        0.0540
      9  C          8.6620   -0.0380   -2.8180 C.2     1  UNL1        0.0510
     10  C          7.8080   -2.0090   -1.8790 C.2     1  UNL1        0.1660
     11  C          8.7230   -1.4100   -2.7170 C.2     1  UNL1        0.1650
     12  O          8.0770   -3.3700   -1.9530 O.2     1  UNL1       -0.4540
     13  O          9.5310   -2.4030   -3.2850 O.2     1  UNL1       -0.4540
     14  C          9.4070   -3.5200   -2.4290 C.3     1  UNL1        0.4680
@<TRIPOS>BOND
     1    13    11    1
     2    13    14    1
     3     9    11    2
     4     9     7    1
     5    11    10    1
     6    14    12    1
     7     7     6    2
     8    12    10    1
     9    10     8    2
    10     6     8    1
    11     6     5    1
    12     5     1    1
    13     1     2    1
    14     2     3    1
    15     2     4    2
