@<TRIPOS>MOLECULE
/home/cewinharhar/GITHUB/reincatalyze/data/processed/docking_pred/2023-May-31-1727_sub9_nm5_bs15_s42_ex16_mel10_mts10000_k50_ec075_g099_lra3e-4_lrc3e-3/9c92d7019ca479aa147a964f0da84773825070a7_ligand_9.pdbqt
 14 15 0 0 0
SMALL
GASTEIGER

@<TRIPOS>ATOM
      1  C          5.3410   -0.0280    1.9870 C.3     1  UNL1        0.0800
      2  C          4.4000    1.1000    1.8690 C.2     1  UNL1        0.1300
      3  C          4.7510    2.1310    0.8090 C.3     1  UNL1        0.0870
      4  O          3.4030    1.2960    2.5040 O.2     1  UNL1       -0.3000
      5  C          6.7690    0.2890    1.7740 C.3     1  UNL1        0.0430
      6  C          7.3330   -0.0130    0.4560 C.2     1  UNL1       -0.0440
      7  C          7.9180    0.9690   -0.3460 C.2     1  UNL1        0.0080
      8  C          7.3220   -1.3040   -0.0190 C.2     1  UNL1        0.0540
      9  C          8.4510    0.6100   -1.5570 C.2     1  UNL1        0.0510
     10  C          7.8750   -1.6430   -1.2630 C.2     1  UNL1        0.1660
     11  C          8.4520   -0.6740   -2.0540 C.2     1  UNL1        0.1650
     12  O          8.0050   -2.8270   -1.9780 O.2     1  UNL1       -0.4540
     13  O          8.9220   -1.2740   -3.2300 O.2     1  UNL1       -0.4540
     14  C          9.0490   -2.6470   -2.9240 C.3     1  UNL1        0.4680
@<TRIPOS>BOND
     1    13    14    1
     2    13    11    1
     3    14    12    1
     4    11     9    2
     5    11    10    1
     6    12    10    1
     7     9     7    1
     8    10     8    2
     9     7     6    2
    10     8     6    1
    11     6     5    1
    12     3     2    1
    13     5     1    1
    14     2     1    1
    15     2     4    2
