@<TRIPOS>MOLECULE
/home/cewinharhar/GITHUB/reincatalyze/data/processed/docking_pred/2023-May-31-1727_sub9_nm5_bs15_s42_ex16_mel10_mts10000_k50_ec075_g099_lra3e-4_lrc3e-3/9c92d7019ca479aa147a964f0da84773825070a7_ligand_9.pdbqt
 14 15 0 0 0
SMALL
GASTEIGER

@<TRIPOS>ATOM
      1  C          6.1670    1.2740    0.8660 C.3     1  UNL1        0.0800
      2  C          5.5060    0.4590    1.9020 C.2     1  UNL1        0.1300
      3  C          6.2900   -0.7530    2.3740 C.3     1  UNL1        0.0870
      4  O          4.4360    0.6420    2.4100 O.2     1  UNL1       -0.3000
      5  C          5.8390    0.9360   -0.5350 C.3     1  UNL1        0.0430
      6  C          6.8330    0.1660   -1.2890 C.2     1  UNL1       -0.0440
      7  C          7.8210    0.7810   -2.0600 C.2     1  UNL1        0.0080
      8  C          6.8300   -1.2080   -1.2290 C.2     1  UNL1        0.0540
      9  C          8.7360   -0.0000   -2.7170 C.2     1  UNL1        0.0510
     10  C          7.7790   -1.9840   -1.9130 C.2     1  UNL1        0.1660
     11  C          8.7540   -1.3770   -2.6740 C.2     1  UNL1        0.1650
     12  O          8.0140   -3.3480   -2.0330 O.2     1  UNL1       -0.4540
     13  O          9.5630   -2.3690   -3.2430 O.2     1  UNL1       -0.4540
     14  C          9.3620   -3.5170   -2.4450 C.3     1  UNL1        0.4680
@<TRIPOS>BOND
     1    13    11    1
     2    13    14    1
     3     9    11    2
     4     9     7    1
     5    11    10    1
     6    14    12    1
     7     7     6    2
     8    12    10    1
     9    10     8    2
    10     6     8    1
    11     6     5    1
    12     5     1    1
    13     1     2    1
    14     2     3    1
    15     2     4    2
