@<TRIPOS>MOLECULE
/home/cewinharhar/GITHUB/reincatalyze/data/processed/docking_pred/2023-May-31-1727_sub9_nm5_bs15_s42_ex16_mel10_mts10000_k50_ec075_g099_lra3e-4_lrc3e-3/9c92d7019ca479aa147a964f0da84773825070a7_ligand_9.pdbqt
 14 15 0 0 0
SMALL
GASTEIGER

@<TRIPOS>ATOM
      1  C          5.6850    0.2620    1.7450 C.3     1  UNL1        0.0800
      2  C          4.7960    1.3790    1.3770 C.2     1  UNL1        0.1300
      3  C          5.1900    2.1370    0.1210 C.3     1  UNL1        0.0870
      4  O          3.8100    1.7520    1.9460 O.2     1  UNL1       -0.3000
      5  C          7.0580    0.3150    1.2000 C.3     1  UNL1        0.0430
      6  C          7.4310   -0.7100    0.2220 C.2     1  UNL1       -0.0440
      7  C          7.3790   -0.4790   -1.1540 C.2     1  UNL1        0.0080
      8  C          7.8770   -1.9390    0.6480 C.2     1  UNL1        0.0540
      9  C          7.7690   -1.4750   -2.0120 C.2     1  UNL1        0.0510
     10  C          8.2710   -2.9400   -0.2530 C.2     1  UNL1        0.1660
     11  C          8.2190   -2.7130   -1.6100 C.2     1  UNL1        0.1650
     12  O          8.7490   -4.2370   -0.1150 O.2     1  UNL1       -0.4540
     13  O          8.6620   -3.8620   -2.2770 O.2     1  UNL1       -0.4540
     14  C          9.4150   -4.5800   -1.3220 C.3     1  UNL1        0.4680
@<TRIPOS>BOND
     1    13    11    1
     2    13    14    1
     3     9    11    2
     4     9     7    1
     5    11    10    1
     6    14    12    1
     7     7     6    2
     8    10    12    1
     9    10     8    2
    10     3     2    1
    11     6     8    1
    12     6     5    1
    13     5     1    1
    14     2     1    1
    15     2     4    2
