MODEL 1
REMARK VINA RESULT:      -7.6      0.000      0.000
REMARK SMILES CC(=O)CCc1ccc2c(c1)OCO2
REMARK SMILES IDX 4 1 2 2 1 3 3 4 5 5 6 6 7 7 11 8 8 9 10 10 9 11 12 12 14 13
REMARK SMILES IDX 13 14
REMARK H PARENT
REMARK Flexibility Score: inf
ROOT
ATOM      1  C   UNL     1       5.597   1.873   1.256  1.00  0.00     0.080 C 
ENDROOT
BRANCH   1   2
ATOM      2  C   UNL     1       5.020   0.735   1.995  1.00  0.00     0.130 C 
ATOM      3  C   UNL     1       5.921  -0.482   2.121  1.00  0.00     0.087 C 
ATOM      4  O   UNL     1       3.937   0.661   2.502  1.00  0.00    -0.300 OA
ENDBRANCH   1   2
BRANCH   1   5
ATOM      5  C   UNL     1       5.591   1.763  -0.218  1.00  0.00     0.043 C 
BRANCH   5   6
ATOM      6  C   UNL     1       6.680   1.004  -0.838  1.00  0.00    -0.044 A 
ATOM      7  C   UNL     1       8.019   1.371  -0.693  1.00  0.00     0.008 A 
ATOM      8  C   UNL     1       6.402  -0.128  -1.568  1.00  0.00     0.054 A 
ATOM      9  C   UNL     1       8.989   0.599  -1.279  1.00  0.00     0.051 A 
ATOM     10  C   UNL     1       7.415  -0.900  -2.157  1.00  0.00     0.166 A 
ATOM     11  C   UNL     1       8.736  -0.538  -2.015  1.00  0.00     0.165 A 
ATOM     12  O   UNL     1       7.431  -2.057  -2.926  1.00  0.00    -0.454 OA
ATOM     13  O   UNL     1       9.534  -1.469  -2.693  1.00  0.00    -0.454 OA
ATOM     14  C   UNL     1       8.730  -2.623  -2.824  1.00  0.00     0.468 C 
ENDBRANCH   5   6
ENDBRANCH   1   5
TORSDOF 3
ENDMDL
MODEL 2
REMARK VINA RESULT:      -7.0      1.787      2.243
REMARK SMILES CC(=O)CCc1ccc2c(c1)OCO2
REMARK SMILES IDX 4 1 2 2 1 3 3 4 5 5 6 6 7 7 11 8 8 9 10 10 9 11 12 12 14 13
REMARK SMILES IDX 13 14
REMARK H PARENT
REMARK Flexibility Score: inf
ROOT
ATOM      1  C   UNL     1       5.760   1.479  -0.203  1.00  0.00     0.080 C 
ENDROOT
BRANCH   1   2
ATOM      2  C   UNL     1       5.025   1.346   1.068  1.00  0.00     0.130 C 
ATOM      3  C   UNL     1       5.407   0.145   1.917  1.00  0.00     0.087 C 
ATOM      4  O   UNL     1       4.172   2.066   1.503  1.00  0.00    -0.300 OA
ENDBRANCH   1   2
BRANCH   1   5
ATOM      5  C   UNL     1       7.177   1.059  -0.183  1.00  0.00     0.043 C 
BRANCH   5   6
ATOM      6  C   UNL     1       7.502  -0.229  -0.803  1.00  0.00    -0.044 A 
ATOM      7  C   UNL     1       7.522  -0.404  -2.188  1.00  0.00     0.008 A 
ATOM      8  C   UNL     1       7.829  -1.309  -0.016  1.00  0.00     0.054 A 
ATOM      9  C   UNL     1       7.862  -1.630  -2.699  1.00  0.00     0.051 A 
ATOM     10  C   UNL     1       8.174  -2.553  -0.567  1.00  0.00     0.166 A 
ATOM     11  C   UNL     1       8.193  -2.726  -1.933  1.00  0.00     0.165 A 
ATOM     12  O   UNL     1       8.538  -3.783  -0.035  1.00  0.00    -0.454 OA
ATOM     13  O   UNL     1       8.565  -4.046  -2.215  1.00  0.00    -0.454 OA
ATOM     14  C   UNL     1       9.220  -4.506  -1.050  1.00  0.00     0.468 C 
ENDBRANCH   5   6
ENDBRANCH   1   5
TORSDOF 3
ENDMDL
MODEL 3
REMARK VINA RESULT:      -7.0      1.045      1.116
REMARK SMILES CC(=O)CCc1ccc2c(c1)OCO2
REMARK SMILES IDX 4 1 2 2 1 3 3 4 5 5 6 6 7 7 11 8 8 9 10 10 9 11 12 12 14 13
REMARK SMILES IDX 13 14
REMARK H PARENT
REMARK Flexibility Score: inf
ROOT
ATOM      1  C   UNL     1       6.167   1.274   0.866  1.00  0.00     0.080 C 
ENDROOT
BRANCH   1   2
ATOM      2  C   UNL     1       5.506   0.459   1.902  1.00  0.00     0.130 C 
ATOM      3  C   UNL     1       6.290  -0.753   2.374  1.00  0.00     0.087 C 
ATOM      4  O   UNL     1       4.436   0.642   2.410  1.00  0.00    -0.300 OA
ENDBRANCH   1   2
BRANCH   1   5
ATOM      5  C   UNL     1       5.839   0.936  -0.535  1.00  0.00     0.043 C 
BRANCH   5   6
ATOM      6  C   UNL     1       6.833   0.166  -1.289  1.00  0.00    -0.044 A 
ATOM      7  C   UNL     1       7.821   0.781  -2.060  1.00  0.00     0.008 A 
ATOM      8  C   UNL     1       6.830  -1.208  -1.229  1.00  0.00     0.054 A 
ATOM      9  C   UNL     1       8.736  -0.000  -2.717  1.00  0.00     0.051 A 
ATOM     10  C   UNL     1       7.779  -1.984  -1.913  1.00  0.00     0.166 A 
ATOM     11  C   UNL     1       8.754  -1.377  -2.674  1.00  0.00     0.165 A 
ATOM     12  O   UNL     1       8.014  -3.348  -2.033  1.00  0.00    -0.454 OA
ATOM     13  O   UNL     1       9.563  -2.369  -3.243  1.00  0.00    -0.454 OA
ATOM     14  C   UNL     1       9.362  -3.517  -2.445  1.00  0.00     0.468 C 
ENDBRANCH   5   6
ENDBRANCH   1   5
TORSDOF 3
ENDMDL
MODEL 4
REMARK VINA RESULT:      -6.7      1.099      1.595
REMARK SMILES CC(=O)CCc1ccc2c(c1)OCO2
REMARK SMILES IDX 4 1 2 2 1 3 3 4 5 5 6 6 7 7 11 8 8 9 10 10 9 11 12 12 14 13
REMARK SMILES IDX 13 14
REMARK H PARENT
REMARK Flexibility Score: inf
ROOT
ATOM      1  C   UNL     1       5.341  -0.028   1.987  1.00  0.00     0.080 C 
ENDROOT
BRANCH   1   2
ATOM      2  C   UNL     1       4.400   1.100   1.869  1.00  0.00     0.130 C 
ATOM      3  C   UNL     1       4.751   2.131   0.809  1.00  0.00     0.087 C 
ATOM      4  O   UNL     1       3.403   1.296   2.504  1.00  0.00    -0.300 OA
ENDBRANCH   1   2
BRANCH   1   5
ATOM      5  C   UNL     1       6.769   0.289   1.774  1.00  0.00     0.043 C 
BRANCH   5   6
ATOM      6  C   UNL     1       7.333  -0.013   0.456  1.00  0.00    -0.044 A 
ATOM      7  C   UNL     1       7.918   0.969  -0.346  1.00  0.00     0.008 A 
ATOM      8  C   UNL     1       7.322  -1.304  -0.019  1.00  0.00     0.054 A 
ATOM      9  C   UNL     1       8.451   0.610  -1.557  1.00  0.00     0.051 A 
ATOM     10  C   UNL     1       7.875  -1.643  -1.263  1.00  0.00     0.166 A 
ATOM     11  C   UNL     1       8.452  -0.674  -2.054  1.00  0.00     0.165 A 
ATOM     12  O   UNL     1       8.005  -2.827  -1.978  1.00  0.00    -0.454 OA
ATOM     13  O   UNL     1       8.922  -1.274  -3.230  1.00  0.00    -0.454 OA
ATOM     14  C   UNL     1       9.049  -2.647  -2.924  1.00  0.00     0.468 C 
ENDBRANCH   5   6
ENDBRANCH   1   5
TORSDOF 3
ENDMDL
MODEL 5
REMARK VINA RESULT:      -6.7      1.991      2.529
REMARK SMILES CC(=O)CCc1ccc2c(c1)OCO2
REMARK SMILES IDX 4 1 2 2 1 3 3 4 5 5 6 6 7 7 11 8 8 9 10 10 9 11 12 12 14 13
REMARK SMILES IDX 13 14
REMARK H PARENT
REMARK Flexibility Score: inf
ROOT
ATOM      1  C   UNL     1       5.685   0.262   1.745  1.00  0.00     0.080 C 
ENDROOT
BRANCH   1   2
ATOM      2  C   UNL     1       4.796   1.379   1.377  1.00  0.00     0.130 C 
ATOM      3  C   UNL     1       5.190   2.137   0.121  1.00  0.00     0.087 C 
ATOM      4  O   UNL     1       3.810   1.752   1.946  1.00  0.00    -0.300 OA
ENDBRANCH   1   2
BRANCH   1   5
ATOM      5  C   UNL     1       7.058   0.315   1.200  1.00  0.00     0.043 C 
BRANCH   5   6
ATOM      6  C   UNL     1       7.431  -0.710   0.222  1.00  0.00    -0.044 A 
ATOM      7  C   UNL     1       7.379  -0.479  -1.154  1.00  0.00     0.008 A 
ATOM      8  C   UNL     1       7.877  -1.939   0.648  1.00  0.00     0.054 A 
ATOM      9  C   UNL     1       7.769  -1.475  -2.012  1.00  0.00     0.051 A 
ATOM     10  C   UNL     1       8.271  -2.940  -0.253  1.00  0.00     0.166 A 
ATOM     11  C   UNL     1       8.219  -2.713  -1.610  1.00  0.00     0.165 A 
ATOM     12  O   UNL     1       8.749  -4.237  -0.115  1.00  0.00    -0.454 OA
ATOM     13  O   UNL     1       8.662  -3.862  -2.277  1.00  0.00    -0.454 OA
ATOM     14  C   UNL     1       9.415  -4.580  -1.322  1.00  0.00     0.468 C 
ENDBRANCH   5   6
ENDBRANCH   1   5
TORSDOF 3
ENDMDL
