@<TRIPOS>MOLECULE
/home/cewinharhar/GITHUB/reincatalyze/data/processed/docking_pred/2023-May-31-1727_sub9_nm5_bs15_s42_ex16_mel10_mts10000_k50_ec075_g099_lra3e-4_lrc3e-3/9c92d7019ca479aa147a964f0da84773825070a7_ligand_9.pdbqt
 14 15 0 0 0
SMALL
GASTEIGER

@<TRIPOS>ATOM
      1  C          5.7600    1.4790   -0.2030 C.3     1  UNL1        0.0800
      2  C          5.0250    1.3460    1.0680 C.2     1  UNL1        0.1300
      3  C          5.4070    0.1450    1.9170 C.3     1  UNL1        0.0870
      4  O          4.1720    2.0660    1.5030 O.2     1  UNL1       -0.3000
      5  C          7.1770    1.0590   -0.1830 C.3     1  UNL1        0.0430
      6  C          7.5020   -0.2290   -0.8030 C.2     1  UNL1       -0.0440
      7  C          7.5220   -0.4040   -2.1880 C.2     1  UNL1        0.0080
      8  C          7.8290   -1.3090   -0.0160 C.2     1  UNL1        0.0540
      9  C          7.8620   -1.6300   -2.6990 C.2     1  UNL1        0.0510
     10  C          8.1740   -2.5530   -0.5670 C.2     1  UNL1        0.1660
     11  C          8.1930   -2.7260   -1.9330 C.2     1  UNL1        0.1650
     12  O          8.5380   -3.7830   -0.0350 O.2     1  UNL1       -0.4540
     13  O          8.5650   -4.0460   -2.2150 O.2     1  UNL1       -0.4540
     14  C          9.2200   -4.5060   -1.0500 C.3     1  UNL1        0.4680
@<TRIPOS>BOND
     1     9     7    1
     2     9    11    2
     3    13    11    1
     4    13    14    1
     5     7     6    2
     6    11    10    1
     7    14    12    1
     8     6     5    1
     9     6     8    1
    10    10    12    1
    11    10     8    2
    12     1     5    1
    13     1     2    1
    14     2     4    2
    15     2     3    1
