@<TRIPOS>MOLECULE
/home/cewinharhar/GITHUB/reincatalyze/data/processed/docking_pred/2023-May-31-1727_sub9_nm5_bs15_s42_ex16_mel10_mts10000_k50_ec075_g099_lra3e-4_lrc3e-3/9cf679a9c5542d052f5b9fd38195e755841f8057_ligand_9.pdbqt
 14 15 0 0 0
SMALL
GASTEIGER

@<TRIPOS>ATOM
      1  C          5.3620   -0.0490    1.9580 C.3     1  UNL1        0.0800
      2  C          4.4100    1.0720    1.8540 C.2     1  UNL1        0.1300
      3  C          4.7360    2.1050    0.7900 C.3     1  UNL1        0.0870
      4  O          3.4210    1.2580    2.5040 O.2     1  UNL1       -0.3000
      5  C          6.7810    0.2760    1.7000 C.3     1  UNL1        0.0430
      6  C          7.3190   -0.0680    0.3810 C.2     1  UNL1       -0.0440
      7  C          7.7360    0.9040   -0.5300 C.2     1  UNL1        0.0080
      8  C          7.4520   -1.3880    0.0150 C.2     1  UNL1        0.0540
      9  C          8.2550    0.5080   -1.7350 C.2     1  UNL1        0.0510
     10  C          7.9870   -1.7640   -1.2260 C.2     1  UNL1        0.1660
     11  C          8.3990   -0.8050   -2.1250 C.2     1  UNL1        0.1650
     12  O          8.2350   -2.9820   -1.8480 O.2     1  UNL1       -0.4540
     13  O          8.8870   -1.4430   -3.2720 O.2     1  UNL1       -0.4540
     14  C          9.2030   -2.7570   -2.8620 C.3     1  UNL1        0.4680
@<TRIPOS>BOND
     1    13    14    1
     2    13    11    1
     3    14    12    1
     4    11     9    2
     5    11    10    1
     6    12    10    1
     7     9     7    1
     8    10     8    2
     9     7     6    2
    10     8     6    1
    11     6     5    1
    12     3     2    1
    13     5     1    1
    14     2     1    1
    15     2     4    2
