@<TRIPOS>MOLECULE
/home/cewinharhar/GITHUB/reincatalyze/data/processed/docking_pred/2023-May-31-1727_sub9_nm5_bs15_s42_ex16_mel10_mts10000_k50_ec075_g099_lra3e-4_lrc3e-3/9cf679a9c5542d052f5b9fd38195e755841f8057_ligand_9.pdbqt
 14 15 0 0 0
SMALL
GASTEIGER

@<TRIPOS>ATOM
      1  C          6.1800    1.2240    0.9180 C.3     1  UNL1        0.0800
      2  C          5.5060    0.3890    1.9290 C.2     1  UNL1        0.1300
      3  C          6.2740   -0.8450    2.3700 C.3     1  UNL1        0.0870
      4  O          4.4350    0.5690    2.4360 O.2     1  UNL1       -0.3000
      5  C          5.8630    0.9210   -0.4940 C.3     1  UNL1        0.0430
      6  C          6.8550    0.1570   -1.2550 C.2     1  UNL1       -0.0440
      7  C          7.8550    0.7760   -2.0070 C.2     1  UNL1        0.0080
      8  C          6.8390   -1.2180   -1.2210 C.2     1  UNL1        0.0540
      9  C          8.7670   -0.0010   -2.6720 C.2     1  UNL1        0.0510
     10  C          7.7860   -1.9900   -1.9120 C.2     1  UNL1        0.1660
     11  C          8.7720   -1.3780   -2.6540 C.2     1  UNL1        0.1650
     12  O          8.0090   -3.3540   -2.0560 O.2     1  UNL1       -0.4540
     13  O          9.5760   -2.3670   -3.2360 O.2     1  UNL1       -0.4540
     14  C          9.3590   -3.5280   -2.4610 C.3     1  UNL1        0.4680
@<TRIPOS>BOND
     1    13    11    1
     2    13    14    1
     3     9    11    2
     4     9     7    1
     5    11    10    1
     6    14    12    1
     7    12    10    1
     8     7     6    2
     9    10     8    2
    10     6     8    1
    11     6     5    1
    12     5     1    1
    13     1     2    1
    14     2     3    1
    15     2     4    2
