MODEL 1
REMARK VINA RESULT:      -7.6      0.000      0.000
REMARK SMILES CC(=O)CCc1ccc2c(c1)OCO2
REMARK SMILES IDX 4 1 2 2 1 3 3 4 5 5 6 6 7 7 11 8 8 9 10 10 9 11 12 12 14 13
REMARK SMILES IDX 13 14
REMARK H PARENT
REMARK Flexibility Score: inf
ROOT
ATOM      1  C   UNL     1       5.618   1.862   1.255  1.00  0.00     0.080 C 
ENDROOT
BRANCH   1   2
ATOM      2  C   UNL     1       5.062   0.723   2.007  1.00  0.00     0.130 C 
ATOM      3  C   UNL     1       5.994  -0.465   2.172  1.00  0.00     0.087 C 
ATOM      4  O   UNL     1       3.973   0.628   2.499  1.00  0.00    -0.300 OA
ENDBRANCH   1   2
BRANCH   1   5
ATOM      5  C   UNL     1       5.602   1.740  -0.218  1.00  0.00     0.043 C 
BRANCH   5   6
ATOM      6  C   UNL     1       6.693   0.986  -0.841  1.00  0.00    -0.044 A 
ATOM      7  C   UNL     1       8.033   1.346  -0.680  1.00  0.00     0.008 A 
ATOM      8  C   UNL     1       6.417  -0.134  -1.590  1.00  0.00     0.054 A 
ATOM      9  C   UNL     1       9.004   0.579  -1.269  1.00  0.00     0.051 A 
ATOM     10  C   UNL     1       7.432  -0.902  -2.181  1.00  0.00     0.166 A 
ATOM     11  C   UNL     1       8.753  -0.546  -2.023  1.00  0.00     0.165 A 
ATOM     12  O   UNL     1       7.451  -2.047  -2.967  1.00  0.00    -0.454 OA
ATOM     13  O   UNL     1       9.553  -1.470  -2.708  1.00  0.00    -0.454 OA
ATOM     14  C   UNL     1       8.747  -2.619  -2.863  1.00  0.00     0.468 C 
ENDBRANCH   5   6
ENDBRANCH   1   5
TORSDOF 3
ENDMDL
MODEL 2
REMARK VINA RESULT:      -7.0      1.809      2.275
REMARK SMILES CC(=O)CCc1ccc2c(c1)OCO2
REMARK SMILES IDX 4 1 2 2 1 3 3 4 5 5 6 6 7 7 11 8 8 9 10 10 9 11 12 12 14 13
REMARK SMILES IDX 13 14
REMARK H PARENT
REMARK Flexibility Score: inf
ROOT
ATOM      1  C   UNL     1       5.751   1.413  -0.273  1.00  0.00     0.080 C 
ENDROOT
BRANCH   1   2
ATOM      2  C   UNL     1       5.106   1.338   1.050  1.00  0.00     0.130 C 
ATOM      3  C   UNL     1       5.518   0.153   1.908  1.00  0.00     0.087 C 
ATOM      4  O   UNL     1       4.305   2.093   1.522  1.00  0.00    -0.300 OA
ENDBRANCH   1   2
BRANCH   1   5
ATOM      5  C   UNL     1       7.183   1.048  -0.321  1.00  0.00     0.043 C 
BRANCH   5   6
ATOM      6  C   UNL     1       7.523  -0.254  -0.903  1.00  0.00    -0.044 A 
ATOM      7  C   UNL     1       7.594  -0.456  -2.283  1.00  0.00     0.008 A 
ATOM      8  C   UNL     1       7.812  -1.320  -0.084  1.00  0.00     0.054 A 
ATOM      9  C   UNL     1       7.945  -1.693  -2.758  1.00  0.00     0.051 A 
ATOM     10  C   UNL     1       8.169  -2.576  -0.598  1.00  0.00     0.166 A 
ATOM     11  C   UNL     1       8.239  -2.776  -1.959  1.00  0.00     0.165 A 
ATOM     12  O   UNL     1       8.505  -3.799  -0.029  1.00  0.00    -0.454 OA
ATOM     13  O   UNL     1       8.613  -4.104  -2.200  1.00  0.00    -0.454 OA
ATOM     14  C   UNL     1       9.219  -4.545  -1.003  1.00  0.00     0.468 C 
ENDBRANCH   5   6
ENDBRANCH   1   5
TORSDOF 3
ENDMDL
MODEL 3
REMARK VINA RESULT:      -6.9      1.037      1.104
REMARK SMILES CC(=O)CCc1ccc2c(c1)OCO2
REMARK SMILES IDX 4 1 2 2 1 3 3 4 5 5 6 6 7 7 11 8 8 9 10 10 9 11 12 12 14 13
REMARK SMILES IDX 13 14
REMARK H PARENT
REMARK Flexibility Score: inf
ROOT
ATOM      1  C   UNL     1       6.180   1.224   0.918  1.00  0.00     0.080 C 
ENDROOT
BRANCH   1   2
ATOM      2  C   UNL     1       5.506   0.389   1.929  1.00  0.00     0.130 C 
ATOM      3  C   UNL     1       6.274  -0.845   2.370  1.00  0.00     0.087 C 
ATOM      4  O   UNL     1       4.435   0.569   2.436  1.00  0.00    -0.300 OA
ENDBRANCH   1   2
BRANCH   1   5
ATOM      5  C   UNL     1       5.863   0.921  -0.494  1.00  0.00     0.043 C 
BRANCH   5   6
ATOM      6  C   UNL     1       6.855   0.157  -1.255  1.00  0.00    -0.044 A 
ATOM      7  C   UNL     1       7.855   0.776  -2.007  1.00  0.00     0.008 A 
ATOM      8  C   UNL     1       6.839  -1.218  -1.221  1.00  0.00     0.054 A 
ATOM      9  C   UNL     1       8.767  -0.001  -2.672  1.00  0.00     0.051 A 
ATOM     10  C   UNL     1       7.786  -1.990  -1.912  1.00  0.00     0.166 A 
ATOM     11  C   UNL     1       8.772  -1.378  -2.654  1.00  0.00     0.165 A 
ATOM     12  O   UNL     1       8.009  -3.354  -2.056  1.00  0.00    -0.454 OA
ATOM     13  O   UNL     1       9.576  -2.367  -3.236  1.00  0.00    -0.454 OA
ATOM     14  C   UNL     1       9.359  -3.528  -2.461  1.00  0.00     0.468 C 
ENDBRANCH   5   6
ENDBRANCH   1   5
TORSDOF 3
ENDMDL
MODEL 4
REMARK VINA RESULT:      -6.8      1.835      2.351
REMARK SMILES CC(=O)CCc1ccc2c(c1)OCO2
REMARK SMILES IDX 4 1 2 2 1 3 3 4 5 5 6 6 7 7 11 8 8 9 10 10 9 11 12 12 14 13
REMARK SMILES IDX 13 14
REMARK H PARENT
REMARK Flexibility Score: inf
ROOT
ATOM      1  C   UNL     1       6.857   1.106   1.403  1.00  0.00     0.080 C 
ENDROOT
BRANCH   1   2
ATOM      2  C   UNL     1       5.387   1.211   1.427  1.00  0.00     0.130 C 
ATOM      3  C   UNL     1       4.785   2.150   0.395  1.00  0.00     0.087 C 
ATOM      4  O   UNL     1       4.621   0.648   2.156  1.00  0.00    -0.300 OA
ENDBRANCH   1   2
BRANCH   1   5
ATOM      5  C   UNL     1       7.492   1.149   0.069  1.00  0.00     0.043 C 
BRANCH   5   6
ATOM      6  C   UNL     1       7.718  -0.132  -0.607  1.00  0.00    -0.044 A 
ATOM      7  C   UNL     1       7.718  -0.249  -1.998  1.00  0.00     0.008 A 
ATOM      8  C   UNL     1       7.968  -1.265   0.131  1.00  0.00     0.054 A 
ATOM      9  C   UNL     1       7.963  -1.473  -2.564  1.00  0.00     0.051 A 
ATOM     10  C   UNL     1       8.217  -2.506  -0.474  1.00  0.00     0.166 A 
ATOM     11  C   UNL     1       8.216  -2.622  -1.847  1.00  0.00     0.165 A 
ATOM     12  O   UNL     1       8.492  -3.782   0.002  1.00  0.00    -0.454 OA
ATOM     13  O   UNL     1       8.488  -3.954  -2.187  1.00  0.00    -0.454 OA
ATOM     14  C   UNL     1       9.113  -4.509  -1.048  1.00  0.00     0.468 C 
ENDBRANCH   5   6
ENDBRANCH   1   5
TORSDOF 3
ENDMDL
MODEL 5
REMARK VINA RESULT:      -6.7      1.177      1.647
REMARK SMILES CC(=O)CCc1ccc2c(c1)OCO2
REMARK SMILES IDX 4 1 2 2 1 3 3 4 5 5 6 6 7 7 11 8 8 9 10 10 9 11 12 12 14 13
REMARK SMILES IDX 13 14
REMARK H PARENT
REMARK Flexibility Score: inf
ROOT
ATOM      1  C   UNL     1       5.362  -0.049   1.958  1.00  0.00     0.080 C 
ENDROOT
BRANCH   1   2
ATOM      2  C   UNL     1       4.410   1.072   1.854  1.00  0.00     0.130 C 
ATOM      3  C   UNL     1       4.736   2.105   0.790  1.00  0.00     0.087 C 
ATOM      4  O   UNL     1       3.421   1.258   2.504  1.00  0.00    -0.300 OA
ENDBRANCH   1   2
BRANCH   1   5
ATOM      5  C   UNL     1       6.781   0.276   1.700  1.00  0.00     0.043 C 
BRANCH   5   6
ATOM      6  C   UNL     1       7.319  -0.068   0.381  1.00  0.00    -0.044 A 
ATOM      7  C   UNL     1       7.736   0.904  -0.530  1.00  0.00     0.008 A 
ATOM      8  C   UNL     1       7.452  -1.388   0.015  1.00  0.00     0.054 A 
ATOM      9  C   UNL     1       8.255   0.508  -1.735  1.00  0.00     0.051 A 
ATOM     10  C   UNL     1       7.987  -1.764  -1.226  1.00  0.00     0.166 A 
ATOM     11  C   UNL     1       8.399  -0.805  -2.125  1.00  0.00     0.165 A 
ATOM     12  O   UNL     1       8.235  -2.982  -1.848  1.00  0.00    -0.454 OA
ATOM     13  O   UNL     1       8.887  -1.443  -3.272  1.00  0.00    -0.454 OA
ATOM     14  C   UNL     1       9.203  -2.757  -2.862  1.00  0.00     0.468 C 
ENDBRANCH   5   6
ENDBRANCH   1   5
TORSDOF 3
ENDMDL
