@<TRIPOS>MOLECULE
/home/cewinharhar/GITHUB/reincatalyze/data/processed/docking_pred/2023-May-31-1727_sub9_nm5_bs15_s42_ex16_mel10_mts10000_k50_ec075_g099_lra3e-4_lrc3e-3/9cf679a9c5542d052f5b9fd38195e755841f8057_ligand_9.pdbqt
 14 15 0 0 0
SMALL
GASTEIGER

@<TRIPOS>ATOM
      1  C          5.6180    1.8620    1.2550 C.3     1  UNL1        0.0800
      2  C          5.0620    0.7230    2.0070 C.2     1  UNL1        0.1300
      3  C          5.9940   -0.4650    2.1720 C.3     1  UNL1        0.0870
      4  O          3.9730    0.6280    2.4990 O.2     1  UNL1       -0.3000
      5  C          5.6020    1.7400   -0.2180 C.3     1  UNL1        0.0430
      6  C          6.6930    0.9860   -0.8410 C.2     1  UNL1       -0.0440
      7  C          8.0330    1.3460   -0.6800 C.2     1  UNL1        0.0080
      8  C          6.4170   -0.1340   -1.5900 C.2     1  UNL1        0.0540
      9  C          9.0040    0.5790   -1.2690 C.2     1  UNL1        0.0510
     10  C          7.4320   -0.9020   -2.1810 C.2     1  UNL1        0.1660
     11  C          8.7530   -0.5460   -2.0230 C.2     1  UNL1        0.1650
     12  O          7.4510   -2.0470   -2.9670 O.2     1  UNL1       -0.4540
     13  O          9.5530   -1.4700   -2.7080 O.2     1  UNL1       -0.4540
     14  C          8.7470   -2.6190   -2.8630 C.3     1  UNL1        0.4680
@<TRIPOS>BOND
     1    12    14    1
     2    12    10    1
     3    14    13    1
     4    13    11    1
     5    10    11    2
     6    10     8    1
     7    11     9    1
     8     8     6    2
     9     9     7    2
    10     6     7    1
    11     6     5    1
    12     5     1    1
    13     1     2    1
    14     2     3    1
    15     2     4    2
