@<TRIPOS>MOLECULE
/home/cewinharhar/GITHUB/reincatalyze/data/processed/docking_pred/2023-May-31-1727_sub9_nm5_bs15_s42_ex16_mel10_mts10000_k50_ec075_g099_lra3e-4_lrc3e-3/9cf679a9c5542d052f5b9fd38195e755841f8057_ligand_9.pdbqt
 14 15 0 0 0
SMALL
GASTEIGER

@<TRIPOS>ATOM
      1  C          5.7510    1.4130   -0.2730 C.3     1  UNL1        0.0800
      2  C          5.1060    1.3380    1.0500 C.2     1  UNL1        0.1300
      3  C          5.5180    0.1530    1.9080 C.3     1  UNL1        0.0870
      4  O          4.3050    2.0930    1.5220 O.2     1  UNL1       -0.3000
      5  C          7.1830    1.0480   -0.3210 C.3     1  UNL1        0.0430
      6  C          7.5230   -0.2540   -0.9030 C.2     1  UNL1       -0.0440
      7  C          7.5940   -0.4560   -2.2830 C.2     1  UNL1        0.0080
      8  C          7.8120   -1.3200   -0.0840 C.2     1  UNL1        0.0540
      9  C          7.9450   -1.6930   -2.7580 C.2     1  UNL1        0.0510
     10  C          8.1690   -2.5760   -0.5980 C.2     1  UNL1        0.1660
     11  C          8.2390   -2.7760   -1.9590 C.2     1  UNL1        0.1650
     12  O          8.5050   -3.7990   -0.0290 O.2     1  UNL1       -0.4540
     13  O          8.6130   -4.1040   -2.2000 O.2     1  UNL1       -0.4540
     14  C          9.2190   -4.5450   -1.0030 C.3     1  UNL1        0.4680
@<TRIPOS>BOND
     1     9     7    1
     2     9    11    2
     3     7     6    2
     4    13    11    1
     5    13    14    1
     6    11    10    1
     7    14    12    1
     8     6     5    1
     9     6     8    1
    10    10     8    2
    11    10    12    1
    12     5     1    1
    13     1     2    1
    14     2     4    2
    15     2     3    1
