@<TRIPOS>MOLECULE
/home/cewinharhar/GITHUB/reincatalyze/data/processed/docking_pred/2023-May-31-1727_sub9_nm5_bs15_s42_ex16_mel10_mts10000_k50_ec075_g099_lra3e-4_lrc3e-3/9cf679a9c5542d052f5b9fd38195e755841f8057_ligand_9.pdbqt
 14 15 0 0 0
SMALL
GASTEIGER

@<TRIPOS>ATOM
      1  C          6.8570    1.1060    1.4030 C.3     1  UNL1        0.0800
      2  C          5.3870    1.2110    1.4270 C.2     1  UNL1        0.1300
      3  C          4.7850    2.1500    0.3950 C.3     1  UNL1        0.0870
      4  O          4.6210    0.6480    2.1560 O.2     1  UNL1       -0.3000
      5  C          7.4920    1.1490    0.0690 C.3     1  UNL1        0.0430
      6  C          7.7180   -0.1320   -0.6070 C.2     1  UNL1       -0.0440
      7  C          7.7180   -0.2490   -1.9980 C.2     1  UNL1        0.0080
      8  C          7.9680   -1.2650    0.1310 C.2     1  UNL1        0.0540
      9  C          7.9630   -1.4730   -2.5640 C.2     1  UNL1        0.0510
     10  C          8.2170   -2.5060   -0.4740 C.2     1  UNL1        0.1660
     11  C          8.2160   -2.6220   -1.8470 C.2     1  UNL1        0.1650
     12  O          8.4920   -3.7820    0.0020 O.2     1  UNL1       -0.4540
     13  O          8.4880   -3.9540   -2.1870 O.2     1  UNL1       -0.4540
     14  C          9.1130   -4.5090   -1.0480 C.3     1  UNL1        0.4680
@<TRIPOS>BOND
     1     9     7    1
     2     9    11    2
     3    13    11    1
     4    13    14    1
     5     7     6    2
     6    11    10    1
     7    14    12    1
     8     6     5    1
     9     6     8    1
    10    10    12    1
    11    10     8    2
    12     5     1    1
    13     3     2    1
    14     1     2    1
    15     2     4    2
