@<TRIPOS>MOLECULE
/home/cewinharhar/GITHUB/reincatalyze/data/processed/docking_pred/2023-May-31-1727_sub9_nm5_bs15_s42_ex16_mel10_mts10000_k50_ec075_g099_lra3e-4_lrc3e-3/9e84da39940fbf52c14041387ed86711ced3ccb2_ligand_9.pdbqt
 14 15 0 0 0
SMALL
GASTEIGER

@<TRIPOS>ATOM
      1  C          5.5810    1.9060    1.2140 C.3     1  UNL1        0.0800
      2  C          5.0930    0.7610    2.0040 C.2     1  UNL1        0.1300
      3  C          6.0850   -0.3750    2.1820 C.3     1  UNL1        0.0870
      4  O          4.0180    0.6250    2.5150 O.2     1  UNL1       -0.3000
      5  C          5.5580    1.7420   -0.2540 C.3     1  UNL1        0.0430
      6  C          6.6600    0.9930   -0.8630 C.2     1  UNL1       -0.0440
      7  C          7.9960    1.3560   -0.6820 C.2     1  UNL1        0.0080
      8  C          6.3980   -0.1260   -1.6200 C.2     1  UNL1        0.0540
      9  C          8.9780    0.5930   -1.2580 C.2     1  UNL1        0.0510
     10  C          7.4230   -0.8890   -2.1980 C.2     1  UNL1        0.1660
     11  C          8.7410   -0.5300   -2.0200 C.2     1  UNL1        0.1650
     12  O          7.4560   -2.0320   -2.9870 O.2     1  UNL1       -0.4540
     13  O          9.5530   -1.4500   -2.6960 O.2     1  UNL1       -0.4540
     14  C          8.7520   -2.6010   -2.8660 C.3     1  UNL1        0.4680
@<TRIPOS>BOND
     1    12    14    1
     2    12    10    1
     3    14    13    1
     4    13    11    1
     5    10    11    2
     6    10     8    1
     7    11     9    1
     8     8     6    2
     9     9     7    2
    10     6     7    1
    11     6     5    1
    12     5     1    1
    13     1     2    1
    14     2     3    1
    15     2     4    2
