@<TRIPOS>MOLECULE
/home/cewinharhar/GITHUB/reincatalyze/data/processed/docking_pred/2023-May-31-1727_sub9_nm5_bs15_s42_ex16_mel10_mts10000_k50_ec075_g099_lra3e-4_lrc3e-3/9fad910e57fbde25b93c61ef9d3287f531a6e420_ligand_9.pdbqt
 14 15 0 0 0
SMALL
GASTEIGER

@<TRIPOS>ATOM
      1  C          5.5430    1.8880    1.2210 C.3     1  UNL1        0.0800
      2  C          5.0070    0.7510    1.9910 C.2     1  UNL1        0.1300
      3  C          5.9440   -0.4360    2.1330 C.3     1  UNL1        0.0870
      4  O          3.9320    0.6560    2.5120 O.2     1  UNL1       -0.3000
      5  C          5.5320    1.7420   -0.2490 C.3     1  UNL1        0.0430
      6  C          6.6400    0.9980   -0.8570 C.2     1  UNL1       -0.0440
      7  C          7.9730    1.3730   -0.6800 C.2     1  UNL1        0.0080
      8  C          6.3840   -0.1260   -1.6070 C.2     1  UNL1        0.0540
      9  C          8.9600    0.6150   -1.2550 C.2     1  UNL1        0.0510
     10  C          7.4140   -0.8830   -2.1850 C.2     1  UNL1        0.1660
     11  C          8.7300   -0.5130   -2.0110 C.2     1  UNL1        0.1650
     12  O          7.4550   -2.0300   -2.9690 O.2     1  UNL1       -0.4540
     13  O          9.5480   -1.4300   -2.6840 O.2     1  UNL1       -0.4540
     14  C          8.7560   -2.5880   -2.8480 C.3     1  UNL1        0.4680
@<TRIPOS>BOND
     1    12    14    1
     2    12    10    1
     3    14    13    1
     4    13    11    1
     5    10    11    2
     6    10     8    1
     7    11     9    1
     8     8     6    2
     9     9     7    2
    10     6     7    1
    11     6     5    1
    12     5     1    1
    13     1     2    1
    14     2     3    1
    15     2     4    2
