@<TRIPOS>MOLECULE
/home/cewinharhar/GITHUB/reincatalyze/data/processed/docking_pred/2023-May-31-1727_sub9_nm5_bs15_s42_ex16_mel10_mts10000_k50_ec075_g099_lra3e-4_lrc3e-3/9fad910e57fbde25b93c61ef9d3287f531a6e420_ligand_9.pdbqt
 14 15 0 0 0
SMALL
GASTEIGER

@<TRIPOS>ATOM
      1  C          5.5960    0.1570    1.8430 C.3     1  UNL1        0.0800
      2  C          4.7890    1.3240    1.4430 C.2     1  UNL1        0.1300
      3  C          5.3060    2.0900    0.2370 C.3     1  UNL1        0.0870
      4  O          3.7840    1.7330    1.9520 O.2     1  UNL1       -0.3000
      5  C          7.0060    0.1590    1.4020 C.3     1  UNL1        0.0430
      6  C          7.3890   -0.8170    0.3780 C.2     1  UNL1       -0.0440
      7  C          7.3100   -0.5340   -0.9870 C.2     1  UNL1        0.0080
      8  C          7.8730   -2.0500    0.7480 C.2     1  UNL1        0.0540
      9  C          7.7110   -1.4850   -1.8890 C.2     1  UNL1        0.0510
     10  C          8.2770   -3.0050   -0.1970 C.2     1  UNL1        0.1660
     11  C          8.1970   -2.7260   -1.5440 C.2     1  UNL1        0.1650
     12  O          8.7890   -4.2940   -0.1180 O.2     1  UNL1       -0.4540
     13  O          8.6580   -3.8370   -2.2620 O.2     1  UNL1       -0.4540
     14  C          9.4440   -4.5730   -1.3470 C.3     1  UNL1        0.4680
@<TRIPOS>BOND
     1    13    11    1
     2    13    14    1
     3     9    11    2
     4     9     7    1
     5    11    10    1
     6    14    12    1
     7     7     6    2
     8    10    12    1
     9    10     8    2
    10     3     2    1
    11     6     8    1
    12     6     5    1
    13     5     1    1
    14     2     1    1
    15     2     4    2
