@<TRIPOS>MOLECULE
/home/cewinharhar/GITHUB/reincatalyze/data/processed/docking_pred/2023-May-31-1727_sub9_nm5_bs15_s42_ex16_mel10_mts10000_k50_ec075_g099_lra3e-4_lrc3e-3/9fad910e57fbde25b93c61ef9d3287f531a6e420_ligand_9.pdbqt
 14 15 0 0 0
SMALL
GASTEIGER

@<TRIPOS>ATOM
      1  C          6.2540    1.2140    0.8400 C.3     1  UNL1        0.0800
      2  C          5.5400    0.4430    1.8740 C.2     1  UNL1        0.1300
      3  C          6.2780   -0.7740    2.4040 C.3     1  UNL1        0.0870
      4  O          4.4570    0.6640    2.3390 O.2     1  UNL1       -0.3000
      5  C          5.9070    0.8990   -0.5620 C.3     1  UNL1        0.0430
      6  C          6.8730    0.1080   -1.3300 C.2     1  UNL1       -0.0440
      7  C          7.7910    0.6970   -2.2020 C.2     1  UNL1        0.0080
      8  C          6.9140   -1.2590   -1.1840 C.2     1  UNL1        0.0540
      9  C          8.6840   -0.1020   -2.8680 C.2     1  UNL1        0.0510
     10  C          7.8400   -2.0520   -1.8790 C.2     1  UNL1        0.1660
     11  C          8.7450   -1.4720   -2.7390 C.2     1  UNL1        0.1650
     12  O          8.1070   -3.4150   -1.9290 O.2     1  UNL1       -0.4540
     13  O          9.5450   -2.4770   -3.2970 O.2     1  UNL1       -0.4540
     14  C          9.4300   -3.5770   -2.4170 C.3     1  UNL1        0.4680
@<TRIPOS>BOND
     1    13    11    1
     2    13    14    1
     3     9    11    2
     4     9     7    1
     5    11    10    1
     6    14    12    1
     7     7     6    2
     8    12    10    1
     9    10     8    2
    10     6     8    1
    11     6     5    1
    12     5     1    1
    13     1     2    1
    14     2     4    2
    15     2     3    1
