@<TRIPOS>MOLECULE
/home/cewinharhar/GITHUB/reincatalyze/data/processed/docking_pred/2023-May-31-1727_sub9_nm5_bs15_s42_ex16_mel10_mts10000_k50_ec075_g099_lra3e-4_lrc3e-3/a1c3c4a97d6bd518e48ffa0772dda1f342f6565e_ligand_9.pdbqt
 14 15 0 0 0
SMALL
GASTEIGER

@<TRIPOS>ATOM
      1  C          5.8970    1.2220   -0.2150 C.3     1  UNL1        0.0800
      2  C          5.9150    1.3020    1.2570 C.2     1  UNL1        0.1300
      3  C          5.2050    0.1680    1.9790 C.3     1  UNL1        0.0870
      4  O          6.4170    2.1470    1.9420 O.2     1  UNL1       -0.3000
      5  C          7.2130    1.0920   -0.8750 C.3     1  UNL1        0.0430
      6  C          7.6300   -0.2530   -1.2790 C.2     1  UNL1       -0.0440
      7  C          7.9320   -0.5720   -2.6040 C.2     1  UNL1        0.0080
      8  C          7.7630   -1.2450   -0.3360 C.2     1  UNL1        0.0540
      9  C          8.3430   -1.8440   -2.9070 C.2     1  UNL1        0.0510
     10  C          8.1860   -2.5400   -0.6740 C.2     1  UNL1        0.1660
     11  C          8.4830   -2.8550   -1.9810 C.2     1  UNL1        0.1650
     12  O          8.4040   -3.7090    0.0450 O.2     1  UNL1       -0.4540
     13  O          8.8760   -4.1980   -2.0430 O.2     1  UNL1       -0.4540
     14  C          9.2640   -4.5340   -0.7270 C.3     1  UNL1        0.4680
@<TRIPOS>BOND
     1     9     7    1
     2     9    11    2
     3     7     6    2
     4    13    11    1
     5    13    14    1
     6    11    10    1
     7     6     5    1
     8     6     8    1
     9     5     1    1
    10    14    12    1
    11    10     8    2
    12    10    12    1
    13     1     2    1
    14     2     4    2
    15     2     3    1
