@<TRIPOS>MOLECULE
/home/cewinharhar/GITHUB/reincatalyze/data/processed/docking_pred/2023-May-31-1727_sub9_nm5_bs15_s42_ex16_mel10_mts10000_k50_ec075_g099_lra3e-4_lrc3e-3/a1c3c4a97d6bd518e48ffa0772dda1f342f6565e_ligand_9.pdbqt
 14 15 0 0 0
SMALL
GASTEIGER

@<TRIPOS>ATOM
      1  C          6.3990    1.9440    1.5330 C.3     1  UNL1        0.0800
      2  C          6.3530    0.5480    2.0060 C.2     1  UNL1        0.1300
      3  C          4.9730   -0.0870    2.0230 C.3     1  UNL1        0.0870
      4  O          7.2670   -0.1340    2.3740 O.2     1  UNL1       -0.3000
      5  C          6.4710    2.1330    0.0690 C.3     1  UNL1        0.0430
      6  C          7.2900    1.1840   -0.6900 C.2     1  UNL1       -0.0440
      7  C          8.6700    1.3400   -0.8320 C.2     1  UNL1        0.0080
      8  C          6.7070    0.0810   -1.2680 C.2     1  UNL1        0.0540
      9  C          9.3780    0.3990   -1.5330 C.2     1  UNL1        0.0510
     10  C          7.4570   -0.8680   -1.9810 C.2     1  UNL1        0.1660
     11  C          8.8180   -0.7140   -2.1220 C.2     1  UNL1        0.1650
     12  O          7.1480   -2.0450   -2.6520 O.2     1  UNL1       -0.4540
     13  O          9.3180   -1.7880   -2.8690 O.2     1  UNL1       -0.4540
     14  C          8.3430   -2.8050   -2.7590 C.3     1  UNL1        0.4680
@<TRIPOS>BOND
     1    13    14    1
     2    13    11    1
     3    14    12    1
     4    12    10    1
     5    11    10    2
     6    11     9    1
     7    10     8    1
     8     9     7    2
     9     8     6    2
    10     7     6    1
    11     6     5    1
    12     5     1    1
    13     1     2    1
    14     2     3    1
    15     2     4    2
