@<TRIPOS>MOLECULE
/home/cewinharhar/GITHUB/reincatalyze/data/processed/docking_pred/2023-May-31-1727_sub9_nm5_bs15_s42_ex16_mel10_mts10000_k50_ec075_g099_lra3e-4_lrc3e-3/a1c3c4a97d6bd518e48ffa0772dda1f342f6565e_ligand_9.pdbqt
 14 15 0 0 0
SMALL
GASTEIGER

@<TRIPOS>ATOM
      1  C          5.7330    1.0380   -0.3010 C.3     1  UNL1        0.0800
      2  C          5.7740    1.3170    1.1460 C.2     1  UNL1        0.1300
      3  C          4.8840    0.4340    2.0040 C.3     1  UNL1        0.0870
      4  O          6.4200    2.1500    1.7170 O.2     1  UNL1       -0.3000
      5  C          7.0210    0.6770   -0.9310 C.3     1  UNL1        0.0430
      6  C          7.5800   -0.6380   -0.6070 C.2     1  UNL1       -0.0440
      7  C          7.7390   -1.0750    0.7100 C.2     1  UNL1        0.0080
      8  C          7.9420   -1.5000   -1.6160 C.2     1  UNL1        0.0540
      9  C          8.2440   -2.3290    0.9390 C.2     1  UNL1        0.0510
     10  C          8.4560   -2.7790   -1.3520 C.2     1  UNL1        0.1660
     11  C          8.6140   -3.2100   -0.0530 C.2     1  UNL1        0.1650
     12  O          8.8930   -3.8330   -2.1450 O.2     1  UNL1       -0.4540
     13  O          9.1390   -4.5080   -0.0700 O.2     1  UNL1       -0.4540
     14  C          8.8450   -5.0130   -1.3560 C.3     1  UNL1        0.4680
@<TRIPOS>BOND
     1    12    14    1
     2    12    10    1
     3     8    10    1
     4     8     6    2
     5    14    13    1
     6    10    11    2
     7     5     6    1
     8     5     1    1
     9     6     7    1
    10     1     2    1
    11    13    11    1
    12    11     9    1
    13     7     9    2
    14     2     4    2
    15     2     3    1
