@<TRIPOS>MOLECULE
/home/cewinharhar/GITHUB/reincatalyze/data/processed/docking_pred/2023-May-31-1727_sub9_nm5_bs15_s42_ex16_mel10_mts10000_k50_ec075_g099_lra3e-4_lrc3e-3/a1c3c4a97d6bd518e48ffa0772dda1f342f6565e_ligand_9.pdbqt
 14 15 0 0 0
SMALL
GASTEIGER

@<TRIPOS>ATOM
      1  C          5.9760    1.5130    1.1970 C.3     1  UNL1        0.0800
      2  C          5.3530    0.4640    2.0250 C.2     1  UNL1        0.1300
      3  C          6.2270   -0.7460    2.3080 C.3     1  UNL1        0.0870
      4  O          4.2510    0.4560    2.4960 O.2     1  UNL1       -0.3000
      5  C          5.8470    1.3500   -0.2660 C.3     1  UNL1        0.0430
      6  C          6.9160    0.6220   -0.9560 C.2     1  UNL1       -0.0440
      7  C          8.2260    1.1010   -1.0120 C.2     1  UNL1        0.0080
      8  C          6.6510   -0.5900   -1.5510 C.2     1  UNL1        0.0540
      9  C          9.1810    0.3540   -1.6510 C.2     1  UNL1        0.0510
     10  C          7.6490   -1.3340   -2.1980 C.2     1  UNL1        0.1660
     11  C          8.9410   -0.8610   -2.2550 C.2     1  UNL1        0.1650
     12  O          7.6730   -2.5520   -2.8670 O.2     1  UNL1       -0.4540
     13  O          9.7300   -1.7870   -2.9500 O.2     1  UNL1       -0.4540
     14  C          9.0190   -3.0060   -2.8850 C.3     1  UNL1        0.4680
@<TRIPOS>BOND
     1    13    14    1
     2    13    11    1
     3    14    12    1
     4    12    10    1
     5    11    10    2
     6    11     9    1
     7    10     8    1
     8     9     7    2
     9     8     6    2
    10     7     6    1
    11     6     5    1
    12     5     1    1
    13     1     2    1
    14     2     3    1
    15     2     4    2
