@<TRIPOS>MOLECULE
/home/cewinharhar/GITHUB/reincatalyze/data/processed/docking_pred/2023-May-31-1727_sub9_nm5_bs15_s42_ex16_mel10_mts10000_k50_ec075_g099_lra3e-4_lrc3e-3/a450f47ca4f24610d4ad642e19216dd37a68a7e2_ligand_9.pdbqt
 14 15 0 0 0
SMALL
GASTEIGER

@<TRIPOS>ATOM
      1  C          5.7130    0.0490    2.0110 C.3     1  UNL1        0.0800
      2  C          4.7190    1.1000    1.7250 C.2     1  UNL1        0.1300
      3  C          5.0630    2.0220    0.5680 C.3     1  UNL1        0.0870
      4  O          3.6850    1.3080    2.2930 O.2     1  UNL1       -0.3000
      5  C          7.0370    0.2150    1.3740 C.3     1  UNL1        0.0430
      6  C          7.4160   -0.7650    0.3520 C.2     1  UNL1       -0.0440
      7  C          7.3690   -0.4720   -1.0120 C.2     1  UNL1        0.0080
      8  C          7.8620   -2.0110    0.7240 C.2     1  UNL1        0.0540
      9  C          7.7650   -1.4270   -1.9120 C.2     1  UNL1        0.0510
     10  C          8.2610   -2.9700   -0.2190 C.2     1  UNL1        0.1660
     11  C          8.2150   -2.6820   -1.5650 C.2     1  UNL1        0.1650
     12  O          8.7410   -4.2720   -0.1380 O.2     1  UNL1       -0.4540
     13  O          8.6620   -3.7990   -2.2810 O.2     1  UNL1       -0.4540
     14  C          9.4130   -4.5590   -1.3560 C.3     1  UNL1        0.4680
@<TRIPOS>BOND
     1    13    11    1
     2    13    14    1
     3     9    11    2
     4     9     7    1
     5    11    10    1
     6    14    12    1
     7     7     6    2
     8    10    12    1
     9    10     8    2
    10     6     8    1
    11     6     5    1
    12     3     2    1
    13     5     1    1
    14     2     1    1
    15     2     4    2
