@<TRIPOS>MOLECULE
/home/cewinharhar/GITHUB/reincatalyze/data/processed/docking_pred/2023-May-31-1727_sub9_nm5_bs15_s42_ex16_mel10_mts10000_k50_ec075_g099_lra3e-4_lrc3e-3/a5b16c92fd7591d551db5a31bdb9c28d24e6a5b8_ligand_9.pdbqt
 14 15 0 0 0
SMALL
GASTEIGER

@<TRIPOS>ATOM
      1  C          5.9640    0.4390    1.7330 C.3     1  UNL1        0.0800
      2  C          4.9920    1.4540    1.2880 C.2     1  UNL1        0.1300
      3  C          5.3310    2.1480   -0.0210 C.3     1  UNL1        0.0870
      4  O          3.9790    1.7900    1.8310 O.2     1  UNL1       -0.3000
      5  C          7.2880    0.4720    1.0760 C.3     1  UNL1        0.0430
      6  C          7.5990   -0.6130    0.1410 C.2     1  UNL1       -0.0440
      7  C          7.5780   -0.4310   -1.2430 C.2     1  UNL1        0.0080
      8  C          7.9540   -1.8530    0.6180 C.2     1  UNL1        0.0540
      9  C          7.9070   -1.4820   -2.0580 C.2     1  UNL1        0.0510
     10  C          8.2860   -2.9120   -0.2390 C.2     1  UNL1        0.1660
     11  C          8.2650   -2.7330   -1.6050 C.2     1  UNL1        0.1650
     12  O          8.6710   -4.2340   -0.0480 O.2     1  UNL1       -0.4540
     13  O          8.6340   -3.9350   -2.2230 O.2     1  UNL1       -0.4540
     14  C          9.3240   -4.6670   -1.2320 C.3     1  UNL1        0.4680
@<TRIPOS>BOND
     1    13    11    1
     2    13    14    1
     3     9    11    2
     4     9     7    1
     5    11    10    1
     6     7     6    2
     7    14    12    1
     8    10    12    1
     9    10     8    2
    10     3     2    1
    11     6     8    1
    12     6     5    1
    13     5     1    1
    14     2     1    1
    15     2     4    2
