@<TRIPOS>MOLECULE
/home/cewinharhar/GITHUB/reincatalyze/data/processed/docking_pred/2023-May-31-1727_sub9_nm5_bs15_s42_ex16_mel10_mts10000_k50_ec075_g099_lra3e-4_lrc3e-3/a5b16c92fd7591d551db5a31bdb9c28d24e6a5b8_ligand_9.pdbqt
 14 15 0 0 0
SMALL
GASTEIGER

@<TRIPOS>ATOM
      1  C          5.5950    1.8860    1.2400 C.3     1  UNL1        0.0800
      2  C          5.0660    0.7430    2.0060 C.2     1  UNL1        0.1300
      3  C          6.0230   -0.4240    2.1760 C.3     1  UNL1        0.0870
      4  O          3.9820    0.6290    2.5040 O.2     1  UNL1       -0.3000
      5  C          5.5780    1.7490   -0.2310 C.3     1  UNL1        0.0430
      6  C          6.6750    0.9970   -0.8460 C.2     1  UNL1       -0.0440
      7  C          8.0120    1.3570   -0.6740 C.2     1  UNL1        0.0080
      8  C          6.4050   -0.1210   -1.6010 C.2     1  UNL1        0.0540
      9  C          8.9890    0.5920   -1.2570 C.2     1  UNL1        0.0510
     10  C          7.4250   -0.8870   -2.1860 C.2     1  UNL1        0.1660
     11  C          8.7450   -0.5310   -2.0160 C.2     1  UNL1        0.1650
     12  O          7.4510   -2.0300   -2.9750 O.2     1  UNL1       -0.4540
     13  O          9.5510   -1.4520   -2.6970 O.2     1  UNL1       -0.4540
     14  C          8.7460   -2.6020   -2.8620 C.3     1  UNL1        0.4680
@<TRIPOS>BOND
     1    12    14    1
     2    12    10    1
     3    14    13    1
     4    13    11    1
     5    10    11    2
     6    10     8    1
     7    11     9    1
     8     8     6    2
     9     9     7    2
    10     6     7    1
    11     6     5    1
    12     5     1    1
    13     1     2    1
    14     2     3    1
    15     2     4    2
