MODEL 1
REMARK VINA RESULT:      -7.6      0.000      0.000
REMARK SMILES CC(=O)CCc1ccc2c(c1)OCO2
REMARK SMILES IDX 4 1 2 2 1 3 3 4 5 5 6 6 7 7 11 8 8 9 10 10 9 11 12 12 14 13
REMARK SMILES IDX 13 14
REMARK H PARENT
REMARK Flexibility Score: inf
ROOT
ATOM      1  C   UNL     1       5.595   1.886   1.240  1.00  0.00     0.080 C 
ENDROOT
BRANCH   1   2
ATOM      2  C   UNL     1       5.066   0.743   2.006  1.00  0.00     0.130 C 
ATOM      3  C   UNL     1       6.023  -0.424   2.176  1.00  0.00     0.087 C 
ATOM      4  O   UNL     1       3.982   0.629   2.504  1.00  0.00    -0.300 OA
ENDBRANCH   1   2
BRANCH   1   5
ATOM      5  C   UNL     1       5.578   1.749  -0.231  1.00  0.00     0.043 C 
BRANCH   5   6
ATOM      6  C   UNL     1       6.675   0.997  -0.846  1.00  0.00    -0.044 A 
ATOM      7  C   UNL     1       8.012   1.357  -0.674  1.00  0.00     0.008 A 
ATOM      8  C   UNL     1       6.405  -0.121  -1.601  1.00  0.00     0.054 A 
ATOM      9  C   UNL     1       8.989   0.592  -1.257  1.00  0.00     0.051 A 
ATOM     10  C   UNL     1       7.425  -0.887  -2.186  1.00  0.00     0.166 A 
ATOM     11  C   UNL     1       8.745  -0.531  -2.016  1.00  0.00     0.165 A 
ATOM     12  O   UNL     1       7.451  -2.030  -2.975  1.00  0.00    -0.454 OA
ATOM     13  O   UNL     1       9.551  -1.452  -2.697  1.00  0.00    -0.454 OA
ATOM     14  C   UNL     1       8.746  -2.602  -2.862  1.00  0.00     0.468 C 
ENDBRANCH   5   6
ENDBRANCH   1   5
TORSDOF 3
ENDMDL
MODEL 2
REMARK VINA RESULT:      -6.9      1.847      2.357
REMARK SMILES CC(=O)CCc1ccc2c(c1)OCO2
REMARK SMILES IDX 4 1 2 2 1 3 3 4 5 5 6 6 7 7 11 8 8 9 10 10 9 11 12 12 14 13
REMARK SMILES IDX 13 14
REMARK H PARENT
REMARK Flexibility Score: inf
ROOT
ATOM      1  C   UNL     1       5.933   1.384  -0.283  1.00  0.00     0.080 C 
ENDROOT
BRANCH   1   2
ATOM      2  C   UNL     1       5.307   1.391   1.051  1.00  0.00     0.130 C 
ATOM      3  C   UNL     1       5.777   0.296   1.995  1.00  0.00     0.087 C 
ATOM      4  O   UNL     1       4.482   2.150   1.473  1.00  0.00    -0.300 OA
ENDBRANCH   1   2
BRANCH   1   5
ATOM      5  C   UNL     1       7.354   0.980  -0.335  1.00  0.00     0.043 C 
BRANCH   5   6
ATOM      6  C   UNL     1       7.658  -0.328  -0.922  1.00  0.00    -0.044 A 
ATOM      7  C   UNL     1       7.696  -0.533  -2.302  1.00  0.00     0.008 A 
ATOM      8  C   UNL     1       7.946  -1.399  -0.107  1.00  0.00     0.054 A 
ATOM      9  C   UNL     1       8.014  -1.777  -2.782  1.00  0.00     0.051 A 
ATOM     10  C   UNL     1       8.269  -2.662  -0.626  1.00  0.00     0.166 A 
ATOM     11  C   UNL     1       8.305  -2.864  -1.988  1.00  0.00     0.165 A 
ATOM     12  O   UNL     1       8.595  -3.889  -0.063  1.00  0.00    -0.454 OA
ATOM     13  O   UNL     1       8.650  -4.199  -2.236  1.00  0.00    -0.454 OA
ATOM     14  C   UNL     1       9.274  -4.649  -1.051  1.00  0.00     0.468 C 
ENDBRANCH   5   6
ENDBRANCH   1   5
TORSDOF 3
ENDMDL
MODEL 3
REMARK VINA RESULT:      -6.9      1.064      1.137
REMARK SMILES CC(=O)CCc1ccc2c(c1)OCO2
REMARK SMILES IDX 4 1 2 2 1 3 3 4 5 5 6 6 7 7 11 8 8 9 10 10 9 11 12 12 14 13
REMARK SMILES IDX 13 14
REMARK H PARENT
REMARK Flexibility Score: inf
ROOT
ATOM      1  C   UNL     1       6.171   1.274   0.875  1.00  0.00     0.080 C 
ENDROOT
BRANCH   1   2
ATOM      2  C   UNL     1       5.559   0.459   1.940  1.00  0.00     0.130 C 
ATOM      3  C   UNL     1       6.395  -0.715   2.422  1.00  0.00     0.087 C 
ATOM      4  O   UNL     1       4.492   0.614   2.463  1.00  0.00    -0.300 OA
ENDBRANCH   1   2
BRANCH   1   5
ATOM      5  C   UNL     1       5.827   0.898  -0.512  1.00  0.00     0.043 C 
BRANCH   5   6
ATOM      6  C   UNL     1       6.826   0.137  -1.268  1.00  0.00    -0.044 A 
ATOM      7  C   UNL     1       7.809   0.760  -2.038  1.00  0.00     0.008 A 
ATOM      8  C   UNL     1       6.833  -1.237  -1.210  1.00  0.00     0.054 A 
ATOM      9  C   UNL     1       8.729  -0.014  -2.698  1.00  0.00     0.051 A 
ATOM     10  C   UNL     1       7.787  -2.005  -1.895  1.00  0.00     0.166 A 
ATOM     11  C   UNL     1       8.756  -1.390  -2.656  1.00  0.00     0.165 A 
ATOM     12  O   UNL     1       8.032  -3.367  -2.017  1.00  0.00    -0.454 OA
ATOM     13  O   UNL     1       9.572  -2.376  -3.227  1.00  0.00    -0.454 OA
ATOM     14  C   UNL     1       9.381  -3.526  -2.430  1.00  0.00     0.468 C 
ENDBRANCH   5   6
ENDBRANCH   1   5
TORSDOF 3
ENDMDL
MODEL 4
REMARK VINA RESULT:      -6.8      1.170      1.652
REMARK SMILES CC(=O)CCc1ccc2c(c1)OCO2
REMARK SMILES IDX 4 1 2 2 1 3 3 4 5 5 6 6 7 7 11 8 8 9 10 10 9 11 12 12 14 13
REMARK SMILES IDX 13 14
REMARK H PARENT
REMARK Flexibility Score: inf
ROOT
ATOM      1  C   UNL     1       5.380  -0.057   1.947  1.00  0.00     0.080 C 
ENDROOT
BRANCH   1   2
ATOM      2  C   UNL     1       4.429   1.065   1.848  1.00  0.00     0.130 C 
ATOM      3  C   UNL     1       4.754   2.099   0.783  1.00  0.00     0.087 C 
ATOM      4  O   UNL     1       3.443   1.253   2.500  1.00  0.00    -0.300 OA
ENDBRANCH   1   2
BRANCH   1   5
ATOM      5  C   UNL     1       6.799   0.267   1.692  1.00  0.00     0.043 C 
BRANCH   5   6
ATOM      6  C   UNL     1       7.338  -0.074   0.373  1.00  0.00    -0.044 A 
ATOM      7  C   UNL     1       7.763   0.901  -0.532  1.00  0.00     0.008 A 
ATOM      8  C   UNL     1       7.466  -1.392   0.000  1.00  0.00     0.054 A 
ATOM      9  C   UNL     1       8.282   0.509  -1.739  1.00  0.00     0.051 A 
ATOM     10  C   UNL     1       8.001  -1.765  -1.242  1.00  0.00     0.166 A 
ATOM     11  C   UNL     1       8.419  -0.803  -2.135  1.00  0.00     0.165 A 
ATOM     12  O   UNL     1       8.243  -2.980  -1.870  1.00  0.00    -0.454 OA
ATOM     13  O   UNL     1       8.907  -1.438  -3.284  1.00  0.00    -0.454 OA
ATOM     14  C   UNL     1       9.215  -2.756  -2.881  1.00  0.00     0.468 C 
ENDBRANCH   5   6
ENDBRANCH   1   5
TORSDOF 3
ENDMDL
MODEL 5
REMARK VINA RESULT:      -6.6      2.040      2.554
REMARK SMILES CC(=O)CCc1ccc2c(c1)OCO2
REMARK SMILES IDX 4 1 2 2 1 3 3 4 5 5 6 6 7 7 11 8 8 9 10 10 9 11 12 12 14 13
REMARK SMILES IDX 13 14
REMARK H PARENT
REMARK Flexibility Score: inf
ROOT
ATOM      1  C   UNL     1       5.964   0.439   1.733  1.00  0.00     0.080 C 
ENDROOT
BRANCH   1   2
ATOM      2  C   UNL     1       4.992   1.454   1.288  1.00  0.00     0.130 C 
ATOM      3  C   UNL     1       5.331   2.148  -0.021  1.00  0.00     0.087 C 
ATOM      4  O   UNL     1       3.979   1.790   1.831  1.00  0.00    -0.300 OA
ENDBRANCH   1   2
BRANCH   1   5
ATOM      5  C   UNL     1       7.288   0.472   1.076  1.00  0.00     0.043 C 
BRANCH   5   6
ATOM      6  C   UNL     1       7.599  -0.613   0.141  1.00  0.00    -0.044 A 
ATOM      7  C   UNL     1       7.578  -0.431  -1.243  1.00  0.00     0.008 A 
ATOM      8  C   UNL     1       7.954  -1.853   0.618  1.00  0.00     0.054 A 
ATOM      9  C   UNL     1       7.907  -1.482  -2.058  1.00  0.00     0.051 A 
ATOM     10  C   UNL     1       8.286  -2.912  -0.239  1.00  0.00     0.166 A 
ATOM     11  C   UNL     1       8.265  -2.733  -1.605  1.00  0.00     0.165 A 
ATOM     12  O   UNL     1       8.671  -4.234  -0.048  1.00  0.00    -0.454 OA
ATOM     13  O   UNL     1       8.634  -3.935  -2.223  1.00  0.00    -0.454 OA
ATOM     14  C   UNL     1       9.324  -4.667  -1.232  1.00  0.00     0.468 C 
ENDBRANCH   5   6
ENDBRANCH   1   5
TORSDOF 3
ENDMDL
