@<TRIPOS>MOLECULE
/home/cewinharhar/GITHUB/reincatalyze/data/processed/docking_pred/2023-May-31-1727_sub9_nm5_bs15_s42_ex16_mel10_mts10000_k50_ec075_g099_lra3e-4_lrc3e-3/a5b16c92fd7591d551db5a31bdb9c28d24e6a5b8_ligand_9.pdbqt
 14 15 0 0 0
SMALL
GASTEIGER

@<TRIPOS>ATOM
      1  C          5.3800   -0.0570    1.9470 C.3     1  UNL1        0.0800
      2  C          4.4290    1.0650    1.8480 C.2     1  UNL1        0.1300
      3  C          4.7540    2.0990    0.7830 C.3     1  UNL1        0.0870
      4  O          3.4430    1.2530    2.5000 O.2     1  UNL1       -0.3000
      5  C          6.7990    0.2670    1.6920 C.3     1  UNL1        0.0430
      6  C          7.3380   -0.0740    0.3730 C.2     1  UNL1       -0.0440
      7  C          7.7630    0.9010   -0.5320 C.2     1  UNL1        0.0080
      8  C          7.4660   -1.3920    0.0000 C.2     1  UNL1        0.0540
      9  C          8.2820    0.5090   -1.7390 C.2     1  UNL1        0.0510
     10  C          8.0010   -1.7650   -1.2420 C.2     1  UNL1        0.1660
     11  C          8.4190   -0.8030   -2.1350 C.2     1  UNL1        0.1650
     12  O          8.2430   -2.9800   -1.8700 O.2     1  UNL1       -0.4540
     13  O          8.9070   -1.4380   -3.2840 O.2     1  UNL1       -0.4540
     14  C          9.2150   -2.7560   -2.8810 C.3     1  UNL1        0.4680
@<TRIPOS>BOND
     1    13    14    1
     2    13    11    1
     3    14    12    1
     4    11     9    2
     5    11    10    1
     6    12    10    1
     7     9     7    1
     8    10     8    2
     9     7     6    2
    10     8     6    1
    11     6     5    1
    12     3     2    1
    13     5     1    1
    14     2     1    1
    15     2     4    2
