@<TRIPOS>MOLECULE
/home/cewinharhar/GITHUB/reincatalyze/data/processed/docking_pred/2023-May-31-1727_sub9_nm5_bs15_s42_ex16_mel10_mts10000_k50_ec075_g099_lra3e-4_lrc3e-3/a5b16c92fd7591d551db5a31bdb9c28d24e6a5b8_ligand_9.pdbqt
 14 15 0 0 0
SMALL
GASTEIGER

@<TRIPOS>ATOM
      1  C          6.1710    1.2740    0.8750 C.3     1  UNL1        0.0800
      2  C          5.5590    0.4590    1.9400 C.2     1  UNL1        0.1300
      3  C          6.3950   -0.7150    2.4220 C.3     1  UNL1        0.0870
      4  O          4.4920    0.6140    2.4630 O.2     1  UNL1       -0.3000
      5  C          5.8270    0.8980   -0.5120 C.3     1  UNL1        0.0430
      6  C          6.8260    0.1370   -1.2680 C.2     1  UNL1       -0.0440
      7  C          7.8090    0.7600   -2.0380 C.2     1  UNL1        0.0080
      8  C          6.8330   -1.2370   -1.2100 C.2     1  UNL1        0.0540
      9  C          8.7290   -0.0140   -2.6980 C.2     1  UNL1        0.0510
     10  C          7.7870   -2.0050   -1.8950 C.2     1  UNL1        0.1660
     11  C          8.7560   -1.3900   -2.6560 C.2     1  UNL1        0.1650
     12  O          8.0320   -3.3670   -2.0170 O.2     1  UNL1       -0.4540
     13  O          9.5720   -2.3760   -3.2270 O.2     1  UNL1       -0.4540
     14  C          9.3810   -3.5260   -2.4300 C.3     1  UNL1        0.4680
@<TRIPOS>BOND
     1    13    11    1
     2    13    14    1
     3     9    11    2
     4     9     7    1
     5    11    10    1
     6    14    12    1
     7     7     6    2
     8    12    10    1
     9    10     8    2
    10     6     8    1
    11     6     5    1
    12     5     1    1
    13     1     2    1
    14     2     3    1
    15     2     4    2
