MODEL 1
REMARK VINA RESULT:      -7.7      0.000      0.000
REMARK SMILES CC(=O)CCc1ccc2c(c1)OCO2
REMARK SMILES IDX 4 1 2 2 1 3 3 4 5 5 6 6 7 7 11 8 8 9 10 10 9 11 12 12 14 13
REMARK SMILES IDX 13 14
REMARK H PARENT
REMARK Flexibility Score: inf
ROOT
ATOM      1  C   UNL     1       5.500   1.894   1.214  1.00  0.00     0.080 C 
ENDROOT
BRANCH   1   2
ATOM      2  C   UNL     1       4.938   0.775   1.993  1.00  0.00     0.130 C 
ATOM      3  C   UNL     1       5.816  -0.462   2.078  1.00  0.00     0.087 C 
ATOM      4  O   UNL     1       3.884   0.729   2.559  1.00  0.00    -0.300 OA
ENDBRANCH   1   2
BRANCH   1   5
ATOM      5  C   UNL     1       5.490   1.735  -0.255  1.00  0.00     0.043 C 
BRANCH   5   6
ATOM      6  C   UNL     1       6.607   1.001  -0.857  1.00  0.00    -0.044 A 
ATOM      7  C   UNL     1       7.936   1.386  -0.673  1.00  0.00     0.008 A 
ATOM      8  C   UNL     1       6.365  -0.126  -1.609  1.00  0.00     0.054 A 
ATOM      9  C   UNL     1       8.932   0.637  -1.243  1.00  0.00     0.051 A 
ATOM     10  C   UNL     1       7.405  -0.874  -2.180  1.00  0.00     0.166 A 
ATOM     11  C   UNL     1       8.716  -0.493  -2.000  1.00  0.00     0.165 A 
ATOM     12  O   UNL     1       7.460  -2.021  -2.964  1.00  0.00    -0.454 OA
ATOM     13  O   UNL     1       9.546  -1.403  -2.669  1.00  0.00    -0.454 OA
ATOM     14  C   UNL     1       8.764  -2.567  -2.836  1.00  0.00     0.468 C 
ENDBRANCH   5   6
ENDBRANCH   1   5
TORSDOF 3
ENDMDL
MODEL 2
REMARK VINA RESULT:      -6.9      1.089      1.186
REMARK SMILES CC(=O)CCc1ccc2c(c1)OCO2
REMARK SMILES IDX 4 1 2 2 1 3 3 4 5 5 6 6 7 7 11 8 8 9 10 10 9 11 12 12 14 13
REMARK SMILES IDX 13 14
REMARK H PARENT
REMARK Flexibility Score: inf
ROOT
ATOM      1  C   UNL     1       6.191   1.271   0.854  1.00  0.00     0.080 C 
ENDROOT
BRANCH   1   2
ATOM      2  C   UNL     1       5.568   0.464   1.919  1.00  0.00     0.130 C 
ATOM      3  C   UNL     1       6.371  -0.742   2.376  1.00  0.00     0.087 C 
ATOM      4  O   UNL     1       4.514   0.648   2.460  1.00  0.00    -0.300 OA
ENDBRANCH   1   2
BRANCH   1   5
ATOM      5  C   UNL     1       5.845   0.897  -0.533  1.00  0.00     0.043 C 
BRANCH   5   6
ATOM      6  C   UNL     1       6.841   0.133  -1.290  1.00  0.00    -0.044 A 
ATOM      7  C   UNL     1       7.815   0.753  -2.075  1.00  0.00     0.008 A 
ATOM      8  C   UNL     1       6.855  -1.240  -1.218  1.00  0.00     0.054 A 
ATOM      9  C   UNL     1       8.732  -0.024  -2.734  1.00  0.00     0.051 A 
ATOM     10  C   UNL     1       7.806  -2.011  -1.904  1.00  0.00     0.166 A 
ATOM     11  C   UNL     1       8.767  -1.400  -2.679  1.00  0.00     0.165 A 
ATOM     12  O   UNL     1       8.056  -3.373  -2.015  1.00  0.00    -0.454 OA
ATOM     13  O   UNL     1       9.582  -2.387  -3.247  1.00  0.00    -0.454 OA
ATOM     14  C   UNL     1       9.402  -3.530  -2.438  1.00  0.00     0.468 C 
ENDBRANCH   5   6
ENDBRANCH   1   5
TORSDOF 3
ENDMDL
MODEL 3
REMARK VINA RESULT:      -6.8      1.832      2.348
REMARK SMILES CC(=O)CCc1ccc2c(c1)OCO2
REMARK SMILES IDX 4 1 2 2 1 3 3 4 5 5 6 6 7 7 11 8 8 9 10 10 9 11 12 12 14 13
REMARK SMILES IDX 13 14
REMARK H PARENT
REMARK Flexibility Score: inf
ROOT
ATOM      1  C   UNL     1       6.803   1.068   1.407  1.00  0.00     0.080 C 
ENDROOT
BRANCH   1   2
ATOM      2  C   UNL     1       5.338   1.180   1.535  1.00  0.00     0.130 C 
ATOM      3  C   UNL     1       4.674   2.150   0.572  1.00  0.00     0.087 C 
ATOM      4  O   UNL     1       4.621   0.602   2.300  1.00  0.00    -0.300 OA
ENDBRANCH   1   2
BRANCH   1   5
ATOM      5  C   UNL     1       7.343   1.131   0.033  1.00  0.00     0.043 C 
BRANCH   5   6
ATOM      6  C   UNL     1       7.616  -0.143  -0.640  1.00  0.00    -0.044 A 
ATOM      7  C   UNL     1       7.612  -0.266  -2.030  1.00  0.00     0.008 A 
ATOM      8  C   UNL     1       7.915  -1.262   0.102  1.00  0.00     0.054 A 
ATOM      9  C   UNL     1       7.902  -1.482  -2.592  1.00  0.00     0.051 A 
ATOM     10  C   UNL     1       8.210  -2.495  -0.500  1.00  0.00     0.166 A 
ATOM     11  C   UNL     1       8.205  -2.617  -1.872  1.00  0.00     0.165 A 
ATOM     12  O   UNL     1       8.538  -3.757  -0.020  1.00  0.00    -0.454 OA
ATOM     13  O   UNL     1       8.528  -3.938  -2.208  1.00  0.00    -0.454 OA
ATOM     14  C   UNL     1       9.181  -4.463  -1.071  1.00  0.00     0.468 C 
ENDBRANCH   5   6
ENDBRANCH   1   5
TORSDOF 3
ENDMDL
MODEL 4
REMARK VINA RESULT:      -6.8      1.099      1.596
REMARK SMILES CC(=O)CCc1ccc2c(c1)OCO2
REMARK SMILES IDX 4 1 2 2 1 3 3 4 5 5 6 6 7 7 11 8 8 9 10 10 9 11 12 12 14 13
REMARK SMILES IDX 13 14
REMARK H PARENT
REMARK Flexibility Score: inf
ROOT
ATOM      1  C   UNL     1       5.335  -0.022   1.989  1.00  0.00     0.080 C 
ENDROOT
BRANCH   1   2
ATOM      2  C   UNL     1       4.388   1.101   1.869  1.00  0.00     0.130 C 
ATOM      3  C   UNL     1       4.733   2.132   0.807  1.00  0.00     0.087 C 
ATOM      4  O   UNL     1       3.390   1.293   2.504  1.00  0.00    -0.300 OA
ENDBRANCH   1   2
BRANCH   1   5
ATOM      5  C   UNL     1       6.760   0.300   1.762  1.00  0.00     0.043 C 
BRANCH   5   6
ATOM      6  C   UNL     1       7.312  -0.000   0.438  1.00  0.00    -0.044 A 
ATOM      7  C   UNL     1       7.870   0.987  -0.377  1.00  0.00     0.008 A 
ATOM      8  C   UNL     1       7.317  -1.294  -0.029  1.00  0.00     0.054 A 
ATOM      9  C   UNL     1       8.393   0.630  -1.592  1.00  0.00     0.051 A 
ATOM     10  C   UNL     1       7.859  -1.631  -1.278  1.00  0.00     0.166 A 
ATOM     11  C   UNL     1       8.410  -0.657  -2.082  1.00  0.00     0.165 A 
ATOM     12  O   UNL     1       7.999  -2.817  -1.989  1.00  0.00    -0.454 OA
ATOM     13  O   UNL     1       8.874  -1.256  -3.261  1.00  0.00    -0.454 OA
ATOM     14  C   UNL     1       9.028  -2.625  -2.948  1.00  0.00     0.468 C 
ENDBRANCH   5   6
ENDBRANCH   1   5
TORSDOF 3
ENDMDL
MODEL 5
REMARK VINA RESULT:      -6.6      1.542      1.879
REMARK SMILES CC(=O)CCc1ccc2c(c1)OCO2
REMARK SMILES IDX 4 1 2 2 1 3 3 4 5 5 6 6 7 7 11 8 8 9 10 10 9 11 12 12 14 13
REMARK SMILES IDX 13 14
REMARK H PARENT
REMARK Flexibility Score: inf
ROOT
ATOM      1  C   UNL     1       5.422   1.568   0.404  1.00  0.00     0.080 C 
ENDROOT
BRANCH   1   2
ATOM      2  C   UNL     1       4.798   1.022   1.623  1.00  0.00     0.130 C 
ATOM      3  C   UNL     1       5.549  -0.121   2.282  1.00  0.00     0.087 C 
ATOM      4  O   UNL     1       3.779   1.373   2.147  1.00  0.00    -0.300 OA
ENDBRANCH   1   2
BRANCH   1   5
ATOM      5  C   UNL     1       6.859   1.274   0.220  1.00  0.00     0.043 C 
BRANCH   5   6
ATOM      6  C   UNL     1       7.205   0.091  -0.573  1.00  0.00    -0.044 A 
ATOM      7  C   UNL     1       7.114   0.077  -1.966  1.00  0.00     0.008 A 
ATOM      8  C   UNL     1       7.664  -1.045   0.051  1.00  0.00     0.054 A 
ATOM      9  C   UNL     1       7.481  -1.055  -2.646  1.00  0.00     0.051 A 
ATOM     10  C   UNL     1       8.034  -2.191  -0.670  1.00  0.00     0.166 A 
ATOM     11  C   UNL     1       7.943  -2.206  -2.045  1.00  0.00     0.165 A 
ATOM     12  O   UNL     1       8.517  -3.446  -0.320  1.00  0.00    -0.454 OA
ATOM     13  O   UNL     1       8.368  -3.456  -2.511  1.00  0.00    -0.454 OA
ATOM     14  C   UNL     1       9.149  -3.998  -1.466  1.00  0.00     0.468 C 
ENDBRANCH   5   6
ENDBRANCH   1   5
TORSDOF 3
ENDMDL
