@<TRIPOS>MOLECULE
/home/cewinharhar/GITHUB/reincatalyze/data/processed/docking_pred/2023-May-31-1727_sub9_nm5_bs15_s42_ex16_mel10_mts10000_k50_ec075_g099_lra3e-4_lrc3e-3/a614218f6e6a1b7d791f470f20b1a009abdeaae3_ligand_9.pdbqt
 14 15 0 0 0
SMALL
GASTEIGER

@<TRIPOS>ATOM
      1  C          6.1910    1.2710    0.8540 C.3     1  UNL1        0.0800
      2  C          5.5680    0.4640    1.9190 C.2     1  UNL1        0.1300
      3  C          6.3710   -0.7420    2.3760 C.3     1  UNL1        0.0870
      4  O          4.5140    0.6480    2.4600 O.2     1  UNL1       -0.3000
      5  C          5.8450    0.8970   -0.5330 C.3     1  UNL1        0.0430
      6  C          6.8410    0.1330   -1.2900 C.2     1  UNL1       -0.0440
      7  C          7.8150    0.7530   -2.0750 C.2     1  UNL1        0.0080
      8  C          6.8550   -1.2400   -1.2180 C.2     1  UNL1        0.0540
      9  C          8.7320   -0.0240   -2.7340 C.2     1  UNL1        0.0510
     10  C          7.8060   -2.0110   -1.9040 C.2     1  UNL1        0.1660
     11  C          8.7670   -1.4000   -2.6790 C.2     1  UNL1        0.1650
     12  O          8.0560   -3.3730   -2.0150 O.2     1  UNL1       -0.4540
     13  O          9.5820   -2.3870   -3.2470 O.2     1  UNL1       -0.4540
     14  C          9.4020   -3.5300   -2.4380 C.3     1  UNL1        0.4680
@<TRIPOS>BOND
     1    13    11    1
     2    13    14    1
     3     9    11    2
     4     9     7    1
     5    11    10    1
     6    14    12    1
     7     7     6    2
     8    12    10    1
     9    10     8    2
    10     6     8    1
    11     6     5    1
    12     5     1    1
    13     1     2    1
    14     2     3    1
    15     2     4    2
