@<TRIPOS>MOLECULE
/home/cewinharhar/GITHUB/reincatalyze/data/processed/docking_pred/2023-May-31-1727_sub9_nm5_bs15_s42_ex16_mel10_mts10000_k50_ec075_g099_lra3e-4_lrc3e-3/a614218f6e6a1b7d791f470f20b1a009abdeaae3_ligand_9.pdbqt
 14 15 0 0 0
SMALL
GASTEIGER

@<TRIPOS>ATOM
      1  C          5.5000    1.8940    1.2140 C.3     1  UNL1        0.0800
      2  C          4.9380    0.7750    1.9930 C.2     1  UNL1        0.1300
      3  C          5.8160   -0.4620    2.0780 C.3     1  UNL1        0.0870
      4  O          3.8840    0.7290    2.5590 O.2     1  UNL1       -0.3000
      5  C          5.4900    1.7350   -0.2550 C.3     1  UNL1        0.0430
      6  C          6.6070    1.0010   -0.8570 C.2     1  UNL1       -0.0440
      7  C          7.9360    1.3860   -0.6730 C.2     1  UNL1        0.0080
      8  C          6.3650   -0.1260   -1.6090 C.2     1  UNL1        0.0540
      9  C          8.9320    0.6370   -1.2430 C.2     1  UNL1        0.0510
     10  C          7.4050   -0.8740   -2.1800 C.2     1  UNL1        0.1660
     11  C          8.7160   -0.4930   -2.0000 C.2     1  UNL1        0.1650
     12  O          7.4600   -2.0210   -2.9640 O.2     1  UNL1       -0.4540
     13  O          9.5460   -1.4030   -2.6690 O.2     1  UNL1       -0.4540
     14  C          8.7640   -2.5670   -2.8360 C.3     1  UNL1        0.4680
@<TRIPOS>BOND
     1    12    14    1
     2    12    10    1
     3    14    13    1
     4    13    11    1
     5    10    11    2
     6    10     8    1
     7    11     9    1
     8     8     6    2
     9     9     7    2
    10     6     7    1
    11     6     5    1
    12     5     1    1
    13     1     2    1
    14     2     3    1
    15     2     4    2
