@<TRIPOS>MOLECULE
/home/cewinharhar/GITHUB/reincatalyze/data/processed/docking_pred/2023-May-31-1727_sub9_nm5_bs15_s42_ex16_mel10_mts10000_k50_ec075_g099_lra3e-4_lrc3e-3/a614218f6e6a1b7d791f470f20b1a009abdeaae3_ligand_9.pdbqt
 14 15 0 0 0
SMALL
GASTEIGER

@<TRIPOS>ATOM
      1  C          5.4220    1.5680    0.4040 C.3     1  UNL1        0.0800
      2  C          4.7980    1.0220    1.6230 C.2     1  UNL1        0.1300
      3  C          5.5490   -0.1210    2.2820 C.3     1  UNL1        0.0870
      4  O          3.7790    1.3730    2.1470 O.2     1  UNL1       -0.3000
      5  C          6.8590    1.2740    0.2200 C.3     1  UNL1        0.0430
      6  C          7.2050    0.0910   -0.5730 C.2     1  UNL1       -0.0440
      7  C          7.1140    0.0770   -1.9660 C.2     1  UNL1        0.0080
      8  C          7.6640   -1.0450    0.0510 C.2     1  UNL1        0.0540
      9  C          7.4810   -1.0550   -2.6460 C.2     1  UNL1        0.0510
     10  C          8.0340   -2.1910   -0.6700 C.2     1  UNL1        0.1660
     11  C          7.9430   -2.2060   -2.0450 C.2     1  UNL1        0.1650
     12  O          8.5170   -3.4460   -0.3200 O.2     1  UNL1       -0.4540
     13  O          8.3680   -3.4560   -2.5110 O.2     1  UNL1       -0.4540
     14  C          9.1490   -3.9980   -1.4660 C.3     1  UNL1        0.4680
@<TRIPOS>BOND
     1     9    11    2
     2     9     7    1
     3    13    11    1
     4    13    14    1
     5    11    10    1
     6     7     6    2
     7    14    12    1
     8    10    12    1
     9    10     8    2
    10     6     8    1
    11     6     5    1
    12     5     1    1
    13     1     2    1
    14     2     4    2
    15     2     3    1
