MODEL 1
REMARK VINA RESULT:      -7.6      0.000      0.000
REMARK SMILES CC(=O)CCc1ccc2c(c1)OCO2
REMARK SMILES IDX 4 1 2 2 1 3 3 4 5 5 6 6 7 7 11 8 8 9 10 10 9 11 12 12 14 13
REMARK SMILES IDX 13 14
REMARK H PARENT
REMARK Flexibility Score: inf
ROOT
ATOM      1  C   UNL     1       5.638   1.858   1.266  1.00  0.00     0.080 C 
ENDROOT
BRANCH   1   2
ATOM      2  C   UNL     1       5.066   0.724   2.014  1.00  0.00     0.130 C 
ATOM      3  C   UNL     1       5.985  -0.474   2.182  1.00  0.00     0.087 C 
ATOM      4  O   UNL     1       3.973   0.639   2.498  1.00  0.00    -0.300 OA
ENDBRANCH   1   2
BRANCH   1   5
ATOM      5  C   UNL     1       5.620   1.742  -0.208  1.00  0.00     0.043 C 
BRANCH   5   6
ATOM      6  C   UNL     1       6.705   0.982  -0.834  1.00  0.00    -0.044 A 
ATOM      7  C   UNL     1       8.046   1.345  -0.693  1.00  0.00     0.008 A 
ATOM      8  C   UNL     1       6.421  -0.147  -1.567  1.00  0.00     0.054 A 
ATOM      9  C   UNL     1       9.011   0.571  -1.284  1.00  0.00     0.051 A 
ATOM     10  C   UNL     1       7.430  -0.921  -2.161  1.00  0.00     0.166 A 
ATOM     11  C   UNL     1       8.753  -0.562  -2.023  1.00  0.00     0.165 A 
ATOM     12  O   UNL     1       7.441  -2.075  -2.934  1.00  0.00    -0.454 OA
ATOM     13  O   UNL     1       9.545  -1.493  -2.706  1.00  0.00    -0.454 OA
ATOM     14  C   UNL     1       8.738  -2.644  -2.839  1.00  0.00     0.468 C 
ENDBRANCH   5   6
ENDBRANCH   1   5
TORSDOF 3
ENDMDL
MODEL 2
REMARK VINA RESULT:      -7.0      1.797      2.264
REMARK SMILES CC(=O)CCc1ccc2c(c1)OCO2
REMARK SMILES IDX 4 1 2 2 1 3 3 4 5 5 6 6 7 7 11 8 8 9 10 10 9 11 12 12 14 13
REMARK SMILES IDX 13 14
REMARK H PARENT
REMARK Flexibility Score: inf
ROOT
ATOM      1  C   UNL     1       5.871   1.490  -0.212  1.00  0.00     0.080 C 
ENDROOT
BRANCH   1   2
ATOM      2  C   UNL     1       5.213   1.404   1.104  1.00  0.00     0.130 C 
ATOM      3  C   UNL     1       5.740   0.316   2.025  1.00  0.00     0.087 C 
ATOM      4  O   UNL     1       4.322   2.085   1.527  1.00  0.00    -0.300 OA
ENDBRANCH   1   2
BRANCH   1   5
ATOM      5  C   UNL     1       7.289   1.074  -0.260  1.00  0.00     0.043 C 
BRANCH   5   6
ATOM      6  C   UNL     1       7.584  -0.232  -0.855  1.00  0.00    -0.044 A 
ATOM      7  C   UNL     1       7.588  -0.436  -2.236  1.00  0.00     0.008 A 
ATOM      8  C   UNL     1       7.898  -1.301  -0.049  1.00  0.00     0.054 A 
ATOM      9  C   UNL     1       7.900  -1.678  -2.725  1.00  0.00     0.051 A 
ATOM     10  C   UNL     1       8.214  -2.562  -0.577  1.00  0.00     0.166 A 
ATOM     11  C   UNL     1       8.217  -2.764  -1.940  1.00  0.00     0.165 A 
ATOM     12  O   UNL     1       8.560  -3.789  -0.023  1.00  0.00    -0.454 OA
ATOM     13  O   UNL     1       8.562  -4.097  -2.197  1.00  0.00    -0.454 OA
ATOM     14  C   UNL     1       9.218  -4.545  -1.029  1.00  0.00     0.468 C 
ENDBRANCH   5   6
ENDBRANCH   1   5
TORSDOF 3
ENDMDL
MODEL 3
REMARK VINA RESULT:      -6.7      1.100      1.592
REMARK SMILES CC(=O)CCc1ccc2c(c1)OCO2
REMARK SMILES IDX 4 1 2 2 1 3 3 4 5 5 6 6 7 7 11 8 8 9 10 10 9 11 12 12 14 13
REMARK SMILES IDX 13 14
REMARK H PARENT
REMARK Flexibility Score: inf
ROOT
ATOM      1  C   UNL     1       5.335  -0.022   1.989  1.00  0.00     0.080 C 
ENDROOT
BRANCH   1   2
ATOM      2  C   UNL     1       4.388   1.101   1.869  1.00  0.00     0.130 C 
ATOM      3  C   UNL     1       4.733   2.132   0.807  1.00  0.00     0.087 C 
ATOM      4  O   UNL     1       3.390   1.293   2.504  1.00  0.00    -0.300 OA
ENDBRANCH   1   2
BRANCH   1   5
ATOM      5  C   UNL     1       6.760   0.300   1.762  1.00  0.00     0.043 C 
BRANCH   5   6
ATOM      6  C   UNL     1       7.312  -0.000   0.438  1.00  0.00    -0.044 A 
ATOM      7  C   UNL     1       7.870   0.987  -0.377  1.00  0.00     0.008 A 
ATOM      8  C   UNL     1       7.317  -1.294  -0.029  1.00  0.00     0.054 A 
ATOM      9  C   UNL     1       8.393   0.630  -1.592  1.00  0.00     0.051 A 
ATOM     10  C   UNL     1       7.859  -1.631  -1.278  1.00  0.00     0.166 A 
ATOM     11  C   UNL     1       8.410  -0.657  -2.082  1.00  0.00     0.165 A 
ATOM     12  O   UNL     1       7.999  -2.817  -1.989  1.00  0.00    -0.454 OA
ATOM     13  O   UNL     1       8.874  -1.256  -3.261  1.00  0.00    -0.454 OA
ATOM     14  C   UNL     1       9.028  -2.625  -2.948  1.00  0.00     0.468 C 
ENDBRANCH   5   6
ENDBRANCH   1   5
TORSDOF 3
ENDMDL
MODEL 4
REMARK VINA RESULT:      -6.7      1.954      2.514
REMARK SMILES CC(=O)CCc1ccc2c(c1)OCO2
REMARK SMILES IDX 4 1 2 2 1 3 3 4 5 5 6 6 7 7 11 8 8 9 10 10 9 11 12 12 14 13
REMARK SMILES IDX 13 14
REMARK H PARENT
REMARK Flexibility Score: inf
ROOT
ATOM      1  C   UNL     1       5.608   0.013   2.036  1.00  0.00     0.080 C 
ENDROOT
BRANCH   1   2
ATOM      2  C   UNL     1       4.641   1.102   1.810  1.00  0.00     0.130 C 
ATOM      3  C   UNL     1       4.986   2.053   0.676  1.00  0.00     0.087 C 
ATOM      4  O   UNL     1       3.626   1.322   2.409  1.00  0.00    -0.300 OA
ENDBRANCH   1   2
BRANCH   1   5
ATOM      5  C   UNL     1       6.940   0.186   1.420  1.00  0.00     0.043 C 
BRANCH   5   6
ATOM      6  C   UNL     1       7.336  -0.783   0.395  1.00  0.00    -0.044 A 
ATOM      7  C   UNL     1       7.246  -0.501  -0.970  1.00  0.00     0.008 A 
ATOM      8  C   UNL     1       7.840  -2.008   0.763  1.00  0.00     0.054 A 
ATOM      9  C   UNL     1       7.660  -1.445  -1.874  1.00  0.00     0.051 A 
ATOM     10  C   UNL     1       8.257  -2.956  -0.184  1.00  0.00     0.166 A 
ATOM     11  C   UNL     1       8.168  -2.678  -1.530  1.00  0.00     0.165 A 
ATOM     12  O   UNL     1       8.791  -4.236  -0.107  1.00  0.00    -0.454 OA
ATOM     13  O   UNL     1       8.645  -3.781  -2.250  1.00  0.00    -0.454 OA
ATOM     14  C   UNL     1       9.446  -4.504  -1.339  1.00  0.00     0.468 C 
ENDBRANCH   5   6
ENDBRANCH   1   5
TORSDOF 3
ENDMDL
MODEL 5
REMARK VINA RESULT:      -6.5      2.276      2.858
REMARK SMILES CC(=O)CCc1ccc2c(c1)OCO2
REMARK SMILES IDX 4 1 2 2 1 3 3 4 5 5 6 6 7 7 11 8 8 9 10 10 9 11 12 12 14 13
REMARK SMILES IDX 13 14
REMARK H PARENT
REMARK Flexibility Score: inf
ROOT
ATOM      1  C   UNL     1       6.962   1.517  -0.462  1.00  0.00     0.080 C 
ENDROOT
BRANCH   1   2
ATOM      2  C   UNL     1       6.171   1.945   0.707  1.00  0.00     0.130 C 
ATOM      3  C   UNL     1       4.687   2.147   0.449  1.00  0.00     0.087 C 
ATOM      4  O   UNL     1       6.558   2.149   1.822  1.00  0.00    -0.300 OA
ENDBRANCH   1   2
BRANCH   1   5
ATOM      5  C   UNL     1       6.533   0.263  -1.114  1.00  0.00     0.043 C 
BRANCH   5   6
ATOM      6  C   UNL     1       7.262  -0.959  -0.763  1.00  0.00    -0.044 A 
ATOM      7  C   UNL     1       7.484  -1.339   0.562  1.00  0.00     0.008 A 
ATOM      8  C   UNL     1       7.731  -1.790  -1.754  1.00  0.00     0.054 A 
ATOM      9  C   UNL     1       8.151  -2.509   0.817  1.00  0.00     0.051 A 
ATOM     10  C   UNL     1       8.410  -2.983  -1.464  1.00  0.00     0.166 A 
ATOM     11  C   UNL     1       8.629  -3.357  -0.157  1.00  0.00     0.165 A 
ATOM     12  O   UNL     1       8.979  -3.989  -2.235  1.00  0.00    -0.454 OA
ATOM     13  O   UNL     1       9.322  -4.575  -0.147  1.00  0.00    -0.454 OA
ATOM     14  C   UNL     1       9.091  -5.145  -1.418  1.00  0.00     0.468 C 
ENDBRANCH   5   6
ENDBRANCH   1   5
TORSDOF 3
ENDMDL
