@<TRIPOS>MOLECULE
/home/cewinharhar/GITHUB/reincatalyze/data/processed/docking_pred/2023-May-31-1727_sub9_nm5_bs15_s42_ex16_mel10_mts10000_k50_ec075_g099_lra3e-4_lrc3e-3/a991e05863b38587be5f018959c733685726fb49_ligand_9.pdbqt
 14 15 0 0 0
SMALL
GASTEIGER

@<TRIPOS>ATOM
      1  C          6.9620    1.5170   -0.4620 C.3     1  UNL1        0.0800
      2  C          6.1710    1.9450    0.7070 C.2     1  UNL1        0.1300
      3  C          4.6870    2.1470    0.4490 C.3     1  UNL1        0.0870
      4  O          6.5580    2.1490    1.8220 O.2     1  UNL1       -0.3000
      5  C          6.5330    0.2630   -1.1140 C.3     1  UNL1        0.0430
      6  C          7.2620   -0.9590   -0.7630 C.2     1  UNL1       -0.0440
      7  C          7.4840   -1.3390    0.5620 C.2     1  UNL1        0.0080
      8  C          7.7310   -1.7900   -1.7540 C.2     1  UNL1        0.0540
      9  C          8.1510   -2.5090    0.8170 C.2     1  UNL1        0.0510
     10  C          8.4100   -2.9830   -1.4640 C.2     1  UNL1        0.1660
     11  C          8.6290   -3.3570   -0.1570 C.2     1  UNL1        0.1650
     12  O          8.9790   -3.9890   -2.2350 O.2     1  UNL1       -0.4540
     13  O          9.3220   -4.5750   -0.1470 O.2     1  UNL1       -0.4540
     14  C          9.0910   -5.1450   -1.4180 C.3     1  UNL1        0.4680
@<TRIPOS>BOND
     1    12    10    1
     2    12    14    1
     3     8    10    1
     4     8     6    2
     5    10    11    2
     6    14    13    1
     7     5     6    1
     8     5     1    1
     9     6     7    1
    10     1     2    1
    11    11    13    1
    12    11     9    1
    13     3     2    1
    14     7     9    2
    15     2     4    2
