@<TRIPOS>MOLECULE
/home/cewinharhar/GITHUB/reincatalyze/data/processed/docking_pred/2023-May-31-1727_sub9_nm5_bs15_s42_ex16_mel10_mts10000_k50_ec075_g099_lra3e-4_lrc3e-3/a9d08a951453574d65a810177cdd831b7fbb923c_ligand_9.pdbqt
 14 15 0 0 0
SMALL
GASTEIGER

@<TRIPOS>ATOM
      1  C          5.9150    1.2500   -0.2690 C.3     1  UNL1        0.0800
      2  C          5.2480    1.1880    1.0450 C.2     1  UNL1        0.1300
      3  C          5.6130   -0.0110    1.9030 C.3     1  UNL1        0.0870
      4  O          4.4630    1.9650    1.5080 O.2     1  UNL1       -0.3000
      5  C          7.3890    1.1470   -0.2560 C.3     1  UNL1        0.0430
      6  C          7.9930    0.0760   -1.0530 C.2     1  UNL1       -0.0440
      7  C          7.7430   -0.0670   -2.4190 C.2     1  UNL1        0.0080
      8  C          8.8610   -0.8140   -0.4650 C.2     1  UNL1        0.0540
      9  C          8.3640   -1.0760   -3.1090 C.2     1  UNL1        0.0510
     10  C          9.4840   -1.8380   -1.1950 C.2     1  UNL1        0.1660
     11  C          9.2360   -1.9790   -2.5430 C.2     1  UNL1        0.1650
     12  O         10.3780   -2.8520   -0.8770 O.2     1  UNL1       -0.4540
     13  O          9.9750   -3.0670   -3.0250 O.2     1  UNL1       -0.4540
     14  C         11.0090   -3.2630   -2.0820 C.3     1  UNL1        0.4680
@<TRIPOS>BOND
     1     9    11    2
     2     9     7    1
     3    13    11    1
     4    13    14    1
     5    11    10    1
     6     7     6    2
     7    14    12    1
     8    10    12    1
     9    10     8    2
    10     6     8    1
    11     6     5    1
    12     1     5    1
    13     1     2    1
    14     2     4    2
    15     2     3    1
