@<TRIPOS>MOLECULE
/home/cewinharhar/GITHUB/reincatalyze/data/processed/docking_pred/2023-May-31-1727_sub9_nm5_bs15_s42_ex16_mel10_mts10000_k50_ec075_g099_lra3e-4_lrc3e-3/a9d08a951453574d65a810177cdd831b7fbb923c_ligand_9.pdbqt
 14 15 0 0 0
SMALL
GASTEIGER

@<TRIPOS>ATOM
      1  C          6.2800    0.6080    1.6480 C.3     1  UNL1        0.0800
      2  C          5.1900    1.4590    1.1370 C.2     1  UNL1        0.1300
      3  C          5.3250    1.8840   -0.3160 C.3     1  UNL1        0.0870
      4  O          4.2210    1.8470    1.7260 O.2     1  UNL1       -0.3000
      5  C          6.3790   -0.7460    1.0640 C.3     1  UNL1        0.0430
      6  C          7.6100   -1.0750    0.3410 C.2     1  UNL1       -0.0440
      7  C          8.8750   -0.8880    0.9010 C.2     1  UNL1        0.0080
      8  C          7.5430   -1.6140   -0.9230 C.2     1  UNL1        0.0540
      9  C          9.9830   -1.2430    0.1780 C.2     1  UNL1        0.0510
     10  C          8.6950   -1.9700   -1.6410 C.2     1  UNL1        0.1660
     11  C          9.9430   -1.7840   -1.0880 C.2     1  UNL1        0.1650
     12  O          8.9260   -2.5180   -2.8970 O.2     1  UNL1       -0.4540
     13  O         10.9100   -2.2170   -2.0050 O.2     1  UNL1       -0.4540
     14  C         10.2280   -3.0870   -2.8840 C.3     1  UNL1        0.4680
@<TRIPOS>BOND
     1    12    14    1
     2    12    10    1
     3    14    13    1
     4    13    11    1
     5    10    11    2
     6    10     8    1
     7    11     9    1
     8     8     6    2
     9     3     2    1
    10     9     7    2
    11     6     7    1
    12     6     5    1
    13     5     1    1
    14     2     1    1
    15     2     4    2
