MODEL 1
REMARK VINA RESULT:      -7.7      0.000      0.000
REMARK SMILES CC(=O)CCc1ccc2c(c1)OCO2
REMARK SMILES IDX 4 1 2 2 1 3 3 4 5 5 6 6 7 7 11 8 8 9 10 10 9 11 12 12 14 13
REMARK SMILES IDX 13 14
REMARK H PARENT
REMARK Flexibility Score: inf
ROOT
ATOM      1  C   UNL     1       5.549   1.868   1.228  1.00  0.00     0.080 C 
ENDROOT
BRANCH   1   2
ATOM      2  C   UNL     1       5.006   0.740   2.007  1.00  0.00     0.130 C 
ATOM      3  C   UNL     1       5.931  -0.456   2.150  1.00  0.00     0.087 C 
ATOM      4  O   UNL     1       3.933   0.659   2.534  1.00  0.00    -0.300 OA
ENDBRANCH   1   2
BRANCH   1   5
ATOM      5  C   UNL     1       5.530   1.713  -0.241  1.00  0.00     0.043 C 
BRANCH   5   6
ATOM      6  C   UNL     1       6.638   0.972  -0.852  1.00  0.00    -0.044 A 
ATOM      7  C   UNL     1       7.971   1.342  -0.667  1.00  0.00     0.008 A 
ATOM      8  C   UNL     1       6.382  -0.145  -1.613  1.00  0.00     0.054 A 
ATOM      9  C   UNL     1       8.958   0.587  -1.246  1.00  0.00     0.051 A 
ATOM     10  C   UNL     1       7.413  -0.900  -2.194  1.00  0.00     0.166 A 
ATOM     11  C   UNL     1       8.728  -0.534  -2.012  1.00  0.00     0.165 A 
ATOM     12  O   UNL     1       7.454  -2.039  -2.987  1.00  0.00    -0.454 OA
ATOM     13  O   UNL     1       9.547  -1.447  -2.690  1.00  0.00    -0.454 OA
ATOM     14  C   UNL     1       8.752  -2.601  -2.867  1.00  0.00     0.468 C 
ENDBRANCH   5   6
ENDBRANCH   1   5
TORSDOF 3
ENDMDL
MODEL 2
REMARK VINA RESULT:      -7.0      1.826      2.273
REMARK SMILES CC(=O)CCc1ccc2c(c1)OCO2
REMARK SMILES IDX 4 1 2 2 1 3 3 4 5 5 6 6 7 7 11 8 8 9 10 10 9 11 12 12 14 13
REMARK SMILES IDX 13 14
REMARK H PARENT
REMARK Flexibility Score: inf
ROOT
ATOM      1  C   UNL     1       5.720   1.331  -0.311  1.00  0.00     0.080 C 
ENDROOT
BRANCH   1   2
ATOM      2  C   UNL     1       5.100   1.324   1.026  1.00  0.00     0.130 C 
ATOM      3  C   UNL     1       5.509   0.172   1.927  1.00  0.00     0.087 C 
ATOM      4  O   UNL     1       4.320   2.114   1.480  1.00  0.00    -0.300 OA
ENDBRANCH   1   2
BRANCH   1   5
ATOM      5  C   UNL     1       7.166   1.030  -0.360  1.00  0.00     0.043 C 
BRANCH   5   6
ATOM      6  C   UNL     1       7.564  -0.257  -0.935  1.00  0.00    -0.044 A 
ATOM      7  C   UNL     1       7.749  -0.434  -2.307  1.00  0.00     0.008 A 
ATOM      8  C   UNL     1       7.795  -1.336  -0.114  1.00  0.00     0.054 A 
ATOM      9  C   UNL     1       8.148  -1.660  -2.774  1.00  0.00     0.051 A 
ATOM     10  C   UNL     1       8.204  -2.580  -0.619  1.00  0.00     0.166 A 
ATOM     11  C   UNL     1       8.385  -2.755  -1.973  1.00  0.00     0.165 A 
ATOM     12  O   UNL     1       8.503  -3.811  -0.046  1.00  0.00    -0.454 OA
ATOM     13  O   UNL     1       8.790  -4.075  -2.207  1.00  0.00    -0.454 OA
ATOM     14  C   UNL     1       9.301  -4.533  -0.972  1.00  0.00     0.468 C 
ENDBRANCH   5   6
ENDBRANCH   1   5
TORSDOF 3
ENDMDL
MODEL 3
REMARK VINA RESULT:      -7.0      1.127      1.237
REMARK SMILES CC(=O)CCc1ccc2c(c1)OCO2
REMARK SMILES IDX 4 1 2 2 1 3 3 4 5 5 6 6 7 7 11 8 8 9 10 10 9 11 12 12 14 13
REMARK SMILES IDX 13 14
REMARK H PARENT
REMARK Flexibility Score: inf
ROOT
ATOM      1  C   UNL     1       6.287   1.152   0.915  1.00  0.00     0.080 C 
ENDROOT
BRANCH   1   2
ATOM      2  C   UNL     1       5.556   0.375   1.932  1.00  0.00     0.130 C 
ATOM      3  C   UNL     1       6.262  -0.876   2.426  1.00  0.00     0.087 C 
ATOM      4  O   UNL     1       4.482   0.614   2.408  1.00  0.00    -0.300 OA
ENDBRANCH   1   2
BRANCH   1   5
ATOM      5  C   UNL     1       5.934   0.876  -0.494  1.00  0.00     0.043 C 
BRANCH   5   6
ATOM      6  C   UNL     1       6.891   0.096  -1.284  1.00  0.00    -0.044 A 
ATOM      7  C   UNL     1       7.789   0.696  -2.169  1.00  0.00     0.008 A 
ATOM      8  C   UNL     1       6.946  -1.271  -1.146  1.00  0.00     0.054 A 
ATOM      9  C   UNL     1       8.675  -0.092  -2.856  1.00  0.00     0.051 A 
ATOM     10  C   UNL     1       7.864  -2.055  -1.862  1.00  0.00     0.166 A 
ATOM     11  C   UNL     1       8.749  -1.462  -2.736  1.00  0.00     0.165 A 
ATOM     12  O   UNL     1       8.140  -3.415  -1.924  1.00  0.00    -0.454 OA
ATOM     13  O   UNL     1       9.546  -2.459  -3.314  1.00  0.00    -0.454 OA
ATOM     14  C   UNL     1       9.456  -3.564  -2.438  1.00  0.00     0.468 C 
ENDBRANCH   5   6
ENDBRANCH   1   5
TORSDOF 3
ENDMDL
MODEL 4
REMARK VINA RESULT:      -6.8      1.173      1.656
REMARK SMILES CC(=O)CCc1ccc2c(c1)OCO2
REMARK SMILES IDX 4 1 2 2 1 3 3 4 5 5 6 6 7 7 11 8 8 9 10 10 9 11 12 12 14 13
REMARK SMILES IDX 13 14
REMARK H PARENT
REMARK Flexibility Score: inf
ROOT
ATOM      1  C   UNL     1       5.388  -0.075   1.949  1.00  0.00     0.080 C 
ENDROOT
BRANCH   1   2
ATOM      2  C   UNL     1       4.449   1.059   1.867  1.00  0.00     0.130 C 
ATOM      3  C   UNL     1       4.791   2.112   0.827  1.00  0.00     0.087 C 
ATOM      4  O   UNL     1       3.460   1.244   2.518  1.00  0.00    -0.300 OA
ENDBRANCH   1   2
BRANCH   1   5
ATOM      5  C   UNL     1       6.809   0.236   1.692  1.00  0.00     0.043 C 
BRANCH   5   6
ATOM      6  C   UNL     1       7.341  -0.105   0.369  1.00  0.00    -0.044 A 
ATOM      7  C   UNL     1       7.741   0.871  -0.546  1.00  0.00     0.008 A 
ATOM      8  C   UNL     1       7.488  -1.423   0.005  1.00  0.00     0.054 A 
ATOM      9  C   UNL     1       8.255   0.479  -1.755  1.00  0.00     0.051 A 
ATOM     10  C   UNL     1       8.018  -1.795  -1.240  1.00  0.00     0.166 A 
ATOM     11  C   UNL     1       8.411  -0.833  -2.143  1.00  0.00     0.165 A 
ATOM     12  O   UNL     1       8.275  -3.011  -1.862  1.00  0.00    -0.454 OA
ATOM     13  O   UNL     1       8.899  -1.467  -3.293  1.00  0.00    -0.454 OA
ATOM     14  C   UNL     1       9.233  -2.777  -2.884  1.00  0.00     0.468 C 
ENDBRANCH   5   6
ENDBRANCH   1   5
TORSDOF 3
ENDMDL
MODEL 5
REMARK VINA RESULT:      -6.7      1.895      2.466
REMARK SMILES CC(=O)CCc1ccc2c(c1)OCO2
REMARK SMILES IDX 4 1 2 2 1 3 3 4 5 5 6 6 7 7 11 8 8 9 10 10 9 11 12 12 14 13
REMARK SMILES IDX 13 14
REMARK H PARENT
REMARK Flexibility Score: inf
ROOT
ATOM      1  C   UNL     1       5.580  -0.041   2.103  1.00  0.00     0.080 C 
ENDROOT
BRANCH   1   2
ATOM      2  C   UNL     1       4.623   1.056   1.874  1.00  0.00     0.130 C 
ATOM      3  C   UNL     1       5.012   2.042   0.786  1.00  0.00     0.087 C 
ATOM      4  O   UNL     1       3.586   1.257   2.440  1.00  0.00    -0.300 OA
ENDBRANCH   1   2
BRANCH   1   5
ATOM      5  C   UNL     1       6.927   0.137   1.521  1.00  0.00     0.043 C 
BRANCH   5   6
ATOM      6  C   UNL     1       7.315  -0.771   0.438  1.00  0.00    -0.044 A 
ATOM      7  C   UNL     1       7.224  -0.409  -0.906  1.00  0.00     0.008 A 
ATOM      8  C   UNL     1       7.816  -2.018   0.733  1.00  0.00     0.054 A 
ATOM      9  C   UNL     1       7.631  -1.299  -1.866  1.00  0.00     0.051 A 
ATOM     10  C   UNL     1       8.226  -2.910  -0.270  1.00  0.00     0.166 A 
ATOM     11  C   UNL     1       8.135  -2.552  -1.597  1.00  0.00     0.165 A 
ATOM     12  O   UNL     1       8.754  -4.195  -0.271  1.00  0.00    -0.454 OA
ATOM     13  O   UNL     1       8.605  -3.613  -2.382  1.00  0.00    -0.454 OA
ATOM     14  C   UNL     1       9.405  -4.392  -1.518  1.00  0.00     0.468 C 
ENDBRANCH   5   6
ENDBRANCH   1   5
TORSDOF 3
ENDMDL
