@<TRIPOS>MOLECULE
/home/cewinharhar/GITHUB/reincatalyze/data/processed/docking_pred/2023-May-31-1727_sub9_nm5_bs15_s42_ex16_mel10_mts10000_k50_ec075_g099_lra3e-4_lrc3e-3/ab317eb7565d030be4138c7249420e244018cf00_ligand_9.pdbqt
 14 15 0 0 0
SMALL
GASTEIGER

@<TRIPOS>ATOM
      1  C          5.5490    1.8680    1.2280 C.3     1  UNL1        0.0800
      2  C          5.0060    0.7400    2.0070 C.2     1  UNL1        0.1300
      3  C          5.9310   -0.4560    2.1500 C.3     1  UNL1        0.0870
      4  O          3.9330    0.6590    2.5340 O.2     1  UNL1       -0.3000
      5  C          5.5300    1.7130   -0.2410 C.3     1  UNL1        0.0430
      6  C          6.6380    0.9720   -0.8520 C.2     1  UNL1       -0.0440
      7  C          7.9710    1.3420   -0.6670 C.2     1  UNL1        0.0080
      8  C          6.3820   -0.1450   -1.6130 C.2     1  UNL1        0.0540
      9  C          8.9580    0.5870   -1.2460 C.2     1  UNL1        0.0510
     10  C          7.4130   -0.9000   -2.1940 C.2     1  UNL1        0.1660
     11  C          8.7280   -0.5340   -2.0120 C.2     1  UNL1        0.1650
     12  O          7.4540   -2.0390   -2.9870 O.2     1  UNL1       -0.4540
     13  O          9.5470   -1.4470   -2.6900 O.2     1  UNL1       -0.4540
     14  C          8.7520   -2.6010   -2.8670 C.3     1  UNL1        0.4680
@<TRIPOS>BOND
     1    12    14    1
     2    12    10    1
     3    14    13    1
     4    13    11    1
     5    10    11    2
     6    10     8    1
     7    11     9    1
     8     8     6    2
     9     9     7    2
    10     6     7    1
    11     6     5    1
    12     5     1    1
    13     1     2    1
    14     2     3    1
    15     2     4    2
