@<TRIPOS>MOLECULE
/home/cewinharhar/GITHUB/reincatalyze/data/processed/docking_pred/2023-May-31-1727_sub9_nm5_bs15_s42_ex16_mel10_mts10000_k50_ec075_g099_lra3e-4_lrc3e-3/ab317eb7565d030be4138c7249420e244018cf00_ligand_9.pdbqt
 14 15 0 0 0
SMALL
GASTEIGER

@<TRIPOS>ATOM
      1  C          6.2870    1.1520    0.9150 C.3     1  UNL1        0.0800
      2  C          5.5560    0.3750    1.9320 C.2     1  UNL1        0.1300
      3  C          6.2620   -0.8760    2.4260 C.3     1  UNL1        0.0870
      4  O          4.4820    0.6140    2.4080 O.2     1  UNL1       -0.3000
      5  C          5.9340    0.8760   -0.4940 C.3     1  UNL1        0.0430
      6  C          6.8910    0.0960   -1.2840 C.2     1  UNL1       -0.0440
      7  C          7.7890    0.6960   -2.1690 C.2     1  UNL1        0.0080
      8  C          6.9460   -1.2710   -1.1460 C.2     1  UNL1        0.0540
      9  C          8.6750   -0.0920   -2.8560 C.2     1  UNL1        0.0510
     10  C          7.8640   -2.0550   -1.8620 C.2     1  UNL1        0.1660
     11  C          8.7490   -1.4620   -2.7360 C.2     1  UNL1        0.1650
     12  O          8.1400   -3.4150   -1.9240 O.2     1  UNL1       -0.4540
     13  O          9.5460   -2.4590   -3.3140 O.2     1  UNL1       -0.4540
     14  C          9.4560   -3.5640   -2.4380 C.3     1  UNL1        0.4680
@<TRIPOS>BOND
     1    13    11    1
     2    13    14    1
     3     9    11    2
     4     9     7    1
     5    11    10    1
     6    14    12    1
     7     7     6    2
     8    12    10    1
     9    10     8    2
    10     6     8    1
    11     6     5    1
    12     5     1    1
    13     1     2    1
    14     2     4    2
    15     2     3    1
