@<TRIPOS>MOLECULE
/home/cewinharhar/GITHUB/reincatalyze/data/processed/docking_pred/2023-May-31-1727_sub9_nm5_bs15_s42_ex16_mel10_mts10000_k50_ec075_g099_lra3e-4_lrc3e-3/ab955c776f37f5544fae82246801d9a2769dfb79_ligand_9.pdbqt
 14 15 0 0 0
SMALL
GASTEIGER

@<TRIPOS>ATOM
      1  C          5.7430    1.0070   -0.3630 C.3     1  UNL1        0.0800
      2  C          5.3740    1.1650    1.0560 C.2     1  UNL1        0.1300
      3  C          5.5510   -0.0750    1.9160 C.3     1  UNL1        0.0870
      4  O          4.9560    2.1460    1.6010 O.2     1  UNL1       -0.3000
      5  C          7.1880    0.8760   -0.6480 C.3     1  UNL1        0.0430
      6  C          7.6570   -0.4160   -1.1560 C.2     1  UNL1       -0.0440
      7  C          7.9930   -0.6110   -2.4960 C.2     1  UNL1        0.0080
      8  C          7.8050   -1.4800   -0.2970 C.2     1  UNL1        0.0540
      9  C          8.4510   -1.8400   -2.8960 C.2     1  UNL1        0.0510
     10  C          8.2770   -2.7280   -0.7330 C.2     1  UNL1        0.1660
     11  C          8.6080   -2.9200   -2.0560 C.2     1  UNL1        0.1650
     12  O          8.5210   -3.9460   -0.1120 O.2     1  UNL1       -0.4540
     13  O          9.0460   -4.2400   -2.2230 O.2     1  UNL1       -0.4540
     14  C          9.4220   -4.6750   -0.9320 C.3     1  UNL1        0.4680
@<TRIPOS>BOND
     1     9     7    1
     2     9    11    2
     3     7     6    2
     4    13    11    1
     5    13    14    1
     6    11    10    1
     7     6     5    1
     8     6     8    1
     9    14    12    1
    10    10     8    2
    11    10    12    1
    12     5     1    1
    13     1     2    1
    14     2     4    2
    15     2     3    1
