MODEL 1
REMARK VINA RESULT:      -7.6      0.000      0.000
REMARK SMILES CC(=O)CCc1ccc2c(c1)OCO2
REMARK SMILES IDX 4 1 2 2 1 3 3 4 5 5 6 6 7 7 11 8 8 9 10 10 9 11 12 12 14 13
REMARK SMILES IDX 13 14
REMARK H PARENT
REMARK Flexibility Score: inf
ROOT
ATOM      1  C   UNL     1       5.604   1.894   1.236  1.00  0.00     0.080 C 
ENDROOT
BRANCH   1   2
ATOM      2  C   UNL     1       5.087   0.745   2.001  1.00  0.00     0.130 C 
ATOM      3  C   UNL     1       6.058  -0.409   2.177  1.00  0.00     0.087 C 
ATOM      4  O   UNL     1       4.002   0.619   2.495  1.00  0.00    -0.300 OA
ENDBRANCH   1   2
BRANCH   1   5
ATOM      5  C   UNL     1       5.587   1.757  -0.236  1.00  0.00     0.043 C 
BRANCH   5   6
ATOM      6  C   UNL     1       6.682   1.001  -0.851  1.00  0.00    -0.044 A 
ATOM      7  C   UNL     1       8.021   1.354  -0.675  1.00  0.00     0.008 A 
ATOM      8  C   UNL     1       6.408  -0.115  -1.608  1.00  0.00     0.054 A 
ATOM      9  C   UNL     1       8.995   0.585  -1.258  1.00  0.00     0.051 A 
ATOM     10  C   UNL     1       7.425  -0.884  -2.192  1.00  0.00     0.166 A 
ATOM     11  C   UNL     1       8.746  -0.535  -2.020  1.00  0.00     0.165 A 
ATOM     12  O   UNL     1       7.446  -2.026  -2.984  1.00  0.00    -0.454 OA
ATOM     13  O   UNL     1       9.548  -1.460  -2.701  1.00  0.00    -0.454 OA
ATOM     14  C   UNL     1       8.738  -2.605  -2.869  1.00  0.00     0.468 C 
ENDBRANCH   5   6
ENDBRANCH   1   5
TORSDOF 3
ENDMDL
MODEL 2
REMARK VINA RESULT:      -6.9      1.089      1.179
REMARK SMILES CC(=O)CCc1ccc2c(c1)OCO2
REMARK SMILES IDX 4 1 2 2 1 3 3 4 5 5 6 6 7 7 11 8 8 9 10 10 9 11 12 12 14 13
REMARK SMILES IDX 13 14
REMARK H PARENT
REMARK Flexibility Score: inf
ROOT
ATOM      1  C   UNL     1       6.222   1.204   0.899  1.00  0.00     0.080 C 
ENDROOT
BRANCH   1   2
ATOM      2  C   UNL     1       5.563   0.375   1.925  1.00  0.00     0.130 C 
ATOM      3  C   UNL     1       6.353  -0.838   2.386  1.00  0.00     0.087 C 
ATOM      4  O   UNL     1       4.491   0.547   2.431  1.00  0.00    -0.300 OA
ENDBRANCH   1   2
BRANCH   1   5
ATOM      5  C   UNL     1       5.883   0.892  -0.506  1.00  0.00     0.043 C 
BRANCH   5   6
ATOM      6  C   UNL     1       6.863   0.122  -1.277  1.00  0.00    -0.044 A 
ATOM      7  C   UNL     1       7.816   0.734  -2.092  1.00  0.00     0.008 A 
ATOM      8  C   UNL     1       6.882  -1.251  -1.190  1.00  0.00     0.054 A 
ATOM      9  C   UNL     1       8.720  -0.047  -2.764  1.00  0.00     0.051 A 
ATOM     10  C   UNL     1       7.819  -2.027  -1.889  1.00  0.00     0.166 A 
ATOM     11  C   UNL     1       8.759  -1.422  -2.694  1.00  0.00     0.165 A 
ATOM     12  O   UNL     1       8.069  -3.390  -1.991  1.00  0.00    -0.454 OA
ATOM     13  O   UNL     1       9.563  -2.414  -3.270  1.00  0.00    -0.454 OA
ATOM     14  C   UNL     1       9.406  -3.549  -2.443  1.00  0.00     0.468 C 
ENDBRANCH   5   6
ENDBRANCH   1   5
TORSDOF 3
ENDMDL
MODEL 3
REMARK VINA RESULT:      -6.7      1.885      2.544
REMARK SMILES CC(=O)CCc1ccc2c(c1)OCO2
REMARK SMILES IDX 4 1 2 2 1 3 3 4 5 5 6 6 7 7 11 8 8 9 10 10 9 11 12 12 14 13
REMARK SMILES IDX 13 14
REMARK H PARENT
REMARK Flexibility Score: inf
ROOT
ATOM      1  C   UNL     1       6.678   0.929   1.079  1.00  0.00     0.080 C 
ENDROOT
BRANCH   1   2
ATOM      2  C   UNL     1       5.329   1.515   0.976  1.00  0.00     0.130 C 
ATOM      3  C   UNL     1       4.997   2.149  -0.364  1.00  0.00     0.087 C 
ATOM      4  O   UNL     1       4.476   1.549   1.816  1.00  0.00    -0.300 OA
ENDBRANCH   1   2
BRANCH   1   5
ATOM      5  C   UNL     1       7.486   0.932  -0.158  1.00  0.00     0.043 C 
BRANCH   5   6
ATOM      6  C   UNL     1       7.757  -0.364  -0.786  1.00  0.00    -0.044 A 
ATOM      7  C   UNL     1       7.850  -0.515  -2.171  1.00  0.00     0.008 A 
ATOM      8  C   UNL     1       7.956  -1.479  -0.006  1.00  0.00     0.054 A 
ATOM      9  C   UNL     1       8.133  -1.752  -2.689  1.00  0.00     0.051 A 
ATOM     10  C   UNL     1       8.244  -2.734  -0.563  1.00  0.00     0.166 A 
ATOM     11  C   UNL     1       8.336  -2.883  -1.929  1.00  0.00     0.165 A 
ATOM     12  O   UNL     1       8.486  -3.998  -0.038  1.00  0.00    -0.454 OA
ATOM     13  O   UNL     1       8.630  -4.222  -2.217  1.00  0.00    -0.454 OA
ATOM     14  C   UNL     1       9.176  -4.749  -1.026  1.00  0.00     0.468 C 
ENDBRANCH   5   6
ENDBRANCH   1   5
TORSDOF 3
ENDMDL
MODEL 4
REMARK VINA RESULT:      -6.7      1.114      1.616
REMARK SMILES CC(=O)CCc1ccc2c(c1)OCO2
REMARK SMILES IDX 4 1 2 2 1 3 3 4 5 5 6 6 7 7 11 8 8 9 10 10 9 11 12 12 14 13
REMARK SMILES IDX 13 14
REMARK H PARENT
REMARK Flexibility Score: inf
ROOT
ATOM      1  C   UNL     1       5.339  -0.035   1.992  1.00  0.00     0.080 C 
ENDROOT
BRANCH   1   2
ATOM      2  C   UNL     1       4.397   1.093   1.871  1.00  0.00     0.130 C 
ATOM      3  C   UNL     1       4.747   2.122   0.810  1.00  0.00     0.087 C 
ATOM      4  O   UNL     1       3.400   1.288   2.506  1.00  0.00    -0.300 OA
ENDBRANCH   1   2
BRANCH   1   5
ATOM      5  C   UNL     1       6.767   0.284   1.778  1.00  0.00     0.043 C 
BRANCH   5   6
ATOM      6  C   UNL     1       7.331  -0.016   0.459  1.00  0.00    -0.044 A 
ATOM      7  C   UNL     1       7.914   0.967  -0.342  1.00  0.00     0.008 A 
ATOM      8  C   UNL     1       7.322  -1.307  -0.016  1.00  0.00     0.054 A 
ATOM      9  C   UNL     1       8.446   0.610  -1.553  1.00  0.00     0.051 A 
ATOM     10  C   UNL     1       7.875  -1.645  -1.261  1.00  0.00     0.166 A 
ATOM     11  C   UNL     1       8.449  -0.674  -2.051  1.00  0.00     0.165 A 
ATOM     12  O   UNL     1       8.006  -2.828  -1.977  1.00  0.00    -0.454 OA
ATOM     13  O   UNL     1       8.919  -1.272  -3.228  1.00  0.00    -0.454 OA
ATOM     14  C   UNL     1       9.049  -2.645  -2.923  1.00  0.00     0.468 C 
ENDBRANCH   5   6
ENDBRANCH   1   5
TORSDOF 3
ENDMDL
MODEL 5
REMARK VINA RESULT:      -6.7      1.848      2.374
REMARK SMILES CC(=O)CCc1ccc2c(c1)OCO2
REMARK SMILES IDX 4 1 2 2 1 3 3 4 5 5 6 6 7 7 11 8 8 9 10 10 9 11 12 12 14 13
REMARK SMILES IDX 13 14
REMARK H PARENT
REMARK Flexibility Score: inf
ROOT
ATOM      1  C   UNL     1       5.743   1.007  -0.363  1.00  0.00     0.080 C 
ENDROOT
BRANCH   1   2
ATOM      2  C   UNL     1       5.374   1.165   1.056  1.00  0.00     0.130 C 
ATOM      3  C   UNL     1       5.551  -0.075   1.916  1.00  0.00     0.087 C 
ATOM      4  O   UNL     1       4.956   2.146   1.601  1.00  0.00    -0.300 OA
ENDBRANCH   1   2
BRANCH   1   5
ATOM      5  C   UNL     1       7.188   0.876  -0.648  1.00  0.00     0.043 C 
BRANCH   5   6
ATOM      6  C   UNL     1       7.657  -0.416  -1.156  1.00  0.00    -0.044 A 
ATOM      7  C   UNL     1       7.993  -0.611  -2.496  1.00  0.00     0.008 A 
ATOM      8  C   UNL     1       7.805  -1.480  -0.297  1.00  0.00     0.054 A 
ATOM      9  C   UNL     1       8.451  -1.840  -2.896  1.00  0.00     0.051 A 
ATOM     10  C   UNL     1       8.277  -2.728  -0.733  1.00  0.00     0.166 A 
ATOM     11  C   UNL     1       8.608  -2.920  -2.056  1.00  0.00     0.165 A 
ATOM     12  O   UNL     1       8.521  -3.946  -0.112  1.00  0.00    -0.454 OA
ATOM     13  O   UNL     1       9.046  -4.240  -2.223  1.00  0.00    -0.454 OA
ATOM     14  C   UNL     1       9.422  -4.675  -0.932  1.00  0.00     0.468 C 
ENDBRANCH   5   6
ENDBRANCH   1   5
TORSDOF 3
ENDMDL
