@<TRIPOS>MOLECULE
/home/cewinharhar/GITHUB/reincatalyze/data/processed/docking_pred/2023-May-31-1727_sub9_nm5_bs15_s42_ex16_mel10_mts10000_k50_ec075_g099_lra3e-4_lrc3e-3/ab955c776f37f5544fae82246801d9a2769dfb79_ligand_9.pdbqt
 14 15 0 0 0
SMALL
GASTEIGER

@<TRIPOS>ATOM
      1  C          5.3390   -0.0350    1.9920 C.3     1  UNL1        0.0800
      2  C          4.3970    1.0930    1.8710 C.2     1  UNL1        0.1300
      3  C          4.7470    2.1220    0.8100 C.3     1  UNL1        0.0870
      4  O          3.4000    1.2880    2.5060 O.2     1  UNL1       -0.3000
      5  C          6.7670    0.2840    1.7780 C.3     1  UNL1        0.0430
      6  C          7.3310   -0.0160    0.4590 C.2     1  UNL1       -0.0440
      7  C          7.9140    0.9670   -0.3420 C.2     1  UNL1        0.0080
      8  C          7.3220   -1.3070   -0.0160 C.2     1  UNL1        0.0540
      9  C          8.4460    0.6100   -1.5530 C.2     1  UNL1        0.0510
     10  C          7.8750   -1.6450   -1.2610 C.2     1  UNL1        0.1660
     11  C          8.4490   -0.6740   -2.0510 C.2     1  UNL1        0.1650
     12  O          8.0060   -2.8280   -1.9770 O.2     1  UNL1       -0.4540
     13  O          8.9190   -1.2720   -3.2280 O.2     1  UNL1       -0.4540
     14  C          9.0490   -2.6450   -2.9230 C.3     1  UNL1        0.4680
@<TRIPOS>BOND
     1    13    14    1
     2    13    11    1
     3    14    12    1
     4    11     9    2
     5    11    10    1
     6    12    10    1
     7     9     7    1
     8    10     8    2
     9     7     6    2
    10     8     6    1
    11     6     5    1
    12     3     2    1
    13     5     1    1
    14     2     1    1
    15     2     4    2
