@<TRIPOS>MOLECULE
/home/cewinharhar/GITHUB/reincatalyze/data/processed/docking_pred/2023-May-31-1727_sub9_nm5_bs15_s42_ex16_mel10_mts10000_k50_ec075_g099_lra3e-4_lrc3e-3/ada201db5b439d74c350b173ce56903753062bb1_ligand_9.pdbqt
 14 15 0 0 0
SMALL
GASTEIGER

@<TRIPOS>ATOM
      1  C          5.6870    1.3660   -0.3430 C.3     1  UNL1        0.0800
      2  C          5.0790    1.3760    1.0000 C.2     1  UNL1        0.1300
      3  C          5.5360    0.2640    1.9290 C.3     1  UNL1        0.0870
      4  O          4.2760    2.1500    1.4380 O.2     1  UNL1       -0.3000
      5  C          7.1370    1.0850   -0.3990 C.3     1  UNL1        0.0430
      6  C          7.5490   -0.2030   -0.9650 C.2     1  UNL1       -0.0440
      7  C          7.7670   -0.3780   -2.3320 C.2     1  UNL1        0.0080
      8  C          7.7610   -1.2820   -0.1390 C.2     1  UNL1        0.0540
      9  C          8.1770   -1.6040   -2.7900 C.2     1  UNL1        0.0510
     10  C          8.1820   -2.5250   -0.6340 C.2     1  UNL1        0.1660
     11  C          8.3960   -2.6990   -1.9840 C.2     1  UNL1        0.1650
     12  O          8.4670   -3.7560   -0.0550 O.2     1  UNL1       -0.4540
     13  O          8.8060   -4.0190   -2.2080 O.2     1  UNL1       -0.4540
     14  C          9.2880   -4.4780   -0.9620 C.3     1  UNL1        0.4680
@<TRIPOS>BOND
     1     9     7    1
     2     9    11    2
     3     7     6    2
     4    13    11    1
     5    13    14    1
     6    11    10    1
     7     6     5    1
     8     6     8    1
     9    14    12    1
    10    10     8    2
    11    10    12    1
    12     5     1    1
    13     1     2    1
    14     2     4    2
    15     2     3    1
