@<TRIPOS>MOLECULE
/home/cewinharhar/GITHUB/reincatalyze/data/processed/docking_pred/2023-May-31-1727_sub9_nm5_bs15_s42_ex16_mel10_mts10000_k50_ec075_g099_lra3e-4_lrc3e-3/ae2b7ca0e57384ee3cd7889808440c06f68d274f_ligand_9.pdbqt
 14 15 0 0 0
SMALL
GASTEIGER

@<TRIPOS>ATOM
      1  C          5.5300    1.8850    1.2190 C.3     1  UNL1        0.0800
      2  C          5.0060    0.7510    2.0020 C.2     1  UNL1        0.1300
      3  C          5.9490   -0.4310    2.1450 C.3     1  UNL1        0.0870
      4  O          3.9360    0.6550    2.5330 O.2     1  UNL1       -0.3000
      5  C          5.5140    1.7240   -0.2500 C.3     1  UNL1        0.0430
      6  C          6.6260    0.9870   -0.8550 C.2     1  UNL1       -0.0440
      7  C          7.9580    1.3590   -0.6620 C.2     1  UNL1        0.0080
      8  C          6.3780   -0.1280   -1.6210 C.2     1  UNL1        0.0540
      9  C          8.9500    0.6070   -1.2370 C.2     1  UNL1        0.0510
     10  C          7.4130   -0.8800   -2.1980 C.2     1  UNL1        0.1660
     11  C          8.7270   -0.5120   -2.0070 C.2     1  UNL1        0.1650
     12  O          7.4600   -2.0170   -2.9950 O.2     1  UNL1       -0.4540
     13  O          9.5510   -1.4220   -2.6830 O.2     1  UNL1       -0.4540
     14  C          8.7590   -2.5770   -2.8670 C.3     1  UNL1        0.4680
@<TRIPOS>BOND
     1    12    14    1
     2    12    10    1
     3    14    13    1
     4    13    11    1
     5    10    11    2
     6    10     8    1
     7    11     9    1
     8     8     6    2
     9     9     7    2
    10     6     7    1
    11     6     5    1
    12     5     1    1
    13     1     2    1
    14     2     3    1
    15     2     4    2
