@<TRIPOS>MOLECULE
/home/cewinharhar/GITHUB/reincatalyze/data/processed/docking_pred/2023-May-31-1727_sub9_nm5_bs15_s42_ex16_mel10_mts10000_k50_ec075_g099_lra3e-4_lrc3e-3/ae45d061dddc84380b8ad6f9293329cc64ca5b9d_ligand_9.pdbqt
 14 15 0 0 0
SMALL
GASTEIGER

@<TRIPOS>ATOM
      1  C          5.5520    1.9000    1.2040 C.3     1  UNL1        0.0800
      2  C          5.0590    0.7590    1.9970 C.2     1  UNL1        0.1300
      3  C          6.0440   -0.3850    2.1720 C.3     1  UNL1        0.0870
      4  O          3.9860    0.6310    2.5130 O.2     1  UNL1       -0.3000
      5  C          5.5320    1.7300   -0.2640 C.3     1  UNL1        0.0430
      6  C          6.6400    0.9850   -0.8680 C.2     1  UNL1       -0.0440
      7  C          7.9740    1.3490   -0.6760 C.2     1  UNL1        0.0080
      8  C          6.3840   -0.1300   -1.6310 C.2     1  UNL1        0.0540
      9  C          8.9610    0.5900   -1.2490 C.2     1  UNL1        0.0510
     10  C          7.4150   -0.8890   -2.2060 C.2     1  UNL1        0.1660
     11  C          8.7310   -0.5300   -2.0170 C.2     1  UNL1        0.1650
     12  O          7.4550   -2.0290   -3.0000 O.2     1  UNL1       -0.4540
     13  O          9.5490   -1.4450   -2.6910 O.2     1  UNL1       -0.4540
     14  C          8.7510   -2.5960   -2.8720 C.3     1  UNL1        0.4680
@<TRIPOS>BOND
     1    12    14    1
     2    12    10    1
     3    14    13    1
     4    13    11    1
     5    10    11    2
     6    10     8    1
     7    11     9    1
     8     8     6    2
     9     9     7    2
    10     6     7    1
    11     6     5    1
    12     5     1    1
    13     1     2    1
    14     2     3    1
    15     2     4    2
