@<TRIPOS>MOLECULE
/home/cewinharhar/GITHUB/reincatalyze/data/processed/docking_pred/2023-May-31-1727_sub9_nm5_bs15_s42_ex16_mel10_mts10000_k50_ec075_g099_lra3e-4_lrc3e-3/ae45d061dddc84380b8ad6f9293329cc64ca5b9d_ligand_9.pdbqt
 14 15 0 0 0
SMALL
GASTEIGER

@<TRIPOS>ATOM
      1  C          6.1070    1.6000   -0.0720 C.3     1  UNL1        0.0800
      2  C          5.1900    1.4390    1.0710 C.2     1  UNL1        0.1300
      3  C          5.4440    0.2190    1.9400 C.3     1  UNL1        0.0870
      4  O          4.2790    2.1490    1.3900 O.2     1  UNL1       -0.3000
      5  C          7.4530    1.0110    0.0850 C.3     1  UNL1        0.0430
      6  C          7.7150   -0.2560   -0.6040 C.2     1  UNL1       -0.0440
      7  C          7.7400   -0.3540   -1.9960 C.2     1  UNL1        0.0080
      8  C          7.9740   -1.3950    0.1230 C.2     1  UNL1        0.0540
      9  C          8.0180   -1.5660   -2.5740 C.2     1  UNL1        0.0510
     10  C          8.2560   -2.6230   -0.4940 C.2     1  UNL1        0.1660
     11  C          8.2800   -2.7200   -1.8680 C.2     1  UNL1        0.1650
     12  O          8.5470   -3.8990   -0.0300 O.2     1  UNL1       -0.4540
     13  O          8.5830   -4.0410   -2.2210 O.2     1  UNL1       -0.4540
     14  C          9.1990   -4.6000   -1.0790 C.3     1  UNL1        0.4680
@<TRIPOS>BOND
     1     9     7    1
     2     9    11    2
     3    13    11    1
     4    13    14    1
     5     7     6    2
     6    11    10    1
     7    14    12    1
     8     6     5    1
     9     6     8    1
    10    10    12    1
    11    10     8    2
    12     1     5    1
    13     1     2    1
    14     2     4    2
    15     2     3    1
