@<TRIPOS>MOLECULE
/home/cewinharhar/GITHUB/reincatalyze/data/processed/docking_pred/2023-May-31-1727_sub9_nm5_bs15_s42_ex16_mel10_mts10000_k50_ec075_g099_lra3e-4_lrc3e-3/ae45d061dddc84380b8ad6f9293329cc64ca5b9d_ligand_9.pdbqt
 14 15 0 0 0
SMALL
GASTEIGER

@<TRIPOS>ATOM
      1  C          6.1780    1.2770    0.8100 C.3     1  UNL1        0.0800
      2  C          5.5250    0.4610    1.8500 C.2     1  UNL1        0.1300
      3  C          6.3050   -0.7620    2.3010 C.3     1  UNL1        0.0870
      4  O          4.4640    0.6490    2.3740 O.2     1  UNL1       -0.3000
      5  C          5.8680    0.9190   -0.5890 C.3     1  UNL1        0.0430
      6  C          6.8790    0.1550   -1.3260 C.2     1  UNL1       -0.0440
      7  C          7.9010    0.7760   -2.0470 C.2     1  UNL1        0.0080
      8  C          6.8600   -1.2200   -1.2980 C.2     1  UNL1        0.0540
      9  C          8.8290   -0.0010   -2.6900 C.2     1  UNL1        0.0510
     10  C          7.8240   -1.9900   -1.9650 C.2     1  UNL1        0.1660
     11  C          8.8310   -1.3780   -2.6770 C.2     1  UNL1        0.1650
     12  O          8.0480   -3.3540   -2.1090 O.2     1  UNL1       -0.4540
     13  O          9.6490   -2.3660   -3.2400 O.2     1  UNL1       -0.4540
     14  C          9.4090   -3.5290   -2.4770 C.3     1  UNL1        0.4680
@<TRIPOS>BOND
     1    13    11    1
     2    13    14    1
     3     9    11    2
     4     9     7    1
     5    11    10    1
     6    14    12    1
     7    12    10    1
     8     7     6    2
     9    10     8    2
    10     6     8    1
    11     6     5    1
    12     5     1    1
    13     1     2    1
    14     2     3    1
    15     2     4    2
