MODEL 1
REMARK VINA RESULT:      -7.6      0.000      0.000
REMARK SMILES CC(=O)CCc1ccc2c(c1)OCO2
REMARK SMILES IDX 4 1 2 2 1 3 3 4 5 5 6 6 7 7 11 8 8 9 10 10 9 11 12 12 14 13
REMARK SMILES IDX 13 14
REMARK H PARENT
REMARK Flexibility Score: inf
ROOT
ATOM      1  C   UNL     1       5.552   1.900   1.204  1.00  0.00     0.080 C 
ENDROOT
BRANCH   1   2
ATOM      2  C   UNL     1       5.059   0.759   1.997  1.00  0.00     0.130 C 
ATOM      3  C   UNL     1       6.044  -0.385   2.172  1.00  0.00     0.087 C 
ATOM      4  O   UNL     1       3.986   0.631   2.513  1.00  0.00    -0.300 OA
ENDBRANCH   1   2
BRANCH   1   5
ATOM      5  C   UNL     1       5.532   1.730  -0.264  1.00  0.00     0.043 C 
BRANCH   5   6
ATOM      6  C   UNL     1       6.640   0.985  -0.868  1.00  0.00    -0.044 A 
ATOM      7  C   UNL     1       7.974   1.349  -0.676  1.00  0.00     0.008 A 
ATOM      8  C   UNL     1       6.384  -0.130  -1.631  1.00  0.00     0.054 A 
ATOM      9  C   UNL     1       8.961   0.590  -1.249  1.00  0.00     0.051 A 
ATOM     10  C   UNL     1       7.415  -0.889  -2.206  1.00  0.00     0.166 A 
ATOM     11  C   UNL     1       8.731  -0.530  -2.017  1.00  0.00     0.165 A 
ATOM     12  O   UNL     1       7.455  -2.029  -3.000  1.00  0.00    -0.454 OA
ATOM     13  O   UNL     1       9.549  -1.445  -2.691  1.00  0.00    -0.454 OA
ATOM     14  C   UNL     1       8.751  -2.596  -2.872  1.00  0.00     0.468 C 
ENDBRANCH   5   6
ENDBRANCH   1   5
TORSDOF 3
ENDMDL
MODEL 2
REMARK VINA RESULT:      -7.0      1.043      1.130
REMARK SMILES CC(=O)CCc1ccc2c(c1)OCO2
REMARK SMILES IDX 4 1 2 2 1 3 3 4 5 5 6 6 7 7 11 8 8 9 10 10 9 11 12 12 14 13
REMARK SMILES IDX 13 14
REMARK H PARENT
REMARK Flexibility Score: inf
ROOT
ATOM      1  C   UNL     1       6.178   1.277   0.810  1.00  0.00     0.080 C 
ENDROOT
BRANCH   1   2
ATOM      2  C   UNL     1       5.525   0.461   1.850  1.00  0.00     0.130 C 
ATOM      3  C   UNL     1       6.305  -0.762   2.301  1.00  0.00     0.087 C 
ATOM      4  O   UNL     1       4.464   0.649   2.374  1.00  0.00    -0.300 OA
ENDBRANCH   1   2
BRANCH   1   5
ATOM      5  C   UNL     1       5.868   0.919  -0.589  1.00  0.00     0.043 C 
BRANCH   5   6
ATOM      6  C   UNL     1       6.879   0.155  -1.326  1.00  0.00    -0.044 A 
ATOM      7  C   UNL     1       7.901   0.776  -2.047  1.00  0.00     0.008 A 
ATOM      8  C   UNL     1       6.860  -1.220  -1.298  1.00  0.00     0.054 A 
ATOM      9  C   UNL     1       8.829  -0.001  -2.690  1.00  0.00     0.051 A 
ATOM     10  C   UNL     1       7.824  -1.990  -1.965  1.00  0.00     0.166 A 
ATOM     11  C   UNL     1       8.831  -1.378  -2.677  1.00  0.00     0.165 A 
ATOM     12  O   UNL     1       8.048  -3.354  -2.109  1.00  0.00    -0.454 OA
ATOM     13  O   UNL     1       9.649  -2.366  -3.240  1.00  0.00    -0.454 OA
ATOM     14  C   UNL     1       9.409  -3.529  -2.477  1.00  0.00     0.468 C 
ENDBRANCH   5   6
ENDBRANCH   1   5
TORSDOF 3
ENDMDL
MODEL 3
REMARK VINA RESULT:      -6.9      1.886      2.308
REMARK SMILES CC(=O)CCc1ccc2c(c1)OCO2
REMARK SMILES IDX 4 1 2 2 1 3 3 4 5 5 6 6 7 7 11 8 8 9 10 10 9 11 12 12 14 13
REMARK SMILES IDX 13 14
REMARK H PARENT
REMARK Flexibility Score: inf
ROOT
ATOM      1  C   UNL     1       6.107   1.600  -0.072  1.00  0.00     0.080 C 
ENDROOT
BRANCH   1   2
ATOM      2  C   UNL     1       5.190   1.439   1.071  1.00  0.00     0.130 C 
ATOM      3  C   UNL     1       5.444   0.219   1.940  1.00  0.00     0.087 C 
ATOM      4  O   UNL     1       4.279   2.149   1.390  1.00  0.00    -0.300 OA
ENDBRANCH   1   2
BRANCH   1   5
ATOM      5  C   UNL     1       7.453   1.011   0.085  1.00  0.00     0.043 C 
BRANCH   5   6
ATOM      6  C   UNL     1       7.715  -0.256  -0.604  1.00  0.00    -0.044 A 
ATOM      7  C   UNL     1       7.740  -0.354  -1.996  1.00  0.00     0.008 A 
ATOM      8  C   UNL     1       7.974  -1.395   0.123  1.00  0.00     0.054 A 
ATOM      9  C   UNL     1       8.018  -1.566  -2.574  1.00  0.00     0.051 A 
ATOM     10  C   UNL     1       8.256  -2.623  -0.494  1.00  0.00     0.166 A 
ATOM     11  C   UNL     1       8.280  -2.720  -1.868  1.00  0.00     0.165 A 
ATOM     12  O   UNL     1       8.547  -3.899  -0.030  1.00  0.00    -0.454 OA
ATOM     13  O   UNL     1       8.583  -4.041  -2.221  1.00  0.00    -0.454 OA
ATOM     14  C   UNL     1       9.199  -4.600  -1.079  1.00  0.00     0.468 C 
ENDBRANCH   5   6
ENDBRANCH   1   5
TORSDOF 3
ENDMDL
MODEL 4
REMARK VINA RESULT:      -6.7      1.110      1.614
REMARK SMILES CC(=O)CCc1ccc2c(c1)OCO2
REMARK SMILES IDX 4 1 2 2 1 3 3 4 5 5 6 6 7 7 11 8 8 9 10 10 9 11 12 12 14 13
REMARK SMILES IDX 13 14
REMARK H PARENT
REMARK Flexibility Score: inf
ROOT
ATOM      1  C   UNL     1       5.335  -0.022   1.989  1.00  0.00     0.080 C 
ENDROOT
BRANCH   1   2
ATOM      2  C   UNL     1       4.388   1.101   1.869  1.00  0.00     0.130 C 
ATOM      3  C   UNL     1       4.733   2.132   0.807  1.00  0.00     0.087 C 
ATOM      4  O   UNL     1       3.390   1.293   2.504  1.00  0.00    -0.300 OA
ENDBRANCH   1   2
BRANCH   1   5
ATOM      5  C   UNL     1       6.760   0.300   1.762  1.00  0.00     0.043 C 
BRANCH   5   6
ATOM      6  C   UNL     1       7.312  -0.000   0.438  1.00  0.00    -0.044 A 
ATOM      7  C   UNL     1       7.870   0.987  -0.377  1.00  0.00     0.008 A 
ATOM      8  C   UNL     1       7.317  -1.294  -0.029  1.00  0.00     0.054 A 
ATOM      9  C   UNL     1       8.393   0.630  -1.592  1.00  0.00     0.051 A 
ATOM     10  C   UNL     1       7.859  -1.631  -1.278  1.00  0.00     0.166 A 
ATOM     11  C   UNL     1       8.410  -0.657  -2.082  1.00  0.00     0.165 A 
ATOM     12  O   UNL     1       7.999  -2.817  -1.989  1.00  0.00    -0.454 OA
ATOM     13  O   UNL     1       8.874  -1.256  -3.261  1.00  0.00    -0.454 OA
ATOM     14  C   UNL     1       9.028  -2.625  -2.948  1.00  0.00     0.468 C 
ENDBRANCH   5   6
ENDBRANCH   1   5
TORSDOF 3
ENDMDL
MODEL 5
REMARK VINA RESULT:      -6.6      1.989      2.498
REMARK SMILES CC(=O)CCc1ccc2c(c1)OCO2
REMARK SMILES IDX 4 1 2 2 1 3 3 4 5 5 6 6 7 7 11 8 8 9 10 10 9 11 12 12 14 13
REMARK SMILES IDX 13 14
REMARK H PARENT
REMARK Flexibility Score: inf
ROOT
ATOM      1  C   UNL     1       6.133   0.263   1.958  1.00  0.00     0.080 C 
ENDROOT
BRANCH   1   2
ATOM      2  C   UNL     1       4.909   1.060   1.755  1.00  0.00     0.130 C 
ATOM      3  C   UNL     1       4.949   2.026   0.583  1.00  0.00     0.087 C 
ATOM      4  O   UNL     1       3.899   1.034   2.399  1.00  0.00    -0.300 OA
ENDBRANCH   1   2
BRANCH   1   5
ATOM      5  C   UNL     1       7.224   0.486   0.987  1.00  0.00     0.043 C 
BRANCH   5   6
ATOM      6  C   UNL     1       7.535  -0.610   0.065  1.00  0.00    -0.044 A 
ATOM      7  C   UNL     1       7.457  -0.462  -1.321  1.00  0.00     0.008 A 
ATOM      8  C   UNL     1       7.946  -1.827   0.556  1.00  0.00     0.054 A 
ATOM      9  C   UNL     1       7.789  -1.522  -2.124  1.00  0.00     0.051 A 
ATOM     10  C   UNL     1       8.280  -2.896  -0.290  1.00  0.00     0.166 A 
ATOM     11  C   UNL     1       8.203  -2.749  -1.657  1.00  0.00     0.165 A 
ATOM     12  O   UNL     1       8.714  -4.199  -0.083  1.00  0.00    -0.454 OA
ATOM     13  O   UNL     1       8.587  -3.953  -2.261  1.00  0.00    -0.454 OA
ATOM     14  C   UNL     1       9.337  -4.640  -1.281  1.00  0.00     0.468 C 
ENDBRANCH   5   6
ENDBRANCH   1   5
TORSDOF 3
ENDMDL
