@<TRIPOS>MOLECULE
/home/cewinharhar/GITHUB/reincatalyze/data/processed/docking_pred/2023-May-31-1727_sub9_nm5_bs15_s42_ex16_mel10_mts10000_k50_ec075_g099_lra3e-4_lrc3e-3/ae45d061dddc84380b8ad6f9293329cc64ca5b9d_ligand_9.pdbqt
 14 15 0 0 0
SMALL
GASTEIGER

@<TRIPOS>ATOM
      1  C          6.1330    0.2630    1.9580 C.3     1  UNL1        0.0800
      2  C          4.9090    1.0600    1.7550 C.2     1  UNL1        0.1300
      3  C          4.9490    2.0260    0.5830 C.3     1  UNL1        0.0870
      4  O          3.8990    1.0340    2.3990 O.2     1  UNL1       -0.3000
      5  C          7.2240    0.4860    0.9870 C.3     1  UNL1        0.0430
      6  C          7.5350   -0.6100    0.0650 C.2     1  UNL1       -0.0440
      7  C          7.4570   -0.4620   -1.3210 C.2     1  UNL1        0.0080
      8  C          7.9460   -1.8270    0.5560 C.2     1  UNL1        0.0540
      9  C          7.7890   -1.5220   -2.1240 C.2     1  UNL1        0.0510
     10  C          8.2800   -2.8960   -0.2900 C.2     1  UNL1        0.1660
     11  C          8.2030   -2.7490   -1.6570 C.2     1  UNL1        0.1650
     12  O          8.7140   -4.1990   -0.0830 O.2     1  UNL1       -0.4540
     13  O          8.5870   -3.9530   -2.2610 O.2     1  UNL1       -0.4540
     14  C          9.3370   -4.6400   -1.2810 C.3     1  UNL1        0.4680
@<TRIPOS>BOND
     1    13    11    1
     2    13    14    1
     3     9    11    2
     4     9     7    1
     5    11    10    1
     6     7     6    2
     7    14    12    1
     8    10    12    1
     9    10     8    2
    10     6     8    1
    11     6     5    1
    12     3     2    1
    13     5     1    1
    14     2     1    1
    15     2     4    2
