@<TRIPOS>MOLECULE
/home/cewinharhar/GITHUB/reincatalyze/data/processed/docking_pred/2023-May-31-1727_sub9_nm5_bs15_s42_ex16_mel10_mts10000_k50_ec075_g099_lra3e-4_lrc3e-3/ae62664a3c9eef67376bdc077c2faa7ac5a69a78_ligand_9.pdbqt
 14 15 0 0 0
SMALL
GASTEIGER

@<TRIPOS>ATOM
      1  C          5.5830    1.8910    1.2540 C.3     1  UNL1        0.0800
      2  C          5.0260    0.7470    1.9980 C.2     1  UNL1        0.1300
      3  C          5.9460   -0.4550    2.1260 C.3     1  UNL1        0.0870
      4  O          3.9450    0.6560    2.5070 O.2     1  UNL1       -0.3000
      5  C          5.5770    1.7750   -0.2190 C.3     1  UNL1        0.0430
      6  C          6.6710    1.0210   -0.8360 C.2     1  UNL1       -0.0440
      7  C          8.0090    1.3890   -0.6810 C.2     1  UNL1        0.0080
      8  C          6.3990   -0.1070   -1.5740 C.2     1  UNL1        0.0540
      9  C          8.9830    0.6210   -1.2650 C.2     1  UNL1        0.0510
     10  C          7.4170   -0.8760   -2.1600 C.2     1  UNL1        0.1660
     11  C          8.7370   -0.5120   -2.0080 C.2     1  UNL1        0.1650
     12  O          7.4400   -2.0290   -2.9360 O.2     1  UNL1       -0.4540
     13  O          9.5400   -1.4380   -2.6850 O.2     1  UNL1       -0.4540
     14  C          8.7390   -2.5930   -2.8280 C.3     1  UNL1        0.4680
@<TRIPOS>BOND
     1    12    14    1
     2    12    10    1
     3    14    13    1
     4    13    11    1
     5    10    11    2
     6    10     8    1
     7    11     9    1
     8     8     6    2
     9     9     7    2
    10     6     7    1
    11     6     5    1
    12     5     1    1
    13     1     2    1
    14     2     3    1
    15     2     4    2
