@<TRIPOS>MOLECULE
/home/cewinharhar/GITHUB/reincatalyze/data/processed/docking_pred/2023-May-31-1727_sub9_nm5_bs15_s42_ex16_mel10_mts10000_k50_ec075_g099_lra3e-4_lrc3e-3/ae62664a3c9eef67376bdc077c2faa7ac5a69a78_ligand_9.pdbqt
 14 15 0 0 0
SMALL
GASTEIGER

@<TRIPOS>ATOM
      1  C          6.1830    1.2190    0.9160 C.3     1  UNL1        0.0800
      2  C          5.5240    0.3750    1.9300 C.2     1  UNL1        0.1300
      3  C          6.3160   -0.8410    2.3780 C.3     1  UNL1        0.0870
      4  O          4.4490    0.5370    2.4350 O.2     1  UNL1       -0.3000
      5  C          5.8900    0.8900   -0.4950 C.3     1  UNL1        0.0430
      6  C          6.9120    0.1470   -1.2360 C.2     1  UNL1       -0.0440
      7  C          7.9930    0.7810   -1.8520 C.2     1  UNL1        0.0080
      8  C          6.8430   -1.2240   -1.3200 C.2     1  UNL1        0.0540
      9  C          8.9280    0.0210   -2.5060 C.2     1  UNL1        0.0510
     10  C          7.8140   -1.9780   -1.9960 C.2     1  UNL1        0.1660
     11  C          8.8800   -1.3520   -2.6040 C.2     1  UNL1        0.1650
     12  O          7.9980   -3.3340   -2.2370 O.2     1  UNL1       -0.4540
     13  O          9.6920   -2.3240   -3.2010 O.2     1  UNL1       -0.4540
     14  C          9.3690   -3.5340   -2.5470 C.3     1  UNL1        0.4680
@<TRIPOS>BOND
     1    13    11    1
     2    13    14    1
     3    11     9    2
     4    11    10    1
     5    14    12    1
     6     9     7    1
     7    12    10    1
     8    10     8    2
     9     7     6    2
    10     8     6    1
    11     6     5    1
    12     5     1    1
    13     1     2    1
    14     2     3    1
    15     2     4    2
