@<TRIPOS>MOLECULE
/home/cewinharhar/GITHUB/reincatalyze/data/processed/docking_pred/2023-May-31-1727_sub9_nm5_bs15_s42_ex16_mel10_mts10000_k50_ec075_g099_lra3e-4_lrc3e-3/ae62664a3c9eef67376bdc077c2faa7ac5a69a78_ligand_9.pdbqt
 14 15 0 0 0
SMALL
GASTEIGER

@<TRIPOS>ATOM
      1  C          6.5670    1.0680    1.4460 C.3     1  UNL1        0.0800
      2  C          5.2180    1.5980    1.1750 C.2     1  UNL1        0.1300
      3  C          5.0060    2.1500   -0.2250 C.3     1  UNL1        0.0870
      4  O          4.2820    1.6430    1.9210 O.2     1  UNL1       -0.3000
      5  C          7.5180    1.0970    0.3150 C.3     1  UNL1        0.0430
      6  C          7.7240   -0.1550   -0.4190 C.2     1  UNL1       -0.0440
      7  C          7.6750   -0.2170   -1.8120 C.2     1  UNL1        0.0080
      8  C          8.0060   -1.3150    0.2640 C.2     1  UNL1        0.0540
      9  C          7.9050   -1.4170   -2.4340 C.2     1  UNL1        0.0510
     10  C          8.2380   -2.5300   -0.3980 C.2     1  UNL1        0.1660
     11  C          8.1880   -2.5920   -1.7730 C.2     1  UNL1        0.1650
     12  O          8.5360   -3.8220    0.0170 O.2     1  UNL1       -0.4540
     13  O          8.4540   -3.9070   -2.1750 O.2     1  UNL1       -0.4540
     14  C          9.1210   -4.5030   -1.0820 C.3     1  UNL1        0.4680
@<TRIPOS>BOND
     1     9     7    1
     2     9    11    2
     3    13    11    1
     4    13    14    1
     5     7     6    2
     6    11    10    1
     7    14    12    1
     8     6     8    1
     9     6     5    1
    10    10    12    1
    11    10     8    2
    12     3     2    1
    13     5     1    1
    14     2     1    1
    15     2     4    2
