MODEL 1
REMARK VINA RESULT:      -7.6      0.000      0.000
REMARK SMILES CC(=O)CCc1ccc2c(c1)OCO2
REMARK SMILES IDX 4 1 2 2 1 3 3 4 5 5 6 6 7 7 11 8 8 9 10 10 9 11 12 12 14 13
REMARK SMILES IDX 13 14
REMARK H PARENT
REMARK Flexibility Score: inf
ROOT
ATOM      1  C   UNL     1       5.583   1.891   1.254  1.00  0.00     0.080 C 
ENDROOT
BRANCH   1   2
ATOM      2  C   UNL     1       5.026   0.747   1.998  1.00  0.00     0.130 C 
ATOM      3  C   UNL     1       5.946  -0.455   2.126  1.00  0.00     0.087 C 
ATOM      4  O   UNL     1       3.945   0.656   2.507  1.00  0.00    -0.300 OA
ENDBRANCH   1   2
BRANCH   1   5
ATOM      5  C   UNL     1       5.577   1.775  -0.219  1.00  0.00     0.043 C 
BRANCH   5   6
ATOM      6  C   UNL     1       6.671   1.021  -0.836  1.00  0.00    -0.044 A 
ATOM      7  C   UNL     1       8.009   1.389  -0.681  1.00  0.00     0.008 A 
ATOM      8  C   UNL     1       6.399  -0.107  -1.574  1.00  0.00     0.054 A 
ATOM      9  C   UNL     1       8.983   0.621  -1.265  1.00  0.00     0.051 A 
ATOM     10  C   UNL     1       7.417  -0.876  -2.160  1.00  0.00     0.166 A 
ATOM     11  C   UNL     1       8.737  -0.512  -2.008  1.00  0.00     0.165 A 
ATOM     12  O   UNL     1       7.440  -2.029  -2.936  1.00  0.00    -0.454 OA
ATOM     13  O   UNL     1       9.540  -1.438  -2.685  1.00  0.00    -0.454 OA
ATOM     14  C   UNL     1       8.739  -2.593  -2.828  1.00  0.00     0.468 C 
ENDBRANCH   5   6
ENDBRANCH   1   5
TORSDOF 3
ENDMDL
MODEL 2
REMARK VINA RESULT:      -7.0      1.824      2.300
REMARK SMILES CC(=O)CCc1ccc2c(c1)OCO2
REMARK SMILES IDX 4 1 2 2 1 3 3 4 5 5 6 6 7 7 11 8 8 9 10 10 9 11 12 12 14 13
REMARK SMILES IDX 13 14
REMARK H PARENT
REMARK Flexibility Score: inf
ROOT
ATOM      1  C   UNL     1       5.775   1.406  -0.257  1.00  0.00     0.080 C 
ENDROOT
BRANCH   1   2
ATOM      2  C   UNL     1       5.113   1.333   1.058  1.00  0.00     0.130 C 
ATOM      3  C   UNL     1       5.514   0.151   1.924  1.00  0.00     0.087 C 
ATOM      4  O   UNL     1       4.305   2.090   1.517  1.00  0.00    -0.300 OA
ENDBRANCH   1   2
BRANCH   1   5
ATOM      5  C   UNL     1       7.204   1.028  -0.288  1.00  0.00     0.043 C 
BRANCH   5   6
ATOM      6  C   UNL     1       7.541  -0.272  -0.873  1.00  0.00    -0.044 A 
ATOM      7  C   UNL     1       7.612  -0.472  -2.253  1.00  0.00     0.008 A 
ATOM      8  C   UNL     1       7.827  -1.341  -0.056  1.00  0.00     0.054 A 
ATOM      9  C   UNL     1       7.960  -1.709  -2.730  1.00  0.00     0.051 A 
ATOM     10  C   UNL     1       8.181  -2.597  -0.572  1.00  0.00     0.166 A 
ATOM     11  C   UNL     1       8.251  -2.794  -1.934  1.00  0.00     0.165 A 
ATOM     12  O   UNL     1       8.514  -3.822  -0.006  1.00  0.00    -0.454 OA
ATOM     13  O   UNL     1       8.621  -4.122  -2.179  1.00  0.00    -0.454 OA
ATOM     14  C   UNL     1       9.227  -4.567  -0.982  1.00  0.00     0.468 C 
ENDBRANCH   5   6
ENDBRANCH   1   5
TORSDOF 3
ENDMDL
MODEL 3
REMARK VINA RESULT:      -7.0      0.994      1.084
REMARK SMILES CC(=O)CCc1ccc2c(c1)OCO2
REMARK SMILES IDX 4 1 2 2 1 3 3 4 5 5 6 6 7 7 11 8 8 9 10 10 9 11 12 12 14 13
REMARK SMILES IDX 13 14
REMARK H PARENT
REMARK Flexibility Score: inf
ROOT
ATOM      1  C   UNL     1       6.183   1.219   0.916  1.00  0.00     0.080 C 
ENDROOT
BRANCH   1   2
ATOM      2  C   UNL     1       5.524   0.375   1.930  1.00  0.00     0.130 C 
ATOM      3  C   UNL     1       6.316  -0.841   2.378  1.00  0.00     0.087 C 
ATOM      4  O   UNL     1       4.449   0.537   2.435  1.00  0.00    -0.300 OA
ENDBRANCH   1   2
BRANCH   1   5
ATOM      5  C   UNL     1       5.890   0.890  -0.495  1.00  0.00     0.043 C 
BRANCH   5   6
ATOM      6  C   UNL     1       6.912   0.147  -1.236  1.00  0.00    -0.044 A 
ATOM      7  C   UNL     1       7.993   0.781  -1.852  1.00  0.00     0.008 A 
ATOM      8  C   UNL     1       6.843  -1.224  -1.320  1.00  0.00     0.054 A 
ATOM      9  C   UNL     1       8.928   0.021  -2.506  1.00  0.00     0.051 A 
ATOM     10  C   UNL     1       7.814  -1.978  -1.996  1.00  0.00     0.166 A 
ATOM     11  C   UNL     1       8.880  -1.352  -2.604  1.00  0.00     0.165 A 
ATOM     12  O   UNL     1       7.998  -3.334  -2.237  1.00  0.00    -0.454 OA
ATOM     13  O   UNL     1       9.692  -2.324  -3.201  1.00  0.00    -0.454 OA
ATOM     14  C   UNL     1       9.369  -3.534  -2.547  1.00  0.00     0.468 C 
ENDBRANCH   5   6
ENDBRANCH   1   5
TORSDOF 3
ENDMDL
MODEL 4
REMARK VINA RESULT:      -6.8      1.850      2.416
REMARK SMILES CC(=O)CCc1ccc2c(c1)OCO2
REMARK SMILES IDX 4 1 2 2 1 3 3 4 5 5 6 6 7 7 11 8 8 9 10 10 9 11 12 12 14 13
REMARK SMILES IDX 13 14
REMARK H PARENT
REMARK Flexibility Score: inf
ROOT
ATOM      1  C   UNL     1       6.567   1.068   1.446  1.00  0.00     0.080 C 
ENDROOT
BRANCH   1   2
ATOM      2  C   UNL     1       5.218   1.598   1.175  1.00  0.00     0.130 C 
ATOM      3  C   UNL     1       5.006   2.150  -0.225  1.00  0.00     0.087 C 
ATOM      4  O   UNL     1       4.282   1.643   1.921  1.00  0.00    -0.300 OA
ENDBRANCH   1   2
BRANCH   1   5
ATOM      5  C   UNL     1       7.518   1.097   0.315  1.00  0.00     0.043 C 
BRANCH   5   6
ATOM      6  C   UNL     1       7.724  -0.155  -0.419  1.00  0.00    -0.044 A 
ATOM      7  C   UNL     1       7.675  -0.217  -1.812  1.00  0.00     0.008 A 
ATOM      8  C   UNL     1       8.006  -1.315   0.264  1.00  0.00     0.054 A 
ATOM      9  C   UNL     1       7.905  -1.417  -2.434  1.00  0.00     0.051 A 
ATOM     10  C   UNL     1       8.238  -2.530  -0.398  1.00  0.00     0.166 A 
ATOM     11  C   UNL     1       8.188  -2.592  -1.773  1.00  0.00     0.165 A 
ATOM     12  O   UNL     1       8.536  -3.822   0.017  1.00  0.00    -0.454 OA
ATOM     13  O   UNL     1       8.454  -3.907  -2.175  1.00  0.00    -0.454 OA
ATOM     14  C   UNL     1       9.121  -4.503  -1.082  1.00  0.00     0.468 C 
ENDBRANCH   5   6
ENDBRANCH   1   5
TORSDOF 3
ENDMDL
MODEL 5
REMARK VINA RESULT:      -6.8      1.162      1.644
REMARK SMILES CC(=O)CCc1ccc2c(c1)OCO2
REMARK SMILES IDX 4 1 2 2 1 3 3 4 5 5 6 6 7 7 11 8 8 9 10 10 9 11 12 12 14 13
REMARK SMILES IDX 13 14
REMARK H PARENT
REMARK Flexibility Score: inf
ROOT
ATOM      1  C   UNL     1       5.387  -0.052   1.968  1.00  0.00     0.080 C 
ENDROOT
BRANCH   1   2
ATOM      2  C   UNL     1       4.435   1.070   1.879  1.00  0.00     0.130 C 
ATOM      3  C   UNL     1       4.754   2.111   0.820  1.00  0.00     0.087 C 
ATOM      4  O   UNL     1       3.450   1.252   2.538  1.00  0.00    -0.300 OA
ENDBRANCH   1   2
BRANCH   1   5
ATOM      5  C   UNL     1       6.805   0.275   1.708  1.00  0.00     0.043 C 
BRANCH   5   6
ATOM      6  C   UNL     1       7.340  -0.064   0.386  1.00  0.00    -0.044 A 
ATOM      7  C   UNL     1       7.760   0.912  -0.518  1.00  0.00     0.008 A 
ATOM      8  C   UNL     1       7.467  -1.381   0.012  1.00  0.00     0.054 A 
ATOM      9  C   UNL     1       8.276   0.522  -1.727  1.00  0.00     0.051 A 
ATOM     10  C   UNL     1       7.999  -1.752  -1.232  1.00  0.00     0.166 A 
ATOM     11  C   UNL     1       8.413  -0.789  -2.125  1.00  0.00     0.165 A 
ATOM     12  O   UNL     1       8.240  -2.967  -1.863  1.00  0.00    -0.454 OA
ATOM     13  O   UNL     1       8.898  -1.422  -3.277  1.00  0.00    -0.454 OA
ATOM     14  C   UNL     1       9.209  -2.740  -2.876  1.00  0.00     0.468 C 
ENDBRANCH   5   6
ENDBRANCH   1   5
TORSDOF 3
ENDMDL
