@<TRIPOS>MOLECULE
/home/cewinharhar/GITHUB/reincatalyze/data/processed/docking_pred/2023-May-31-1727_sub9_nm5_bs15_s42_ex16_mel10_mts10000_k50_ec075_g099_lra3e-4_lrc3e-3/ae62664a3c9eef67376bdc077c2faa7ac5a69a78_ligand_9.pdbqt
 14 15 0 0 0
SMALL
GASTEIGER

@<TRIPOS>ATOM
      1  C          5.3870   -0.0520    1.9680 C.3     1  UNL1        0.0800
      2  C          4.4350    1.0700    1.8790 C.2     1  UNL1        0.1300
      3  C          4.7540    2.1110    0.8200 C.3     1  UNL1        0.0870
      4  O          3.4500    1.2520    2.5380 O.2     1  UNL1       -0.3000
      5  C          6.8050    0.2750    1.7080 C.3     1  UNL1        0.0430
      6  C          7.3400   -0.0640    0.3860 C.2     1  UNL1       -0.0440
      7  C          7.7600    0.9120   -0.5180 C.2     1  UNL1        0.0080
      8  C          7.4670   -1.3810    0.0120 C.2     1  UNL1        0.0540
      9  C          8.2760    0.5220   -1.7270 C.2     1  UNL1        0.0510
     10  C          7.9990   -1.7520   -1.2320 C.2     1  UNL1        0.1660
     11  C          8.4130   -0.7890   -2.1250 C.2     1  UNL1        0.1650
     12  O          8.2400   -2.9670   -1.8630 O.2     1  UNL1       -0.4540
     13  O          8.8980   -1.4220   -3.2770 O.2     1  UNL1       -0.4540
     14  C          9.2090   -2.7400   -2.8760 C.3     1  UNL1        0.4680
@<TRIPOS>BOND
     1    13    14    1
     2    13    11    1
     3    14    12    1
     4    11     9    2
     5    11    10    1
     6    12    10    1
     7     9     7    1
     8    10     8    2
     9     7     6    2
    10     8     6    1
    11     6     5    1
    12     3     2    1
    13     5     1    1
    14     2     1    1
    15     2     4    2
