@<TRIPOS>MOLECULE
/home/cewinharhar/GITHUB/reincatalyze/data/processed/docking_pred/2023-May-31-1727_sub9_nm5_bs15_s42_ex16_mel10_mts10000_k50_ec075_g099_lra3e-4_lrc3e-3/af895cae38f50b8ad608cacdd29f7ae1ddca485c_ligand_9.pdbqt
 14 15 0 0 0
SMALL
GASTEIGER

@<TRIPOS>ATOM
      1  C          5.9020    1.4000   -0.2360 C.3     1  UNL1        0.0800
      2  C          5.1320    1.3560    1.0200 C.2     1  UNL1        0.1300
      3  C          5.4030    0.1520    1.9060 C.3     1  UNL1        0.0870
      4  O          4.3280    2.1500    1.4180 O.2     1  UNL1       -0.3000
      5  C          7.3080    0.9520   -0.1540 C.3     1  UNL1        0.0430
      6  C          7.6380   -0.3370   -0.7690 C.2     1  UNL1       -0.0440
      7  C          7.7130   -0.5030   -2.1530 C.2     1  UNL1        0.0080
      8  C          7.9150   -1.4270    0.0220 C.2     1  UNL1        0.0540
      9  C          8.0530   -1.7310   -2.6600 C.2     1  UNL1        0.0510
     10  C          8.2610   -2.6730   -0.5230 C.2     1  UNL1        0.1660
     11  C          8.3340   -2.8370   -1.8890 C.2     1  UNL1        0.1650
     12  O          8.5830   -3.9130    0.0150 O.2     1  UNL1       -0.4540
     13  O          8.6960   -4.1620   -2.1640 O.2     1  UNL1       -0.4540
     14  C          9.2940   -4.6400   -0.9770 C.3     1  UNL1        0.4680
@<TRIPOS>BOND
     1     9     7    1
     2     9    11    2
     3    13    11    1
     4    13    14    1
     5     7     6    2
     6    11    10    1
     7    14    12    1
     8     6     5    1
     9     6     8    1
    10    10    12    1
    11    10     8    2
    12     1     5    1
    13     1     2    1
    14     2     4    2
    15     2     3    1
