@<TRIPOS>MOLECULE
/home/cewinharhar/GITHUB/reincatalyze/data/processed/docking_pred/2023-May-31-1727_sub9_nm5_bs15_s42_ex16_mel10_mts10000_k50_ec075_g099_lra3e-4_lrc3e-3/af895cae38f50b8ad608cacdd29f7ae1ddca485c_ligand_9.pdbqt
 14 15 0 0 0
SMALL
GASTEIGER

@<TRIPOS>ATOM
      1  C          6.2670    1.1550    0.8970 C.3     1  UNL1        0.0800
      2  C          5.5730    0.3500    1.9190 C.2     1  UNL1        0.1300
      3  C          6.3380   -0.8620    2.4230 C.3     1  UNL1        0.0870
      4  O          4.4890    0.5400    2.3930 O.2     1  UNL1       -0.3000
      5  C          5.9140    0.8670   -0.5090 C.3     1  UNL1        0.0430
      6  C          6.8730    0.0850   -1.2940 C.2     1  UNL1       -0.0440
      7  C          7.7640    0.6820   -2.1880 C.2     1  UNL1        0.0080
      8  C          6.9360   -1.2810   -1.1430 C.2     1  UNL1        0.0540
      9  C          8.6530   -0.1080   -2.8700 C.2     1  UNL1        0.0510
     10  C          7.8570   -2.0650   -1.8540 C.2     1  UNL1        0.1660
     11  C          8.7350   -1.4770   -2.7370 C.2     1  UNL1        0.1650
     12  O          8.1410   -3.4250   -1.9040 O.2     1  UNL1       -0.4540
     13  O          9.5360   -2.4740   -3.3070 O.2     1  UNL1       -0.4540
     14  C          9.4550   -3.5710   -2.4200 C.3     1  UNL1        0.4680
@<TRIPOS>BOND
     1    13    11    1
     2    13    14    1
     3     9    11    2
     4     9     7    1
     5    11    10    1
     6    14    12    1
     7     7     6    2
     8    12    10    1
     9    10     8    2
    10     6     8    1
    11     6     5    1
    12     5     1    1
    13     1     2    1
    14     2     4    2
    15     2     3    1
