@<TRIPOS>MOLECULE
/home/cewinharhar/GITHUB/reincatalyze/data/processed/docking_pred/2023-May-31-1727_sub9_nm5_bs15_s42_ex16_mel10_mts10000_k50_ec075_g099_lra3e-4_lrc3e-3/af895cae38f50b8ad608cacdd29f7ae1ddca485c_ligand_9.pdbqt
 14 15 0 0 0
SMALL
GASTEIGER

@<TRIPOS>ATOM
      1  C          5.7370   -0.0540    2.1150 C.3     1  UNL1        0.0800
      2  C          4.7510    1.0000    1.8160 C.2     1  UNL1        0.1300
      3  C          5.1260    1.9400    0.6830 C.3     1  UNL1        0.0870
      4  O          3.7000    1.1980    2.3560 O.2     1  UNL1       -0.3000
      5  C          7.0680    0.1050    1.4930 C.3     1  UNL1        0.0430
      6  C          7.4300   -0.8410    0.4330 C.2     1  UNL1       -0.0440
      7  C          7.3500   -0.5070   -0.9200 C.2     1  UNL1        0.0080
      8  C          7.8920   -2.0950    0.7570 C.2     1  UNL1        0.0540
      9  C          7.7310   -1.4320   -1.8580 C.2     1  UNL1        0.0510
     10  C          8.2750   -3.0220   -0.2240 C.2     1  UNL1        0.1660
     11  C          8.1960   -2.6940   -1.5590 C.2     1  UNL1        0.1650
     12  O          8.7640   -4.3230   -0.1930 O.2     1  UNL1       -0.4540
     13  O          8.6340   -3.7860   -2.3180 O.2     1  UNL1       -0.4540
     14  C          9.4090   -4.5680   -1.4340 C.3     1  UNL1        0.4680
@<TRIPOS>BOND
     1    13    11    1
     2    13    14    1
     3     9    11    2
     4     9     7    1
     5    11    10    1
     6    14    12    1
     7     7     6    2
     8    10    12    1
     9    10     8    2
    10     6     8    1
    11     6     5    1
    12     3     2    1
    13     5     1    1
    14     2     1    1
    15     2     4    2
