@<TRIPOS>MOLECULE
/home/cewinharhar/GITHUB/reincatalyze/data/processed/docking_pred/2023-May-31-1727_sub9_nm5_bs15_s42_ex16_mel10_mts10000_k50_ec075_g099_lra3e-4_lrc3e-3/af895cae38f50b8ad608cacdd29f7ae1ddca485c_ligand_9.pdbqt
 14 15 0 0 0
SMALL
GASTEIGER

@<TRIPOS>ATOM
      1  C          5.4940    1.8890    1.2180 C.3     1  UNL1        0.0800
      2  C          4.9640    0.7530    1.9930 C.2     1  UNL1        0.1300
      3  C          5.8870   -0.4490    2.0970 C.3     1  UNL1        0.0870
      4  O          3.9040    0.6700    2.5450 O.2     1  UNL1       -0.3000
      5  C          5.4880    1.7340   -0.2520 C.3     1  UNL1        0.0430
      6  C          6.6040    0.9990   -0.8530 C.2     1  UNL1       -0.0440
      7  C          7.9330    1.3850   -0.6700 C.2     1  UNL1        0.0080
      8  C          6.3620   -0.1270   -1.6040 C.2     1  UNL1        0.0540
      9  C          8.9290    0.6350   -1.2400 C.2     1  UNL1        0.0510
     10  C          7.4010   -0.8770   -2.1760 C.2     1  UNL1        0.1660
     11  C          8.7120   -0.4960   -1.9960 C.2     1  UNL1        0.1650
     12  O          7.4550   -2.0240   -2.9590 O.2     1  UNL1       -0.4540
     13  O          9.5410   -1.4070   -2.6640 O.2     1  UNL1       -0.4540
     14  C          8.7590   -2.5710   -2.8310 C.3     1  UNL1        0.4680
@<TRIPOS>BOND
     1    12    14    1
     2    12    10    1
     3    14    13    1
     4    13    11    1
     5    10    11    2
     6    10     8    1
     7    11     9    1
     8     8     6    2
     9     9     7    2
    10     6     7    1
    11     6     5    1
    12     5     1    1
    13     1     2    1
    14     2     3    1
    15     2     4    2
