MODEL 1
REMARK VINA RESULT:      -7.7      0.000      0.000
REMARK SMILES CC(=O)CCc1ccc2c(c1)OCO2
REMARK SMILES IDX 4 1 2 2 1 3 3 4 5 5 6 6 7 7 11 8 8 9 10 10 9 11 12 12 14 13
REMARK SMILES IDX 13 14
REMARK H PARENT
REMARK Flexibility Score: inf
ROOT
ATOM      1  C   UNL     1       5.494   1.889   1.218  1.00  0.00     0.080 C 
ENDROOT
BRANCH   1   2
ATOM      2  C   UNL     1       4.964   0.753   1.993  1.00  0.00     0.130 C 
ATOM      3  C   UNL     1       5.887  -0.449   2.097  1.00  0.00     0.087 C 
ATOM      4  O   UNL     1       3.904   0.670   2.545  1.00  0.00    -0.300 OA
ENDBRANCH   1   2
BRANCH   1   5
ATOM      5  C   UNL     1       5.488   1.734  -0.252  1.00  0.00     0.043 C 
BRANCH   5   6
ATOM      6  C   UNL     1       6.604   0.999  -0.853  1.00  0.00    -0.044 A 
ATOM      7  C   UNL     1       7.933   1.385  -0.670  1.00  0.00     0.008 A 
ATOM      8  C   UNL     1       6.362  -0.127  -1.604  1.00  0.00     0.054 A 
ATOM      9  C   UNL     1       8.929   0.635  -1.240  1.00  0.00     0.051 A 
ATOM     10  C   UNL     1       7.401  -0.877  -2.176  1.00  0.00     0.166 A 
ATOM     11  C   UNL     1       8.712  -0.496  -1.996  1.00  0.00     0.165 A 
ATOM     12  O   UNL     1       7.455  -2.024  -2.959  1.00  0.00    -0.454 OA
ATOM     13  O   UNL     1       9.541  -1.407  -2.664  1.00  0.00    -0.454 OA
ATOM     14  C   UNL     1       8.759  -2.571  -2.831  1.00  0.00     0.468 C 
ENDBRANCH   5   6
ENDBRANCH   1   5
TORSDOF 3
ENDMDL
MODEL 2
REMARK VINA RESULT:      -7.0      1.892      2.367
REMARK SMILES CC(=O)CCc1ccc2c(c1)OCO2
REMARK SMILES IDX 4 1 2 2 1 3 3 4 5 5 6 6 7 7 11 8 8 9 10 10 9 11 12 12 14 13
REMARK SMILES IDX 13 14
REMARK H PARENT
REMARK Flexibility Score: inf
ROOT
ATOM      1  C   UNL     1       5.902   1.400  -0.236  1.00  0.00     0.080 C 
ENDROOT
BRANCH   1   2
ATOM      2  C   UNL     1       5.132   1.356   1.020  1.00  0.00     0.130 C 
ATOM      3  C   UNL     1       5.403   0.152   1.906  1.00  0.00     0.087 C 
ATOM      4  O   UNL     1       4.328   2.150   1.418  1.00  0.00    -0.300 OA
ENDBRANCH   1   2
BRANCH   1   5
ATOM      5  C   UNL     1       7.308   0.952  -0.154  1.00  0.00     0.043 C 
BRANCH   5   6
ATOM      6  C   UNL     1       7.638  -0.337  -0.769  1.00  0.00    -0.044 A 
ATOM      7  C   UNL     1       7.713  -0.503  -2.153  1.00  0.00     0.008 A 
ATOM      8  C   UNL     1       7.915  -1.427   0.022  1.00  0.00     0.054 A 
ATOM      9  C   UNL     1       8.053  -1.731  -2.660  1.00  0.00     0.051 A 
ATOM     10  C   UNL     1       8.261  -2.673  -0.523  1.00  0.00     0.166 A 
ATOM     11  C   UNL     1       8.334  -2.837  -1.889  1.00  0.00     0.165 A 
ATOM     12  O   UNL     1       8.583  -3.913   0.015  1.00  0.00    -0.454 OA
ATOM     13  O   UNL     1       8.696  -4.162  -2.164  1.00  0.00    -0.454 OA
ATOM     14  C   UNL     1       9.294  -4.640  -0.977  1.00  0.00     0.468 C 
ENDBRANCH   5   6
ENDBRANCH   1   5
TORSDOF 3
ENDMDL
MODEL 3
REMARK VINA RESULT:      -7.0      1.147      1.274
REMARK SMILES CC(=O)CCc1ccc2c(c1)OCO2
REMARK SMILES IDX 4 1 2 2 1 3 3 4 5 5 6 6 7 7 11 8 8 9 10 10 9 11 12 12 14 13
REMARK SMILES IDX 13 14
REMARK H PARENT
REMARK Flexibility Score: inf
ROOT
ATOM      1  C   UNL     1       6.267   1.155   0.897  1.00  0.00     0.080 C 
ENDROOT
BRANCH   1   2
ATOM      2  C   UNL     1       5.573   0.350   1.919  1.00  0.00     0.130 C 
ATOM      3  C   UNL     1       6.338  -0.862   2.423  1.00  0.00     0.087 C 
ATOM      4  O   UNL     1       4.489   0.540   2.393  1.00  0.00    -0.300 OA
ENDBRANCH   1   2
BRANCH   1   5
ATOM      5  C   UNL     1       5.914   0.867  -0.509  1.00  0.00     0.043 C 
BRANCH   5   6
ATOM      6  C   UNL     1       6.873   0.085  -1.294  1.00  0.00    -0.044 A 
ATOM      7  C   UNL     1       7.764   0.682  -2.188  1.00  0.00     0.008 A 
ATOM      8  C   UNL     1       6.936  -1.281  -1.143  1.00  0.00     0.054 A 
ATOM      9  C   UNL     1       8.653  -0.108  -2.870  1.00  0.00     0.051 A 
ATOM     10  C   UNL     1       7.857  -2.065  -1.854  1.00  0.00     0.166 A 
ATOM     11  C   UNL     1       8.735  -1.477  -2.737  1.00  0.00     0.165 A 
ATOM     12  O   UNL     1       8.141  -3.425  -1.904  1.00  0.00    -0.454 OA
ATOM     13  O   UNL     1       9.536  -2.474  -3.307  1.00  0.00    -0.454 OA
ATOM     14  C   UNL     1       9.455  -3.571  -2.420  1.00  0.00     0.468 C 
ENDBRANCH   5   6
ENDBRANCH   1   5
TORSDOF 3
ENDMDL
MODEL 4
REMARK VINA RESULT:      -6.8      1.170      1.653
REMARK SMILES CC(=O)CCc1ccc2c(c1)OCO2
REMARK SMILES IDX 4 1 2 2 1 3 3 4 5 5 6 6 7 7 11 8 8 9 10 10 9 11 12 12 14 13
REMARK SMILES IDX 13 14
REMARK H PARENT
REMARK Flexibility Score: inf
ROOT
ATOM      1  C   UNL     1       5.357  -0.039   1.969  1.00  0.00     0.080 C 
ENDROOT
BRANCH   1   2
ATOM      2  C   UNL     1       4.407   1.084   1.869  1.00  0.00     0.130 C 
ATOM      3  C   UNL     1       4.745   2.129   0.820  1.00  0.00     0.087 C 
ATOM      4  O   UNL     1       3.411   1.265   2.511  1.00  0.00    -0.300 OA
ENDBRANCH   1   2
BRANCH   1   5
ATOM      5  C   UNL     1       6.776   0.283   1.710  1.00  0.00     0.043 C 
BRANCH   5   6
ATOM      6  C   UNL     1       7.312  -0.065   0.392  1.00  0.00    -0.044 A 
ATOM      7  C   UNL     1       7.726   0.906  -0.523  1.00  0.00     0.008 A 
ATOM      8  C   UNL     1       7.449  -1.385   0.029  1.00  0.00     0.054 A 
ATOM      9  C   UNL     1       8.243   0.508  -1.728  1.00  0.00     0.051 A 
ATOM     10  C   UNL     1       7.982  -1.763  -1.212  1.00  0.00     0.166 A 
ATOM     11  C   UNL     1       8.389  -0.806  -2.114  1.00  0.00     0.165 A 
ATOM     12  O   UNL     1       8.232  -2.982  -1.831  1.00  0.00    -0.454 OA
ATOM     13  O   UNL     1       8.878  -1.446  -3.260  1.00  0.00    -0.454 OA
ATOM     14  C   UNL     1       9.198  -2.758  -2.847  1.00  0.00     0.468 C 
ENDBRANCH   5   6
ENDBRANCH   1   5
TORSDOF 3
ENDMDL
MODEL 5
REMARK VINA RESULT:      -6.8      1.968      2.553
REMARK SMILES CC(=O)CCc1ccc2c(c1)OCO2
REMARK SMILES IDX 4 1 2 2 1 3 3 4 5 5 6 6 7 7 11 8 8 9 10 10 9 11 12 12 14 13
REMARK SMILES IDX 13 14
REMARK H PARENT
REMARK Flexibility Score: inf
ROOT
ATOM      1  C   UNL     1       5.737  -0.054   2.115  1.00  0.00     0.080 C 
ENDROOT
BRANCH   1   2
ATOM      2  C   UNL     1       4.751   1.000   1.816  1.00  0.00     0.130 C 
ATOM      3  C   UNL     1       5.126   1.940   0.683  1.00  0.00     0.087 C 
ATOM      4  O   UNL     1       3.700   1.198   2.356  1.00  0.00    -0.300 OA
ENDBRANCH   1   2
BRANCH   1   5
ATOM      5  C   UNL     1       7.068   0.105   1.493  1.00  0.00     0.043 C 
BRANCH   5   6
ATOM      6  C   UNL     1       7.430  -0.841   0.433  1.00  0.00    -0.044 A 
ATOM      7  C   UNL     1       7.350  -0.507  -0.920  1.00  0.00     0.008 A 
ATOM      8  C   UNL     1       7.892  -2.095   0.757  1.00  0.00     0.054 A 
ATOM      9  C   UNL     1       7.731  -1.432  -1.858  1.00  0.00     0.051 A 
ATOM     10  C   UNL     1       8.275  -3.022  -0.224  1.00  0.00     0.166 A 
ATOM     11  C   UNL     1       8.196  -2.694  -1.559  1.00  0.00     0.165 A 
ATOM     12  O   UNL     1       8.764  -4.323  -0.193  1.00  0.00    -0.454 OA
ATOM     13  O   UNL     1       8.634  -3.786  -2.318  1.00  0.00    -0.454 OA
ATOM     14  C   UNL     1       9.409  -4.568  -1.434  1.00  0.00     0.468 C 
ENDBRANCH   5   6
ENDBRANCH   1   5
TORSDOF 3
ENDMDL
