@<TRIPOS>MOLECULE
/home/cewinharhar/GITHUB/reincatalyze/data/processed/docking_pred/2023-May-31-1727_sub9_nm5_bs15_s42_ex16_mel10_mts10000_k50_ec075_g099_lra3e-4_lrc3e-3/af895cae38f50b8ad608cacdd29f7ae1ddca485c_ligand_9.pdbqt
 14 15 0 0 0
SMALL
GASTEIGER

@<TRIPOS>ATOM
      1  C          5.3570   -0.0390    1.9690 C.3     1  UNL1        0.0800
      2  C          4.4070    1.0840    1.8690 C.2     1  UNL1        0.1300
      3  C          4.7450    2.1290    0.8200 C.3     1  UNL1        0.0870
      4  O          3.4110    1.2650    2.5110 O.2     1  UNL1       -0.3000
      5  C          6.7760    0.2830    1.7100 C.3     1  UNL1        0.0430
      6  C          7.3120   -0.0650    0.3920 C.2     1  UNL1       -0.0440
      7  C          7.7260    0.9060   -0.5230 C.2     1  UNL1        0.0080
      8  C          7.4490   -1.3850    0.0290 C.2     1  UNL1        0.0540
      9  C          8.2430    0.5080   -1.7280 C.2     1  UNL1        0.0510
     10  C          7.9820   -1.7630   -1.2120 C.2     1  UNL1        0.1660
     11  C          8.3890   -0.8060   -2.1140 C.2     1  UNL1        0.1650
     12  O          8.2320   -2.9820   -1.8310 O.2     1  UNL1       -0.4540
     13  O          8.8780   -1.4460   -3.2600 O.2     1  UNL1       -0.4540
     14  C          9.1980   -2.7580   -2.8470 C.3     1  UNL1        0.4680
@<TRIPOS>BOND
     1    13    14    1
     2    13    11    1
     3    14    12    1
     4    11     9    2
     5    11    10    1
     6    12    10    1
     7     9     7    1
     8    10     8    2
     9     7     6    2
    10     8     6    1
    11     6     5    1
    12     3     2    1
    13     5     1    1
    14     2     1    1
    15     2     4    2
