@<TRIPOS>MOLECULE
/home/cewinharhar/GITHUB/reincatalyze/data/processed/docking_pred/2023-May-31-1727_sub9_nm5_bs15_s42_ex16_mel10_mts10000_k50_ec075_g099_lra3e-4_lrc3e-3/af9628f04dddfdfce7c60ac864c84e5664a7a69f_ligand_9.pdbqt
 14 15 0 0 0
SMALL
GASTEIGER

@<TRIPOS>ATOM
      1  C          6.2310    1.1960    0.8950 C.3     1  UNL1        0.0800
      2  C          5.5600    0.3770    1.9220 C.2     1  UNL1        0.1300
      3  C          6.3440   -0.8330    2.4020 C.3     1  UNL1        0.0870
      4  O          4.4830    0.5530    2.4150 O.2     1  UNL1       -0.3000
      5  C          5.8880    0.8890   -0.5090 C.3     1  UNL1        0.0430
      6  C          6.8620    0.1160   -1.2840 C.2     1  UNL1       -0.0440
      7  C          7.7970    0.7240   -2.1230 C.2     1  UNL1        0.0080
      8  C          6.8940   -1.2550   -1.1770 C.2     1  UNL1        0.0540
      9  C          8.6970   -0.0600   -2.7970 C.2     1  UNL1        0.0510
     10  C          7.8260   -2.0340   -1.8790 C.2     1  UNL1        0.1660
     11  C          8.7490   -1.4340   -2.7070 C.2     1  UNL1        0.1650
     12  O          8.0870   -3.3960   -1.9640 O.2     1  UNL1       -0.4540
     13  O          9.5530   -2.4270   -3.2810 O.2     1  UNL1       -0.4540
     14  C          9.4180   -3.5510   -2.4350 C.3     1  UNL1        0.4680
@<TRIPOS>BOND
     1    13    11    1
     2    13    14    1
     3     9    11    2
     4     9     7    1
     5    11    10    1
     6    14    12    1
     7     7     6    2
     8    12    10    1
     9    10     8    2
    10     6     8    1
    11     6     5    1
    12     5     1    1
    13     1     2    1
    14     2     3    1
    15     2     4    2
