@<TRIPOS>MOLECULE
/home/cewinharhar/GITHUB/reincatalyze/data/processed/docking_pred/2023-May-31-1727_sub9_nm5_bs15_s42_ex16_mel10_mts10000_k50_ec075_g099_lra3e-4_lrc3e-3/af9628f04dddfdfce7c60ac864c84e5664a7a69f_ligand_9.pdbqt
 14 15 0 0 0
SMALL
GASTEIGER

@<TRIPOS>ATOM
      1  C          5.9340    1.5060   -0.2260 C.3     1  UNL1        0.0800
      2  C          5.1780    1.4050    1.0350 C.2     1  UNL1        0.1300
      3  C          5.5480    0.2290    1.9230 C.3     1  UNL1        0.0870
      4  O          4.3160    2.1340    1.4360 O.2     1  UNL1       -0.3000
      5  C          7.3390    1.0490   -0.1810 C.3     1  UNL1        0.0430
      6  C          7.6450   -0.2420   -0.8030 C.2     1  UNL1       -0.0440
      7  C          7.7170   -0.4020   -2.1880 C.2     1  UNL1        0.0080
      8  C          7.9000   -1.3420   -0.0180 C.2     1  UNL1        0.0540
      9  C          8.0340   -1.6330   -2.7010 C.2     1  UNL1        0.0510
     10  C          8.2230   -2.5900   -0.5700 C.2     1  UNL1        0.1660
     11  C          8.2930   -2.7480   -1.9360 C.2     1  UNL1        0.1650
     12  O          8.5210   -3.8400   -0.0390 O.2     1  UNL1       -0.4540
     13  O          8.6310   -4.0780   -2.2190 O.2     1  UNL1       -0.4540
     14  C          9.2190   -4.5740   -1.0340 C.3     1  UNL1        0.4680
@<TRIPOS>BOND
     1     9     7    1
     2     9    11    2
     3    13    11    1
     4    13    14    1
     5     7     6    2
     6    11    10    1
     7    14    12    1
     8     6     5    1
     9     6     8    1
    10    10    12    1
    11    10     8    2
    12     1     5    1
    13     1     2    1
    14     2     4    2
    15     2     3    1
