MODEL 1
REMARK VINA RESULT:      -7.5      0.000      0.000
REMARK SMILES CC(=O)CCc1ccc2c(c1)OCO2
REMARK SMILES IDX 4 1 2 2 1 3 3 4 5 5 6 6 7 7 11 8 8 9 10 10 9 11 12 12 14 13
REMARK SMILES IDX 13 14
REMARK H PARENT
REMARK Flexibility Score: inf
ROOT
ATOM      1  C   UNL     1       5.823   1.771   1.313  1.00  0.00     0.080 C 
ENDROOT
BRANCH   1   2
ATOM      2  C   UNL     1       5.217   0.637   2.033  1.00  0.00     0.130 C 
ATOM      3  C   UNL     1       6.120  -0.570   2.225  1.00  0.00     0.087 C 
ATOM      4  O   UNL     1       4.107   0.558   2.479  1.00  0.00    -0.300 OA
ENDBRANCH   1   2
BRANCH   1   5
ATOM      5  C   UNL     1       5.784   1.701  -0.163  1.00  0.00     0.043 C 
BRANCH   5   6
ATOM      6  C   UNL     1       6.833   0.920  -0.825  1.00  0.00    -0.044 A 
ATOM      7  C   UNL     1       8.181   1.277  -0.759  1.00  0.00     0.008 A 
ATOM      8  C   UNL     1       6.507  -0.223  -1.518  1.00  0.00     0.054 A 
ATOM      9  C   UNL     1       9.112   0.485  -1.380  1.00  0.00     0.051 A 
ATOM     10  C   UNL     1       7.481  -1.016  -2.144  1.00  0.00     0.166 A 
ATOM     11  C   UNL     1       8.811  -0.663  -2.079  1.00  0.00     0.165 A 
ATOM     12  O   UNL     1       7.447  -2.187  -2.891  1.00  0.00    -0.454 OA
ATOM     13  O   UNL     1       9.564  -1.614  -2.780  1.00  0.00    -0.454 OA
ATOM     14  C   UNL     1       8.745  -2.763  -2.846  1.00  0.00     0.468 C 
ENDBRANCH   5   6
ENDBRANCH   1   5
TORSDOF 3
ENDMDL
MODEL 2
REMARK VINA RESULT:      -7.0      1.774      2.199
REMARK SMILES CC(=O)CCc1ccc2c(c1)OCO2
REMARK SMILES IDX 4 1 2 2 1 3 3 4 5 5 6 6 7 7 11 8 8 9 10 10 9 11 12 12 14 13
REMARK SMILES IDX 13 14
REMARK H PARENT
REMARK Flexibility Score: inf
ROOT
ATOM      1  C   UNL     1       5.934   1.506  -0.226  1.00  0.00     0.080 C 
ENDROOT
BRANCH   1   2
ATOM      2  C   UNL     1       5.178   1.405   1.035  1.00  0.00     0.130 C 
ATOM      3  C   UNL     1       5.548   0.229   1.923  1.00  0.00     0.087 C 
ATOM      4  O   UNL     1       4.316   2.134   1.436  1.00  0.00    -0.300 OA
ENDBRANCH   1   2
BRANCH   1   5
ATOM      5  C   UNL     1       7.339   1.049  -0.181  1.00  0.00     0.043 C 
BRANCH   5   6
ATOM      6  C   UNL     1       7.645  -0.242  -0.803  1.00  0.00    -0.044 A 
ATOM      7  C   UNL     1       7.717  -0.402  -2.188  1.00  0.00     0.008 A 
ATOM      8  C   UNL     1       7.900  -1.342  -0.018  1.00  0.00     0.054 A 
ATOM      9  C   UNL     1       8.034  -1.633  -2.701  1.00  0.00     0.051 A 
ATOM     10  C   UNL     1       8.223  -2.590  -0.570  1.00  0.00     0.166 A 
ATOM     11  C   UNL     1       8.293  -2.748  -1.936  1.00  0.00     0.165 A 
ATOM     12  O   UNL     1       8.521  -3.840  -0.039  1.00  0.00    -0.454 OA
ATOM     13  O   UNL     1       8.631  -4.078  -2.219  1.00  0.00    -0.454 OA
ATOM     14  C   UNL     1       9.219  -4.574  -1.034  1.00  0.00     0.468 C 
ENDBRANCH   5   6
ENDBRANCH   1   5
TORSDOF 3
ENDMDL
MODEL 3
REMARK VINA RESULT:      -6.9      1.027      1.070
REMARK SMILES CC(=O)CCc1ccc2c(c1)OCO2
REMARK SMILES IDX 4 1 2 2 1 3 3 4 5 5 6 6 7 7 11 8 8 9 10 10 9 11 12 12 14 13
REMARK SMILES IDX 13 14
REMARK H PARENT
REMARK Flexibility Score: inf
ROOT
ATOM      1  C   UNL     1       6.231   1.196   0.895  1.00  0.00     0.080 C 
ENDROOT
BRANCH   1   2
ATOM      2  C   UNL     1       5.560   0.377   1.922  1.00  0.00     0.130 C 
ATOM      3  C   UNL     1       6.344  -0.833   2.402  1.00  0.00     0.087 C 
ATOM      4  O   UNL     1       4.483   0.553   2.415  1.00  0.00    -0.300 OA
ENDBRANCH   1   2
BRANCH   1   5
ATOM      5  C   UNL     1       5.888   0.889  -0.509  1.00  0.00     0.043 C 
BRANCH   5   6
ATOM      6  C   UNL     1       6.862   0.116  -1.284  1.00  0.00    -0.044 A 
ATOM      7  C   UNL     1       7.797   0.724  -2.123  1.00  0.00     0.008 A 
ATOM      8  C   UNL     1       6.894  -1.255  -1.177  1.00  0.00     0.054 A 
ATOM      9  C   UNL     1       8.697  -0.060  -2.797  1.00  0.00     0.051 A 
ATOM     10  C   UNL     1       7.826  -2.034  -1.879  1.00  0.00     0.166 A 
ATOM     11  C   UNL     1       8.749  -1.434  -2.707  1.00  0.00     0.165 A 
ATOM     12  O   UNL     1       8.087  -3.396  -1.964  1.00  0.00    -0.454 OA
ATOM     13  O   UNL     1       9.553  -2.427  -3.281  1.00  0.00    -0.454 OA
ATOM     14  C   UNL     1       9.418  -3.551  -2.435  1.00  0.00     0.468 C 
ENDBRANCH   5   6
ENDBRANCH   1   5
TORSDOF 3
ENDMDL
MODEL 4
REMARK VINA RESULT:      -6.7      1.792      2.275
REMARK SMILES CC(=O)CCc1ccc2c(c1)OCO2
REMARK SMILES IDX 4 1 2 2 1 3 3 4 5 5 6 6 7 7 11 8 8 9 10 10 9 11 12 12 14 13
REMARK SMILES IDX 13 14
REMARK H PARENT
REMARK Flexibility Score: inf
ROOT
ATOM      1  C   UNL     1       6.620   0.763   1.590  1.00  0.00     0.080 C 
ENDROOT
BRANCH   1   2
ATOM      2  C   UNL     1       5.200   1.160   1.630  1.00  0.00     0.130 C 
ATOM      3  C   UNL     1       4.772   2.149   0.560  1.00  0.00     0.087 C 
ATOM      4  O   UNL     1       4.356   0.796   2.399  1.00  0.00    -0.300 OA
ENDBRANCH   1   2
BRANCH   1   5
ATOM      5  C   UNL     1       7.303   0.918   0.289  1.00  0.00     0.043 C 
BRANCH   5   6
ATOM      6  C   UNL     1       7.591  -0.304  -0.467  1.00  0.00    -0.044 A 
ATOM      7  C   UNL     1       7.606  -0.330  -1.863  1.00  0.00     0.008 A 
ATOM      8  C   UNL     1       7.887  -1.471   0.198  1.00  0.00     0.054 A 
ATOM      9  C   UNL     1       7.910  -1.502  -2.504  1.00  0.00     0.051 A 
ATOM     10  C   UNL     1       8.195  -2.658  -0.485  1.00  0.00     0.166 A 
ATOM     11  C   UNL     1       8.209  -2.683  -1.862  1.00  0.00     0.165 A 
ATOM     12  O   UNL     1       8.524  -3.949  -0.090  1.00  0.00    -0.454 OA
ATOM     13  O   UNL     1       8.543  -3.976  -2.285  1.00  0.00    -0.454 OA
ATOM     14  C   UNL     1       9.185  -4.577  -1.179  1.00  0.00     0.468 C 
ENDBRANCH   5   6
ENDBRANCH   1   5
TORSDOF 3
ENDMDL
MODEL 5
REMARK VINA RESULT:      -6.7      1.096      1.586
REMARK SMILES CC(=O)CCc1ccc2c(c1)OCO2
REMARK SMILES IDX 4 1 2 2 1 3 3 4 5 5 6 6 7 7 11 8 8 9 10 10 9 11 12 12 14 13
REMARK SMILES IDX 13 14
REMARK H PARENT
REMARK Flexibility Score: inf
ROOT
ATOM      1  C   UNL     1       5.349  -0.031   1.995  1.00  0.00     0.080 C 
ENDROOT
BRANCH   1   2
ATOM      2  C   UNL     1       4.402   1.093   1.873  1.00  0.00     0.130 C 
ATOM      3  C   UNL     1       4.748   2.123   0.811  1.00  0.00     0.087 C 
ATOM      4  O   UNL     1       3.404   1.285   2.507  1.00  0.00    -0.300 OA
ENDBRANCH   1   2
BRANCH   1   5
ATOM      5  C   UNL     1       6.774   0.292   1.776  1.00  0.00     0.043 C 
BRANCH   5   6
ATOM      6  C   UNL     1       7.335  -0.010   0.456  1.00  0.00    -0.044 A 
ATOM      7  C   UNL     1       7.919   0.971  -0.347  1.00  0.00     0.008 A 
ATOM      8  C   UNL     1       7.324  -1.301  -0.018  1.00  0.00     0.054 A 
ATOM      9  C   UNL     1       8.448   0.613  -1.559  1.00  0.00     0.051 A 
ATOM     10  C   UNL     1       7.874  -1.641  -1.263  1.00  0.00     0.166 A 
ATOM     11  C   UNL     1       8.448  -0.672  -2.056  1.00  0.00     0.165 A 
ATOM     12  O   UNL     1       8.001  -2.825  -1.979  1.00  0.00    -0.454 OA
ATOM     13  O   UNL     1       8.915  -1.272  -3.233  1.00  0.00    -0.454 OA
ATOM     14  C   UNL     1       9.043  -2.645  -2.926  1.00  0.00     0.468 C 
ENDBRANCH   5   6
ENDBRANCH   1   5
TORSDOF 3
ENDMDL
