@<TRIPOS>MOLECULE
/home/cewinharhar/GITHUB/reincatalyze/data/processed/docking_pred/2023-May-31-1727_sub9_nm5_bs15_s42_ex16_mel10_mts10000_k50_ec075_g099_lra3e-4_lrc3e-3/af9628f04dddfdfce7c60ac864c84e5664a7a69f_ligand_9.pdbqt
 14 15 0 0 0
SMALL
GASTEIGER

@<TRIPOS>ATOM
      1  C          6.6200    0.7630    1.5900 C.3     1  UNL1        0.0800
      2  C          5.2000    1.1600    1.6300 C.2     1  UNL1        0.1300
      3  C          4.7720    2.1490    0.5600 C.3     1  UNL1        0.0870
      4  O          4.3560    0.7960    2.3990 O.2     1  UNL1       -0.3000
      5  C          7.3030    0.9180    0.2890 C.3     1  UNL1        0.0430
      6  C          7.5910   -0.3040   -0.4670 C.2     1  UNL1       -0.0440
      7  C          7.6060   -0.3300   -1.8630 C.2     1  UNL1        0.0080
      8  C          7.8870   -1.4710    0.1980 C.2     1  UNL1        0.0540
      9  C          7.9100   -1.5020   -2.5040 C.2     1  UNL1        0.0510
     10  C          8.1950   -2.6580   -0.4850 C.2     1  UNL1        0.1660
     11  C          8.2090   -2.6830   -1.8620 C.2     1  UNL1        0.1650
     12  O          8.5240   -3.9490   -0.0900 O.2     1  UNL1       -0.4540
     13  O          8.5430   -3.9760   -2.2850 O.2     1  UNL1       -0.4540
     14  C          9.1850   -4.5770   -1.1790 C.3     1  UNL1        0.4680
@<TRIPOS>BOND
     1     9     7    1
     2     9    11    2
     3    13    11    1
     4    13    14    1
     5     7     6    2
     6    11    10    1
     7    14    12    1
     8    10    12    1
     9    10     8    2
    10     6     8    1
    11     6     5    1
    12     5     1    1
    13     3     2    1
    14     1     2    1
    15     2     4    2
