@<TRIPOS>MOLECULE
/home/cewinharhar/GITHUB/reincatalyze/data/processed/docking_pred/2023-May-31-1727_sub9_nm5_bs15_s42_ex16_mel10_mts10000_k50_ec075_g099_lra3e-4_lrc3e-3/af9628f04dddfdfce7c60ac864c84e5664a7a69f_ligand_9.pdbqt
 14 15 0 0 0
SMALL
GASTEIGER

@<TRIPOS>ATOM
      1  C          5.8230    1.7710    1.3130 C.3     1  UNL1        0.0800
      2  C          5.2170    0.6370    2.0330 C.2     1  UNL1        0.1300
      3  C          6.1200   -0.5700    2.2250 C.3     1  UNL1        0.0870
      4  O          4.1070    0.5580    2.4790 O.2     1  UNL1       -0.3000
      5  C          5.7840    1.7010   -0.1630 C.3     1  UNL1        0.0430
      6  C          6.8330    0.9200   -0.8250 C.2     1  UNL1       -0.0440
      7  C          8.1810    1.2770   -0.7590 C.2     1  UNL1        0.0080
      8  C          6.5070   -0.2230   -1.5180 C.2     1  UNL1        0.0540
      9  C          9.1120    0.4850   -1.3800 C.2     1  UNL1        0.0510
     10  C          7.4810   -1.0160   -2.1440 C.2     1  UNL1        0.1660
     11  C          8.8110   -0.6630   -2.0790 C.2     1  UNL1        0.1650
     12  O          7.4470   -2.1870   -2.8910 O.2     1  UNL1       -0.4540
     13  O          9.5640   -1.6140   -2.7800 O.2     1  UNL1       -0.4540
     14  C          8.7450   -2.7630   -2.8460 C.3     1  UNL1        0.4680
@<TRIPOS>BOND
     1    12    14    1
     2    12    10    1
     3    14    13    1
     4    13    11    1
     5    10    11    2
     6    10     8    1
     7    11     9    1
     8     8     6    2
     9     9     7    2
    10     6     7    1
    11     6     5    1
    12     5     1    1
    13     1     2    1
    14     2     3    1
    15     2     4    2
