@<TRIPOS>MOLECULE
/home/cewinharhar/GITHUB/reincatalyze/data/processed/docking_pred/2023-May-31-1727_sub9_nm5_bs15_s42_ex16_mel10_mts10000_k50_ec075_g099_lra3e-4_lrc3e-3/b0dbf451e4e891e0fb60bf6ca530f921e690d9da_ligand_9.pdbqt
 14 15 0 0 0
SMALL
GASTEIGER

@<TRIPOS>ATOM
      1  C          5.5190    0.0370    2.0330 C.3     1  UNL1        0.0800
      2  C          4.5470    1.1250    1.8240 C.2     1  UNL1        0.1300
      3  C          4.9040    2.1140    0.7280 C.3     1  UNL1        0.0870
      4  O          3.5200    1.3160    2.4120 O.2     1  UNL1       -0.3000
      5  C          6.8540    0.2310    1.4280 C.3     1  UNL1        0.0430
      6  C          7.2670   -0.7240    0.3960 C.2     1  UNL1       -0.0440
      7  C          7.1970   -0.4230   -0.9660 C.2     1  UNL1        0.0080
      8  C          7.7690   -1.9530    0.7550 C.2     1  UNL1        0.0540
      9  C          7.6260   -1.3540   -1.8760 C.2     1  UNL1        0.0510
     10  C          8.2020   -2.8860   -0.1990 C.2     1  UNL1        0.1660
     11  C          8.1320   -2.5900   -1.5420 C.2     1  UNL1        0.1650
     12  O          8.7380   -4.1670   -0.1320 O.2     1  UNL1       -0.4540
     13  O          8.6220   -3.6820   -2.2700 O.2     1  UNL1       -0.4540
     14  C          9.4120   -4.4150   -1.3570 C.3     1  UNL1        0.4680
@<TRIPOS>BOND
     1    13    11    1
     2    13    14    1
     3     9    11    2
     4     9     7    1
     5    11    10    1
     6    14    12    1
     7     7     6    2
     8    10    12    1
     9    10     8    2
    10     6     8    1
    11     6     5    1
    12     3     2    1
    13     5     1    1
    14     2     1    1
    15     2     4    2
