@<TRIPOS>MOLECULE
/home/cewinharhar/GITHUB/reincatalyze/data/processed/docking_pred/2023-May-31-1727_sub9_nm5_bs15_s42_ex16_mel10_mts10000_k50_ec075_g099_lra3e-4_lrc3e-3/b0dbf451e4e891e0fb60bf6ca530f921e690d9da_ligand_9.pdbqt
 14 15 0 0 0
SMALL
GASTEIGER

@<TRIPOS>ATOM
      1  C          5.3940   -0.0480    1.9440 C.3     1  UNL1        0.0800
      2  C          4.4360    1.0680    1.8500 C.2     1  UNL1        0.1300
      3  C          4.7470    2.1050    0.7840 C.3     1  UNL1        0.0870
      4  O          3.4520    1.2500    2.5090 O.2     1  UNL1       -0.3000
      5  C          6.8100    0.2860    1.6840 C.3     1  UNL1        0.0430
      6  C          7.3500   -0.0620    0.3670 C.2     1  UNL1       -0.0440
      7  C          7.7860    0.9080   -0.5380 C.2     1  UNL1        0.0080
      8  C          7.4680   -1.3810   -0.0020 C.2     1  UNL1        0.0540
      9  C          8.3060    0.5090   -1.7430 C.2     1  UNL1        0.0510
     10  C          8.0040   -1.7610   -1.2420 C.2     1  UNL1        0.1660
     11  C          8.4330   -0.8050   -2.1360 C.2     1  UNL1        0.1650
     12  O          8.2380   -2.9800   -1.8670 O.2     1  UNL1       -0.4540
     13  O          8.9190   -1.4460   -3.2830 O.2     1  UNL1       -0.4540
     14  C          9.2150   -2.7660   -2.8750 C.3     1  UNL1        0.4680
@<TRIPOS>BOND
     1    13    14    1
     2    13    11    1
     3    14    12    1
     4    11     9    2
     5    11    10    1
     6    12    10    1
     7     9     7    1
     8    10     8    2
     9     7     6    2
    10     8     6    1
    11     6     5    1
    12     3     2    1
    13     5     1    1
    14     2     1    1
    15     2     4    2
