@<TRIPOS>MOLECULE
/home/cewinharhar/GITHUB/reincatalyze/data/processed/docking_pred/2023-May-31-1727_sub9_nm5_bs15_s42_ex16_mel10_mts10000_k50_ec075_g099_lra3e-4_lrc3e-3/b0dbf451e4e891e0fb60bf6ca530f921e690d9da_ligand_9.pdbqt
 14 15 0 0 0
SMALL
GASTEIGER

@<TRIPOS>ATOM
      1  C          6.2320    1.1830    0.9400 C.3     1  UNL1        0.0800
      2  C          5.5460    0.3490    1.9430 C.2     1  UNL1        0.1300
      3  C          6.3110   -0.8830    2.3970 C.3     1  UNL1        0.0870
      4  O          4.4690    0.5280    2.4370 O.2     1  UNL1       -0.3000
      5  C          5.8980    0.9080   -0.4730 C.3     1  UNL1        0.0430
      6  C          6.8690    0.1370   -1.2540 C.2     1  UNL1       -0.0440
      7  C          7.8120    0.7480   -2.0820 C.2     1  UNL1        0.0080
      8  C          6.8890   -1.2360   -1.1640 C.2     1  UNL1        0.0540
      9  C          8.7080   -0.0350   -2.7620 C.2     1  UNL1        0.0510
     10  C          7.8190   -2.0130   -1.8720 C.2     1  UNL1        0.1660
     11  C          8.7490   -1.4100   -2.6890 C.2     1  UNL1        0.1650
     12  O          8.0690   -3.3760   -1.9730 O.2     1  UNL1       -0.4540
     13  O          9.5480   -2.4020   -3.2720 O.2     1  UNL1       -0.4540
     14  C          9.4010   -3.5350   -2.4410 C.3     1  UNL1        0.4680
@<TRIPOS>BOND
     1    13    11    1
     2    13    14    1
     3     9    11    2
     4     9     7    1
     5    11    10    1
     6    14    12    1
     7     7     6    2
     8    12    10    1
     9    10     8    2
    10     6     8    1
    11     6     5    1
    12     5     1    1
    13     1     2    1
    14     2     3    1
    15     2     4    2
