@<TRIPOS>MOLECULE
/home/cewinharhar/GITHUB/reincatalyze/data/processed/docking_pred/2023-May-31-1727_sub9_nm5_bs15_s42_ex16_mel10_mts10000_k50_ec075_g099_lra3e-4_lrc3e-3/b1cc709a4c09585943c6b669d8b61c6b26bf0288_ligand_9.pdbqt
 14 15 0 0 0
SMALL
GASTEIGER

@<TRIPOS>ATOM
      1  C          5.7100    1.3290   -0.3820 C.3     1  UNL1        0.0800
      2  C          5.1030    1.3740    0.9610 C.2     1  UNL1        0.1300
      3  C          5.5780    0.2990    1.9240 C.3     1  UNL1        0.0870
      4  O          4.2900    2.1500    1.3750 O.2     1  UNL1       -0.3000
      5  C          7.1600    1.0480   -0.4330 C.3     1  UNL1        0.0430
      6  C          7.5740   -0.2410   -0.9940 C.2     1  UNL1       -0.0440
      7  C          7.8110   -0.4170   -2.3580 C.2     1  UNL1        0.0080
      8  C          7.7700   -1.3210   -0.1650 C.2     1  UNL1        0.0540
      9  C          8.2230   -1.6440   -2.8100 C.2     1  UNL1        0.0510
     10  C          8.1920   -2.5660   -0.6550 C.2     1  UNL1        0.1660
     11  C          8.4250   -2.7400   -2.0020 C.2     1  UNL1        0.1650
     12  O          8.4640   -3.7980   -0.0730 O.2     1  UNL1       -0.4540
     13  O          8.8330   -4.0620   -2.2210 O.2     1  UNL1       -0.4540
     14  C          9.2940   -4.5230   -0.9680 C.3     1  UNL1        0.4680
@<TRIPOS>BOND
     1     9     7    1
     2     9    11    2
     3     7     6    2
     4    13    11    1
     5    13    14    1
     6    11    10    1
     7     6     5    1
     8     6     8    1
     9    14    12    1
    10    10     8    2
    11    10    12    1
    12     5     1    1
    13     1     2    1
    14     2     4    2
    15     2     3    1
