@<TRIPOS>MOLECULE
/home/cewinharhar/GITHUB/reincatalyze/data/processed/docking_pred/2023-May-31-1727_sub9_nm5_bs15_s42_ex16_mel10_mts10000_k50_ec075_g099_lra3e-4_lrc3e-3/b3ccd1df948aefc26948fdc9bbc960af2f6fd47d_ligand_9.pdbqt
 14 15 0 0 0
SMALL
GASTEIGER

@<TRIPOS>ATOM
      1  C          5.6420    1.8640    1.2750 C.3     1  UNL1        0.0800
      2  C          5.0830    0.7260    2.0260 C.2     1  UNL1        0.1300
      3  C          6.0130   -0.4640    2.1910 C.3     1  UNL1        0.0870
      4  O          3.9930    0.6320    2.5160 O.2     1  UNL1       -0.3000
      5  C          5.6200    1.7470   -0.1980 C.3     1  UNL1        0.0430
      6  C          6.7020    0.9830   -0.8250 C.2     1  UNL1       -0.0440
      7  C          8.0440    1.3390   -0.6820 C.2     1  UNL1        0.0080
      8  C          6.4130   -0.1420   -1.5620 C.2     1  UNL1        0.0540
      9  C          9.0060    0.5630   -1.2750 C.2     1  UNL1        0.0510
     10  C          7.4190   -0.9190   -2.1580 C.2     1  UNL1        0.1660
     11  C          8.7430   -0.5670   -2.0170 C.2     1  UNL1        0.1650
     12  O          7.4250   -2.0710   -2.9350 O.2     1  UNL1       -0.4540
     13  O          9.5320   -1.5000   -2.7030 O.2     1  UNL1       -0.4540
     14  C          8.7190   -2.6470   -2.8400 C.3     1  UNL1        0.4680
@<TRIPOS>BOND
     1    12    14    1
     2    12    10    1
     3    14    13    1
     4    13    11    1
     5    10    11    2
     6    10     8    1
     7    11     9    1
     8     8     6    2
     9     9     7    2
    10     6     7    1
    11     6     5    1
    12     5     1    1
    13     1     2    1
    14     2     3    1
    15     2     4    2
