MODEL 1
REMARK VINA RESULT:      -7.9      0.000      0.000
REMARK SMILES CC(=O)CCc1ccc2c(c1)OCO2
REMARK SMILES IDX 4 1 2 2 1 3 3 4 5 5 6 6 7 7 11 8 8 9 10 10 9 11 12 12 14 13
REMARK SMILES IDX 13 14
REMARK H PARENT
REMARK Flexibility Score: inf
ROOT
ATOM      1  C   UNL     1       5.484   2.150   1.201  1.00  0.00     0.080 C 
ENDROOT
BRANCH   1   2
ATOM      2  C   UNL     1       4.733   1.192   2.032  1.00  0.00     0.130 C 
ATOM      3  C   UNL     1       5.358  -0.187   2.160  1.00  0.00     0.087 C 
ATOM      4  O   UNL     1       3.699   1.373   2.610  1.00  0.00    -0.300 OA
ENDBRANCH   1   2
BRANCH   1   5
ATOM      5  C   UNL     1       5.459   1.907  -0.257  1.00  0.00     0.043 C 
BRANCH   5   6
ATOM      6  C   UNL     1       6.566   1.134  -0.827  1.00  0.00    -0.044 A 
ATOM      7  C   UNL     1       7.902   1.453  -0.579  1.00  0.00     0.008 A 
ATOM      8  C   UNL     1       6.305   0.036  -1.613  1.00  0.00     0.054 A 
ATOM      9  C   UNL     1       8.887   0.669  -1.123  1.00  0.00     0.051 A 
ATOM     10  C   UNL     1       7.333  -0.749  -2.157  1.00  0.00     0.166 A 
ATOM     11  C   UNL     1       8.652  -0.434  -1.913  1.00  0.00     0.165 A 
ATOM     12  O   UNL     1       7.369  -1.881  -2.963  1.00  0.00    -0.454 OA
ATOM     13  O   UNL     1       9.466  -1.368  -2.566  1.00  0.00    -0.454 OA
ATOM     14  C   UNL     1       8.640  -2.491  -2.792  1.00  0.00     0.468 C 
ENDBRANCH   5   6
ENDBRANCH   1   5
TORSDOF 3
ENDMDL
MODEL 2
REMARK VINA RESULT:      -7.4      1.072      1.205
REMARK SMILES CC(=O)CCc1ccc2c(c1)OCO2
REMARK SMILES IDX 4 1 2 2 1 3 3 4 5 5 6 6 7 7 11 8 8 9 10 10 9 11 12 12 14 13
REMARK SMILES IDX 13 14
REMARK H PARENT
REMARK Flexibility Score: inf
ROOT
ATOM      1  C   UNL     1       5.144   0.745   1.598  1.00  0.00     0.080 C 
ENDROOT
BRANCH   1   2
ATOM      2  C   UNL     1       6.151   0.121   2.476  1.00  0.00     0.130 C 
ATOM      3  C   UNL     1       6.375  -1.365   2.254  1.00  0.00     0.087 C 
ATOM      4  O   UNL     1       6.804   0.644   3.333  1.00  0.00    -0.300 OA
ENDBRANCH   1   2
BRANCH   1   5
ATOM      5  C   UNL     1       5.669   1.536   0.465  1.00  0.00     0.043 C 
BRANCH   5   6
ATOM      6  C   UNL     1       6.701   0.912  -0.368  1.00  0.00    -0.044 A 
ATOM      7  C   UNL     1       8.011   1.392  -0.415  1.00  0.00     0.008 A 
ATOM      8  C   UNL     1       6.400  -0.202  -1.116  1.00  0.00     0.054 A 
ATOM      9  C   UNL     1       8.931   0.742  -1.195  1.00  0.00     0.051 A 
ATOM     10  C   UNL     1       7.362  -0.848  -1.907  1.00  0.00     0.166 A 
ATOM     11  C   UNL     1       8.655  -0.374  -1.954  1.00  0.00     0.165 A 
ATOM     12  O   UNL     1       7.347  -1.959  -2.743  1.00  0.00    -0.454 OA
ATOM     13  O   UNL     1       9.404  -1.193  -2.808  1.00  0.00    -0.454 OA
ATOM     14  C   UNL     1       8.687  -2.408  -2.885  1.00  0.00     0.468 C 
ENDBRANCH   5   6
ENDBRANCH   1   5
TORSDOF 3
ENDMDL
MODEL 3
REMARK VINA RESULT:      -7.0      1.963      2.430
REMARK SMILES CC(=O)CCc1ccc2c(c1)OCO2
REMARK SMILES IDX 4 1 2 2 1 3 3 4 5 5 6 6 7 7 11 8 8 9 10 10 9 11 12 12 14 13
REMARK SMILES IDX 13 14
REMARK H PARENT
REMARK Flexibility Score: inf
ROOT
ATOM      1  C   UNL     1       5.807   0.353   2.225  1.00  0.00     0.080 C 
ENDROOT
BRANCH   1   2
ATOM      2  C   UNL     1       4.691   1.267   1.922  1.00  0.00     0.130 C 
ATOM      3  C   UNL     1       4.862   2.108   0.668  1.00  0.00     0.087 C 
ATOM      4  O   UNL     1       3.678   1.421   2.542  1.00  0.00    -0.300 OA
ENDBRANCH   1   2
BRANCH   1   5
ATOM      5  C   UNL     1       7.042   0.548   1.436  1.00  0.00     0.043 C 
BRANCH   5   6
ATOM      6  C   UNL     1       7.348  -0.453   0.411  1.00  0.00    -0.044 A 
ATOM      7  C   UNL     1       7.224  -0.184  -0.953  1.00  0.00     0.008 A 
ATOM      8  C   UNL     1       7.802  -1.699   0.779  1.00  0.00     0.054 A 
ATOM      9  C   UNL     1       7.554  -1.160  -1.857  1.00  0.00     0.051 A 
ATOM     10  C   UNL     1       8.133  -2.679  -0.168  1.00  0.00     0.166 A 
ATOM     11  C   UNL     1       8.010  -2.414  -1.514  1.00  0.00     0.165 A 
ATOM     12  O   UNL     1       8.602  -3.985  -0.092  1.00  0.00    -0.454 OA
ATOM     13  O   UNL     1       8.402  -3.549  -2.235  1.00  0.00    -0.454 OA
ATOM     14  C   UNL     1       9.197  -4.302  -1.342  1.00  0.00     0.468 C 
ENDBRANCH   5   6
ENDBRANCH   1   5
TORSDOF 3
ENDMDL
MODEL 4
REMARK VINA RESULT:      -7.0      1.125      1.610
REMARK SMILES CC(=O)CCc1ccc2c(c1)OCO2
REMARK SMILES IDX 4 1 2 2 1 3 3 4 5 5 6 6 7 7 11 8 8 9 10 10 9 11 12 12 14 13
REMARK SMILES IDX 13 14
REMARK H PARENT
REMARK Flexibility Score: inf
ROOT
ATOM      1  C   UNL     1       5.408   0.049   2.039  1.00  0.00     0.080 C 
ENDROOT
BRANCH   1   2
ATOM      2  C   UNL     1       4.484   1.192   1.935  1.00  0.00     0.130 C 
ATOM      3  C   UNL     1       4.760   2.150   0.788  1.00  0.00     0.087 C 
ATOM      4  O   UNL     1       3.551   1.450   2.641  1.00  0.00    -0.300 OA
ENDBRANCH   1   2
BRANCH   1   5
ATOM      5  C   UNL     1       6.836   0.341   1.793  1.00  0.00     0.043 C 
BRANCH   5   6
ATOM      6  C   UNL     1       7.365   0.029   0.463  1.00  0.00    -0.044 A 
ATOM      7  C   UNL     1       7.922   1.006  -0.364  1.00  0.00     0.008 A 
ATOM      8  C   UNL     1       7.348  -1.267   0.001  1.00  0.00     0.054 A 
ATOM      9  C   UNL     1       8.423   0.638  -1.586  1.00  0.00     0.051 A 
ATOM     10  C   UNL     1       7.868  -1.615  -1.254  1.00  0.00     0.166 A 
ATOM     11  C   UNL     1       8.418  -0.651  -2.071  1.00  0.00     0.165 A 
ATOM     12  O   UNL     1       7.984  -2.806  -1.962  1.00  0.00    -0.454 OA
ATOM     13  O   UNL     1       8.858  -1.260  -3.253  1.00  0.00    -0.454 OA
ATOM     14  C   UNL     1       9.001  -2.629  -2.937  1.00  0.00     0.468 C 
ENDBRANCH   5   6
ENDBRANCH   1   5
TORSDOF 3
ENDMDL
MODEL 5
REMARK VINA RESULT:      -7.0      1.614      1.991
REMARK SMILES CC(=O)CCc1ccc2c(c1)OCO2
REMARK SMILES IDX 4 1 2 2 1 3 3 4 5 5 6 6 7 7 11 8 8 9 10 10 9 11 12 12 14 13
REMARK SMILES IDX 13 14
REMARK H PARENT
REMARK Flexibility Score: inf
ROOT
ATOM      1  C   UNL     1       5.556   1.604   0.338  1.00  0.00     0.080 C 
ENDROOT
BRANCH   1   2
ATOM      2  C   UNL     1       5.207   1.325   1.743  1.00  0.00     0.130 C 
ATOM      3  C   UNL     1       6.360   0.869   2.620  1.00  0.00     0.087 C 
ATOM      4  O   UNL     1       4.132   1.416   2.266  1.00  0.00    -0.300 OA
ENDBRANCH   1   2
BRANCH   1   5
ATOM      5  C   UNL     1       6.969   1.389  -0.037  1.00  0.00     0.043 C 
BRANCH   5   6
ATOM      6  C   UNL     1       7.291   0.152  -0.755  1.00  0.00    -0.044 A 
ATOM      7  C   UNL     1       7.254   0.069  -2.148  1.00  0.00     0.008 A 
ATOM      8  C   UNL     1       7.672  -0.970  -0.056  1.00  0.00     0.054 A 
ATOM      9  C   UNL     1       7.594  -1.113  -2.754  1.00  0.00     0.051 A 
ATOM     10  C   UNL     1       8.015  -2.167  -0.702  1.00  0.00     0.166 A 
ATOM     11  C   UNL     1       7.978  -2.249  -2.077  1.00  0.00     0.165 A 
ATOM     12  O   UNL     1       8.425  -3.422  -0.269  1.00  0.00    -0.454 OA
ATOM     13  O   UNL     1       8.363  -3.541  -2.461  1.00  0.00    -0.454 OA
ATOM     14  C   UNL     1       9.075  -4.061  -1.358  1.00  0.00     0.468 C 
ENDBRANCH   5   6
ENDBRANCH   1   5
TORSDOF 3
ENDMDL
