@<TRIPOS>MOLECULE
/home/cewinharhar/GITHUB/reincatalyze/data/processed/docking_pred/2023-May-31-1727_sub9_nm5_bs15_s42_ex16_mel10_mts10000_k50_ec075_g099_lra3e-4_lrc3e-3/b3efa5aa79561967f2a1346927635c3d7bfec8a2_ligand_9.pdbqt
 14 15 0 0 0
SMALL
GASTEIGER

@<TRIPOS>ATOM
      1  C          5.4840    2.1500    1.2010 C.3     1  UNL1        0.0800
      2  C          4.7330    1.1920    2.0320 C.2     1  UNL1        0.1300
      3  C          5.3580   -0.1870    2.1600 C.3     1  UNL1        0.0870
      4  O          3.6990    1.3730    2.6100 O.2     1  UNL1       -0.3000
      5  C          5.4590    1.9070   -0.2570 C.3     1  UNL1        0.0430
      6  C          6.5660    1.1340   -0.8270 C.2     1  UNL1       -0.0440
      7  C          7.9020    1.4530   -0.5790 C.2     1  UNL1        0.0080
      8  C          6.3050    0.0360   -1.6130 C.2     1  UNL1        0.0540
      9  C          8.8870    0.6690   -1.1230 C.2     1  UNL1        0.0510
     10  C          7.3330   -0.7490   -2.1570 C.2     1  UNL1        0.1660
     11  C          8.6520   -0.4340   -1.9130 C.2     1  UNL1        0.1650
     12  O          7.3690   -1.8810   -2.9630 O.2     1  UNL1       -0.4540
     13  O          9.4660   -1.3680   -2.5660 O.2     1  UNL1       -0.4540
     14  C          8.6400   -2.4910   -2.7920 C.3     1  UNL1        0.4680
@<TRIPOS>BOND
     1    12    14    1
     2    12    10    1
     3    14    13    1
     4    13    11    1
     5    10    11    2
     6    10     8    1
     7    11     9    1
     8     8     6    2
     9     9     7    2
    10     6     7    1
    11     6     5    1
    12     5     1    1
    13     1     2    1
    14     2     3    1
    15     2     4    2
