@<TRIPOS>MOLECULE
/home/cewinharhar/GITHUB/reincatalyze/data/processed/docking_pred/2023-May-31-1727_sub9_nm5_bs15_s42_ex16_mel10_mts10000_k50_ec075_g099_lra3e-4_lrc3e-3/b3efa5aa79561967f2a1346927635c3d7bfec8a2_ligand_9.pdbqt
 14 15 0 0 0
SMALL
GASTEIGER

@<TRIPOS>ATOM
      1  C          5.1440    0.7450    1.5980 C.3     1  UNL1        0.0800
      2  C          6.1510    0.1210    2.4760 C.2     1  UNL1        0.1300
      3  C          6.3750   -1.3650    2.2540 C.3     1  UNL1        0.0870
      4  O          6.8040    0.6440    3.3330 O.2     1  UNL1       -0.3000
      5  C          5.6690    1.5360    0.4650 C.3     1  UNL1        0.0430
      6  C          6.7010    0.9120   -0.3680 C.2     1  UNL1       -0.0440
      7  C          8.0110    1.3920   -0.4150 C.2     1  UNL1        0.0080
      8  C          6.4000   -0.2020   -1.1160 C.2     1  UNL1        0.0540
      9  C          8.9310    0.7420   -1.1950 C.2     1  UNL1        0.0510
     10  C          7.3620   -0.8480   -1.9070 C.2     1  UNL1        0.1660
     11  C          8.6550   -0.3740   -1.9540 C.2     1  UNL1        0.1650
     12  O          7.3470   -1.9590   -2.7430 O.2     1  UNL1       -0.4540
     13  O          9.4040   -1.1930   -2.8080 O.2     1  UNL1       -0.4540
     14  C          8.6870   -2.4080   -2.8850 C.3     1  UNL1        0.4680
@<TRIPOS>BOND
     1    14    13    1
     2    14    12    1
     3    13    11    1
     4    12    10    1
     5    11    10    2
     6    11     9    1
     7    10     8    1
     8     9     7    2
     9     8     6    2
    10     7     6    1
    11     6     5    1
    12     5     1    1
    13     1     2    1
    14     3     2    1
    15     2     4    2
