@<TRIPOS>MOLECULE
/home/cewinharhar/GITHUB/reincatalyze/data/processed/docking_pred/2023-May-31-1727_sub9_nm5_bs15_s42_ex16_mel10_mts10000_k50_ec075_g099_lra3e-4_lrc3e-3/b3efa5aa79561967f2a1346927635c3d7bfec8a2_ligand_9.pdbqt
 14 15 0 0 0
SMALL
GASTEIGER

@<TRIPOS>ATOM
      1  C          5.4080    0.0490    2.0390 C.3     1  UNL1        0.0800
      2  C          4.4840    1.1920    1.9350 C.2     1  UNL1        0.1300
      3  C          4.7600    2.1500    0.7880 C.3     1  UNL1        0.0870
      4  O          3.5510    1.4500    2.6410 O.2     1  UNL1       -0.3000
      5  C          6.8360    0.3410    1.7930 C.3     1  UNL1        0.0430
      6  C          7.3650    0.0290    0.4630 C.2     1  UNL1       -0.0440
      7  C          7.9220    1.0060   -0.3640 C.2     1  UNL1        0.0080
      8  C          7.3480   -1.2670    0.0010 C.2     1  UNL1        0.0540
      9  C          8.4230    0.6380   -1.5860 C.2     1  UNL1        0.0510
     10  C          7.8680   -1.6150   -1.2540 C.2     1  UNL1        0.1660
     11  C          8.4180   -0.6510   -2.0710 C.2     1  UNL1        0.1650
     12  O          7.9840   -2.8060   -1.9620 O.2     1  UNL1       -0.4540
     13  O          8.8580   -1.2600   -3.2530 O.2     1  UNL1       -0.4540
     14  C          9.0010   -2.6290   -2.9370 C.3     1  UNL1        0.4680
@<TRIPOS>BOND
     1    13    14    1
     2    13    11    1
     3    14    12    1
     4    11     9    2
     5    11    10    1
     6    12    10    1
     7     9     7    1
     8    10     8    2
     9     7     6    2
    10     8     6    1
    11     6     5    1
    12     3     2    1
    13     5     1    1
    14     2     1    1
    15     2     4    2
