@<TRIPOS>MOLECULE
/home/cewinharhar/GITHUB/reincatalyze/data/processed/docking_pred/2023-May-31-1727_sub9_nm5_bs15_s42_ex16_mel10_mts10000_k50_ec075_g099_lra3e-4_lrc3e-3/b3efa5aa79561967f2a1346927635c3d7bfec8a2_ligand_9.pdbqt
 14 15 0 0 0
SMALL
GASTEIGER

@<TRIPOS>ATOM
      1  C          5.8070    0.3530    2.2250 C.3     1  UNL1        0.0800
      2  C          4.6910    1.2670    1.9220 C.2     1  UNL1        0.1300
      3  C          4.8620    2.1080    0.6680 C.3     1  UNL1        0.0870
      4  O          3.6780    1.4210    2.5420 O.2     1  UNL1       -0.3000
      5  C          7.0420    0.5480    1.4360 C.3     1  UNL1        0.0430
      6  C          7.3480   -0.4530    0.4110 C.2     1  UNL1       -0.0440
      7  C          7.2240   -0.1840   -0.9530 C.2     1  UNL1        0.0080
      8  C          7.8020   -1.6990    0.7790 C.2     1  UNL1        0.0540
      9  C          7.5540   -1.1600   -1.8570 C.2     1  UNL1        0.0510
     10  C          8.1330   -2.6790   -0.1680 C.2     1  UNL1        0.1660
     11  C          8.0100   -2.4140   -1.5140 C.2     1  UNL1        0.1650
     12  O          8.6020   -3.9850   -0.0920 O.2     1  UNL1       -0.4540
     13  O          8.4020   -3.5490   -2.2350 O.2     1  UNL1       -0.4540
     14  C          9.1970   -4.3020   -1.3420 C.3     1  UNL1        0.4680
@<TRIPOS>BOND
     1    13    11    1
     2    13    14    1
     3     9    11    2
     4     9     7    1
     5    11    10    1
     6    14    12    1
     7     7     6    2
     8    10    12    1
     9    10     8    2
    10     6     8    1
    11     6     5    1
    12     3     2    1
    13     5     1    1
    14     2     1    1
    15     2     4    2
