@<TRIPOS>MOLECULE
/home/cewinharhar/GITHUB/reincatalyze/data/processed/docking_pred/2023-May-31-1727_sub9_nm5_bs15_s42_ex16_mel10_mts10000_k50_ec075_g099_lra3e-4_lrc3e-3/b58c38953477011b0b30fd8623da0ee842eab33b_ligand_9.pdbqt
 14 15 0 0 0
SMALL
GASTEIGER

@<TRIPOS>ATOM
      1  C          5.6200    1.6660    0.0470 C.3     1  UNL1        0.0800
      2  C          4.9120    1.3270    1.2950 C.2     1  UNL1        0.1300
      3  C          5.4760    0.1420    2.0620 C.3     1  UNL1        0.0870
      4  O          3.9550    1.8710    1.7690 O.2     1  UNL1       -0.3000
      5  C          7.0450    1.2790   -0.0190 C.3     1  UNL1        0.0430
      6  C          7.3700    0.0370   -0.7250 C.2     1  UNL1       -0.0440
      7  C          7.3430   -0.0560   -2.1170 C.2     1  UNL1        0.0080
      8  C          7.7460   -1.0800   -0.0160 C.2     1  UNL1        0.0540
      9  C          7.6860   -1.2430   -2.7130 C.2     1  UNL1        0.0510
     10  C          8.0920   -2.2820   -0.6510 C.2     1  UNL1        0.1660
     11  C          8.0640   -2.3740   -2.0250 C.2     1  UNL1        0.1650
     12  O          8.4990   -3.5340   -0.2060 O.2     1  UNL1       -0.4540
     13  O          8.4500   -3.6690   -2.3970 O.2     1  UNL1       -0.4540
     14  C          9.1550   -4.1820   -1.2860 C.3     1  UNL1        0.4680
@<TRIPOS>BOND
     1     9     7    1
     2     9    11    2
     3    13    11    1
     4    13    14    1
     5     7     6    2
     6    11    10    1
     7    14    12    1
     8     6     5    1
     9     6     8    1
    10    10    12    1
    11    10     8    2
    12     5     1    1
    13     1     2    1
    14     2     4    2
    15     2     3    1
