@<TRIPOS>MOLECULE
/home/cewinharhar/GITHUB/reincatalyze/data/processed/docking_pred/2023-May-31-1727_sub9_nm5_bs15_s42_ex16_mel10_mts10000_k50_ec075_g099_lra3e-4_lrc3e-3/b58c38953477011b0b30fd8623da0ee842eab33b_ligand_9.pdbqt
 14 15 0 0 0
SMALL
GASTEIGER

@<TRIPOS>ATOM
      1  C          5.7540    0.1800    1.8710 C.3     1  UNL1        0.0800
      2  C          4.7240    1.2050    1.6220 C.2     1  UNL1        0.1300
      3  C          5.0120    2.1500    0.4690 C.3     1  UNL1        0.0870
      4  O          3.6980    1.3750    2.2170 O.2     1  UNL1       -0.3000
      5  C          7.0360    0.3590    1.1590 C.3     1  UNL1        0.0430
      6  C          7.4110   -0.6690    0.1840 C.2     1  UNL1       -0.0440
      7  C          7.3800   -0.4370   -1.1920 C.2     1  UNL1        0.0080
      8  C          7.8380   -1.9040    0.6160 C.2     1  UNL1        0.0540
      9  C          7.7700   -1.4370   -2.0450 C.2     1  UNL1        0.0510
     10  C          8.2330   -2.9090   -0.2800 C.2     1  UNL1        0.1660
     11  C          8.2010   -2.6800   -1.6380 C.2     1  UNL1        0.1650
     12  O          8.6950   -4.2110   -0.1370 O.2     1  UNL1       -0.4540
     13  O          8.6400   -3.8340   -2.3000 O.2     1  UNL1       -0.4540
     14  C          9.3730   -4.5610   -1.3350 C.3     1  UNL1        0.4680
@<TRIPOS>BOND
     1    13    11    1
     2    13    14    1
     3     9    11    2
     4     9     7    1
     5    11    10    1
     6    14    12    1
     7     7     6    2
     8    10    12    1
     9    10     8    2
    10     6     8    1
    11     6     5    1
    12     3     2    1
    13     5     1    1
    14     2     1    1
    15     2     4    2
