@<TRIPOS>MOLECULE
/home/cewinharhar/GITHUB/reincatalyze/data/processed/docking_pred/2023-May-31-1727_sub9_nm5_bs15_s42_ex16_mel10_mts10000_k50_ec075_g099_lra3e-4_lrc3e-3/b58c38953477011b0b30fd8623da0ee842eab33b_ligand_9.pdbqt
 14 15 0 0 0
SMALL
GASTEIGER

@<TRIPOS>ATOM
      1  C          5.3650   -0.0380    1.9510 C.3     1  UNL1        0.0800
      2  C          4.4190    1.0880    1.8560 C.2     1  UNL1        0.1300
      3  C          4.7470    2.1250    0.7960 C.3     1  UNL1        0.0870
      4  O          3.4330    1.2780    2.5110 O.2     1  UNL1       -0.3000
      5  C          6.7850    0.2810    1.6970 C.3     1  UNL1        0.0430
      6  C          7.3210   -0.0540    0.3750 C.2     1  UNL1       -0.0440
      7  C          7.7360    0.9250   -0.5300 C.2     1  UNL1        0.0080
      8  C          7.4570   -1.3700   -0.0000 C.2     1  UNL1        0.0540
      9  C          8.2530    0.5390   -1.7390 C.2     1  UNL1        0.0510
     10  C          7.9900   -1.7370   -1.2450 C.2     1  UNL1        0.1660
     11  C          8.3980   -0.7710   -2.1380 C.2     1  UNL1        0.1650
     12  O          8.2390   -2.9500   -1.8760 O.2     1  UNL1       -0.4540
     13  O          8.8860   -1.4000   -3.2900 O.2     1  UNL1       -0.4540
     14  C          9.2050   -2.7170   -2.8900 C.3     1  UNL1        0.4680
@<TRIPOS>BOND
     1    13    14    1
     2    13    11    1
     3    14    12    1
     4    11     9    2
     5    11    10    1
     6    12    10    1
     7     9     7    1
     8    10     8    2
     9     7     6    2
    10     8     6    1
    11     6     5    1
    12     3     2    1
    13     5     1    1
    14     2     1    1
    15     2     4    2
