@<TRIPOS>MOLECULE
/home/cewinharhar/GITHUB/reincatalyze/data/processed/docking_pred/2023-May-31-1727_sub9_nm5_bs15_s42_ex16_mel10_mts10000_k50_ec075_g099_lra3e-4_lrc3e-3/b590df4aad401e291154b1741be08749940afe84_ligand_9.pdbqt
 14 15 0 0 0
SMALL
GASTEIGER

@<TRIPOS>ATOM
      1  C          6.5000    0.9060    1.5050 C.3     1  UNL1        0.0800
      2  C          5.1560    1.4510    1.2380 C.2     1  UNL1        0.1300
      3  C          4.9920    2.1500   -0.1010 C.3     1  UNL1        0.0870
      4  O          4.1910    1.4070    1.9460 O.2     1  UNL1       -0.3000
      5  C          7.4640    0.9740    0.3870 C.3     1  UNL1        0.0430
      6  C          7.7020   -0.2580   -0.3700 C.2     1  UNL1       -0.0440
      7  C          7.6960   -0.2870   -1.7650 C.2     1  UNL1        0.0080
      8  C          7.9680   -1.4330    0.2940 C.2     1  UNL1        0.0540
      9  C          7.9530   -1.4700   -2.4080 C.2     1  UNL1        0.0510
     10  C          8.2280   -2.6300   -0.3900 C.2     1  UNL1        0.1660
     11  C          8.2220   -2.6590   -1.7670 C.2     1  UNL1        0.1650
     12  O          8.5200   -3.9310    0.0040 O.2     1  UNL1       -0.4540
     13  O          8.5090   -3.9630   -2.1910 O.2     1  UNL1       -0.4540
     14  C          9.1450   -4.5820   -1.0920 C.3     1  UNL1        0.4680
@<TRIPOS>BOND
     1     9    11    2
     2     9     7    1
     3    13    11    1
     4    13    14    1
     5    11    10    1
     6     7     6    2
     7    14    12    1
     8    10    12    1
     9    10     8    2
    10     6     8    1
    11     6     5    1
    12     3     2    1
    13     5     1    1
    14     2     1    1
    15     2     4    2
