@<TRIPOS>MOLECULE
/home/cewinharhar/GITHUB/reincatalyze/data/processed/docking_pred/2023-May-31-1727_sub9_nm5_bs15_s42_ex16_mel10_mts10000_k50_ec075_g099_lra3e-4_lrc3e-3/b590df4aad401e291154b1741be08749940afe84_ligand_9.pdbqt
 14 15 0 0 0
SMALL
GASTEIGER

@<TRIPOS>ATOM
      1  C          5.7830    1.4780   -0.2820 C.3     1  UNL1        0.0800
      2  C          5.0500    1.4020    0.9950 C.2     1  UNL1        0.1300
      3  C          5.4180    0.2280    1.8870 C.3     1  UNL1        0.0870
      4  O          4.2080    2.1500    1.4050 O.2     1  UNL1       -0.3000
      5  C          7.2000    1.0610   -0.2450 C.3     1  UNL1        0.0430
      6  C          7.5330   -0.2350   -0.8430 C.2     1  UNL1       -0.0440
      7  C          7.5820   -0.4260   -2.2250 C.2     1  UNL1        0.0080
      8  C          7.8380   -1.3080   -0.0380 C.2     1  UNL1        0.0540
      9  C          7.9280   -1.6590   -2.7160 C.2     1  UNL1        0.0510
     10  C          8.1890   -2.5590   -0.5670 C.2     1  UNL1        0.1660
     11  C          8.2370   -2.7470   -1.9300 C.2     1  UNL1        0.1650
     12  O          8.5360   -3.7850   -0.0130 O.2     1  UNL1       -0.4540
     13  O          8.6090   -4.0730   -2.1890 O.2     1  UNL1       -0.4540
     14  C          9.2360   -4.5220   -1.0050 C.3     1  UNL1        0.4680
@<TRIPOS>BOND
     1     9     7    1
     2     9    11    2
     3     7     6    2
     4    13    11    1
     5    13    14    1
     6    11    10    1
     7    14    12    1
     8     6     5    1
     9     6     8    1
    10    10     8    2
    11    10    12    1
    12     1     5    1
    13     1     2    1
    14     2     4    2
    15     2     3    1
