MODEL 1
REMARK VINA RESULT:      -7.6      0.000      0.000
REMARK SMILES CC(=O)CCc1ccc2c(c1)OCO2
REMARK SMILES IDX 4 1 2 2 1 3 3 4 5 5 6 6 7 7 11 8 8 9 10 10 9 11 12 12 14 13
REMARK SMILES IDX 13 14
REMARK H PARENT
REMARK Flexibility Score: inf
ROOT
ATOM      1  C   UNL     1       5.674   1.902   1.252  1.00  0.00     0.080 C 
ENDROOT
BRANCH   1   2
ATOM      2  C   UNL     1       5.139   0.763   2.019  1.00  0.00     0.130 C 
ATOM      3  C   UNL     1       6.111  -0.382   2.246  1.00  0.00     0.087 C 
ATOM      4  O   UNL     1       4.039   0.638   2.479  1.00  0.00    -0.300 OA
ENDBRANCH   1   2
BRANCH   1   5
ATOM      5  C   UNL     1       5.644   1.768  -0.220  1.00  0.00     0.043 C 
BRANCH   5   6
ATOM      6  C   UNL     1       6.715   0.986  -0.843  1.00  0.00    -0.044 A 
ATOM      7  C   UNL     1       8.061   1.338  -0.724  1.00  0.00     0.008 A 
ATOM      8  C   UNL     1       6.413  -0.153  -1.552  1.00  0.00     0.054 A 
ATOM      9  C   UNL     1       9.012   0.545  -1.311  1.00  0.00     0.051 A 
ATOM     10  C   UNL     1       7.407  -0.948  -2.143  1.00  0.00     0.166 A 
ATOM     11  C   UNL     1       8.735  -0.599  -2.026  1.00  0.00     0.165 A 
ATOM     12  O   UNL     1       7.399  -2.116  -2.894  1.00  0.00    -0.454 OA
ATOM     13  O   UNL     1       9.511  -1.550  -2.700  1.00  0.00    -0.454 OA
ATOM     14  C   UNL     1       8.692  -2.696  -2.802  1.00  0.00     0.468 C 
ENDBRANCH   5   6
ENDBRANCH   1   5
TORSDOF 3
ENDMDL
MODEL 2
REMARK VINA RESULT:      -7.0      1.782      2.237
REMARK SMILES CC(=O)CCc1ccc2c(c1)OCO2
REMARK SMILES IDX 4 1 2 2 1 3 3 4 5 5 6 6 7 7 11 8 8 9 10 10 9 11 12 12 14 13
REMARK SMILES IDX 13 14
REMARK H PARENT
REMARK Flexibility Score: inf
ROOT
ATOM      1  C   UNL     1       5.783   1.478  -0.282  1.00  0.00     0.080 C 
ENDROOT
BRANCH   1   2
ATOM      2  C   UNL     1       5.050   1.402   0.995  1.00  0.00     0.130 C 
ATOM      3  C   UNL     1       5.418   0.228   1.887  1.00  0.00     0.087 C 
ATOM      4  O   UNL     1       4.208   2.150   1.405  1.00  0.00    -0.300 OA
ENDBRANCH   1   2
BRANCH   1   5
ATOM      5  C   UNL     1       7.200   1.061  -0.245  1.00  0.00     0.043 C 
BRANCH   5   6
ATOM      6  C   UNL     1       7.533  -0.235  -0.843  1.00  0.00    -0.044 A 
ATOM      7  C   UNL     1       7.582  -0.426  -2.225  1.00  0.00     0.008 A 
ATOM      8  C   UNL     1       7.838  -1.308  -0.038  1.00  0.00     0.054 A 
ATOM      9  C   UNL     1       7.928  -1.659  -2.716  1.00  0.00     0.051 A 
ATOM     10  C   UNL     1       8.189  -2.559  -0.567  1.00  0.00     0.166 A 
ATOM     11  C   UNL     1       8.237  -2.747  -1.930  1.00  0.00     0.165 A 
ATOM     12  O   UNL     1       8.536  -3.785  -0.013  1.00  0.00    -0.454 OA
ATOM     13  O   UNL     1       8.609  -4.073  -2.189  1.00  0.00    -0.454 OA
ATOM     14  C   UNL     1       9.236  -4.522  -1.005  1.00  0.00     0.468 C 
ENDBRANCH   5   6
ENDBRANCH   1   5
TORSDOF 3
ENDMDL
MODEL 3
REMARK VINA RESULT:      -6.9      1.022      1.076
REMARK SMILES CC(=O)CCc1ccc2c(c1)OCO2
REMARK SMILES IDX 4 1 2 2 1 3 3 4 5 5 6 6 7 7 11 8 8 9 10 10 9 11 12 12 14 13
REMARK SMILES IDX 13 14
REMARK H PARENT
REMARK Flexibility Score: inf
ROOT
ATOM      1  C   UNL     1       6.155   1.287   0.851  1.00  0.00     0.080 C 
ENDROOT
BRANCH   1   2
ATOM      2  C   UNL     1       5.488   0.478   1.887  1.00  0.00     0.130 C 
ATOM      3  C   UNL     1       6.279  -0.720   2.386  1.00  0.00     0.087 C 
ATOM      4  O   UNL     1       4.408   0.654   2.376  1.00  0.00    -0.300 OA
ENDBRANCH   1   2
BRANCH   1   5
ATOM      5  C   UNL     1       5.833   0.944  -0.550  1.00  0.00     0.043 C 
BRANCH   5   6
ATOM      6  C   UNL     1       6.829   0.170  -1.296  1.00  0.00    -0.044 A 
ATOM      7  C   UNL     1       7.816   0.779  -2.073  1.00  0.00     0.008 A 
ATOM      8  C   UNL     1       6.830  -1.204  -1.223  1.00  0.00     0.054 A 
ATOM      9  C   UNL     1       8.732  -0.006  -2.723  1.00  0.00     0.051 A 
ATOM     10  C   UNL     1       7.781  -1.984  -1.898  1.00  0.00     0.166 A 
ATOM     11  C   UNL     1       8.754  -1.382  -2.665  1.00  0.00     0.165 A 
ATOM     12  O   UNL     1       8.019  -3.348  -2.005  1.00  0.00    -0.454 OA
ATOM     13  O   UNL     1       9.566  -2.377  -3.224  1.00  0.00    -0.454 OA
ATOM     14  C   UNL     1       9.368  -3.518  -2.415  1.00  0.00     0.468 C 
ENDBRANCH   5   6
ENDBRANCH   1   5
TORSDOF 3
ENDMDL
MODEL 4
REMARK VINA RESULT:      -6.8      1.853      2.383
REMARK SMILES CC(=O)CCc1ccc2c(c1)OCO2
REMARK SMILES IDX 4 1 2 2 1 3 3 4 5 5 6 6 7 7 11 8 8 9 10 10 9 11 12 12 14 13
REMARK SMILES IDX 13 14
REMARK H PARENT
REMARK Flexibility Score: inf
ROOT
ATOM      1  C   UNL     1       6.500   0.906   1.505  1.00  0.00     0.080 C 
ENDROOT
BRANCH   1   2
ATOM      2  C   UNL     1       5.156   1.451   1.238  1.00  0.00     0.130 C 
ATOM      3  C   UNL     1       4.992   2.150  -0.101  1.00  0.00     0.087 C 
ATOM      4  O   UNL     1       4.191   1.407   1.946  1.00  0.00    -0.300 OA
ENDBRANCH   1   2
BRANCH   1   5
ATOM      5  C   UNL     1       7.464   0.974   0.387  1.00  0.00     0.043 C 
BRANCH   5   6
ATOM      6  C   UNL     1       7.702  -0.258  -0.370  1.00  0.00    -0.044 A 
ATOM      7  C   UNL     1       7.696  -0.287  -1.765  1.00  0.00     0.008 A 
ATOM      8  C   UNL     1       7.968  -1.433   0.294  1.00  0.00     0.054 A 
ATOM      9  C   UNL     1       7.953  -1.470  -2.408  1.00  0.00     0.051 A 
ATOM     10  C   UNL     1       8.228  -2.630  -0.390  1.00  0.00     0.166 A 
ATOM     11  C   UNL     1       8.222  -2.659  -1.767  1.00  0.00     0.165 A 
ATOM     12  O   UNL     1       8.520  -3.931   0.004  1.00  0.00    -0.454 OA
ATOM     13  O   UNL     1       8.509  -3.963  -2.191  1.00  0.00    -0.454 OA
ATOM     14  C   UNL     1       9.145  -4.582  -1.092  1.00  0.00     0.468 C 
ENDBRANCH   5   6
ENDBRANCH   1   5
TORSDOF 3
ENDMDL
MODEL 5
REMARK VINA RESULT:      -6.7      1.095      1.600
REMARK SMILES CC(=O)CCc1ccc2c(c1)OCO2
REMARK SMILES IDX 4 1 2 2 1 3 3 4 5 5 6 6 7 7 11 8 8 9 10 10 9 11 12 12 14 13
REMARK SMILES IDX 13 14
REMARK H PARENT
REMARK Flexibility Score: inf
ROOT
ATOM      1  C   UNL     1       5.335  -0.022   1.989  1.00  0.00     0.080 C 
ENDROOT
BRANCH   1   2
ATOM      2  C   UNL     1       4.388   1.101   1.869  1.00  0.00     0.130 C 
ATOM      3  C   UNL     1       4.733   2.132   0.807  1.00  0.00     0.087 C 
ATOM      4  O   UNL     1       3.390   1.293   2.504  1.00  0.00    -0.300 OA
ENDBRANCH   1   2
BRANCH   1   5
ATOM      5  C   UNL     1       6.760   0.300   1.762  1.00  0.00     0.043 C 
BRANCH   5   6
ATOM      6  C   UNL     1       7.312  -0.000   0.438  1.00  0.00    -0.044 A 
ATOM      7  C   UNL     1       7.870   0.987  -0.377  1.00  0.00     0.008 A 
ATOM      8  C   UNL     1       7.317  -1.294  -0.029  1.00  0.00     0.054 A 
ATOM      9  C   UNL     1       8.393   0.630  -1.592  1.00  0.00     0.051 A 
ATOM     10  C   UNL     1       7.859  -1.631  -1.278  1.00  0.00     0.166 A 
ATOM     11  C   UNL     1       8.410  -0.657  -2.082  1.00  0.00     0.165 A 
ATOM     12  O   UNL     1       7.999  -2.817  -1.989  1.00  0.00    -0.454 OA
ATOM     13  O   UNL     1       8.874  -1.256  -3.261  1.00  0.00    -0.454 OA
ATOM     14  C   UNL     1       9.028  -2.625  -2.948  1.00  0.00     0.468 C 
ENDBRANCH   5   6
ENDBRANCH   1   5
TORSDOF 3
ENDMDL
