@<TRIPOS>MOLECULE
/home/cewinharhar/GITHUB/reincatalyze/data/processed/docking_pred/2023-May-31-1727_sub9_nm5_bs15_s42_ex16_mel10_mts10000_k50_ec075_g099_lra3e-4_lrc3e-3/b5f7d4a2d914252a6bbd971338c7ac1ea6a3e46f_ligand_9.pdbqt
 14 15 0 0 0
SMALL
GASTEIGER

@<TRIPOS>ATOM
      1  C          5.5890    1.8850    1.2540 C.3     1  UNL1        0.0800
      2  C          5.0180    0.7490    2.0000 C.2     1  UNL1        0.1300
      3  C          5.9310   -0.4550    2.1500 C.3     1  UNL1        0.0870
      4  O          3.9300    0.6680    2.4970 O.2     1  UNL1       -0.3000
      5  C          5.5800    1.7670   -0.2190 C.3     1  UNL1        0.0430
      6  C          6.6700    1.0070   -0.8370 C.2     1  UNL1       -0.0440
      7  C          8.0090    1.3760   -0.6940 C.2     1  UNL1        0.0080
      8  C          6.3940   -0.1270   -1.5650 C.2     1  UNL1        0.0540
      9  C          8.9800    0.6040   -1.2770 C.2     1  UNL1        0.0510
     10  C          7.4070   -0.9000   -2.1510 C.2     1  UNL1        0.1660
     11  C          8.7280   -0.5350   -2.0100 C.2     1  UNL1        0.1650
     12  O          7.4260   -2.0590   -2.9170 O.2     1  UNL1       -0.4540
     13  O          9.5270   -1.4670   -2.6850 O.2     1  UNL1       -0.4540
     14  C          8.7250   -2.6220   -2.8140 C.3     1  UNL1        0.4680
@<TRIPOS>BOND
     1    12    14    1
     2    12    10    1
     3    14    13    1
     4    13    11    1
     5    10    11    2
     6    10     8    1
     7    11     9    1
     8     8     6    2
     9     9     7    2
    10     6     7    1
    11     6     5    1
    12     5     1    1
    13     1     2    1
    14     2     3    1
    15     2     4    2
