@<TRIPOS>MOLECULE
/home/cewinharhar/GITHUB/reincatalyze/data/processed/docking_pred/2023-May-31-1727_sub9_nm5_bs15_s42_ex16_mel10_mts10000_k50_ec075_g099_lra3e-4_lrc3e-3/b5f7d4a2d914252a6bbd971338c7ac1ea6a3e46f_ligand_9.pdbqt
 14 15 0 0 0
SMALL
GASTEIGER

@<TRIPOS>ATOM
      1  C          6.8000    1.1560    1.3860 C.3     1  UNL1        0.0800
      2  C          5.3350    1.2520    1.5180 C.2     1  UNL1        0.1300
      3  C          4.6490    2.1500    0.5030 C.3     1  UNL1        0.0870
      4  O          4.6320    0.7090    2.3220 O.2     1  UNL1       -0.3000
      5  C          7.3360    1.2190    0.0100 C.3     1  UNL1        0.0430
      6  C          7.6430   -0.0540   -0.6490 C.2     1  UNL1       -0.0440
      7  C          7.7950   -0.1580   -2.0320 C.2     1  UNL1        0.0080
      8  C          7.8210   -1.1930    0.1030 C.2     1  UNL1        0.0540
      9  C          8.1090   -1.3760   -2.5780 C.2     1  UNL1        0.0510
     10  C          8.1430   -2.4260   -0.4830 C.2     1  UNL1        0.1660
     11  C          8.2910   -2.5300   -1.8480 C.2     1  UNL1        0.1650
     12  O          8.3750   -3.7050    0.0100 O.2     1  UNL1       -0.4540
     13  O          8.6090   -3.8560   -2.1680 O.2     1  UNL1       -0.4540
     14  C          9.1110   -4.4180   -0.9730 C.3     1  UNL1        0.4680
@<TRIPOS>BOND
     1     9     7    1
     2     9    11    2
     3    13    11    1
     4    13    14    1
     5     7     6    2
     6    11    10    1
     7    14    12    1
     8     6     5    1
     9     6     8    1
    10    10    12    1
    11    10     8    2
    12     5     1    1
    13     3     2    1
    14     1     2    1
    15     2     4    2
