MODEL 1
REMARK VINA RESULT:      -7.7      0.000      0.000
REMARK SMILES CC(=O)CCc1ccc2c(c1)OCO2
REMARK SMILES IDX 4 1 2 2 1 3 3 4 5 5 6 6 7 7 11 8 8 9 10 10 9 11 12 12 14 13
REMARK SMILES IDX 13 14
REMARK H PARENT
REMARK Flexibility Score: inf
ROOT
ATOM      1  C   UNL     1       5.589   1.885   1.254  1.00  0.00     0.080 C 
ENDROOT
BRANCH   1   2
ATOM      2  C   UNL     1       5.018   0.749   2.000  1.00  0.00     0.130 C 
ATOM      3  C   UNL     1       5.931  -0.455   2.150  1.00  0.00     0.087 C 
ATOM      4  O   UNL     1       3.930   0.668   2.497  1.00  0.00    -0.300 OA
ENDBRANCH   1   2
BRANCH   1   5
ATOM      5  C   UNL     1       5.580   1.767  -0.219  1.00  0.00     0.043 C 
BRANCH   5   6
ATOM      6  C   UNL     1       6.670   1.007  -0.837  1.00  0.00    -0.044 A 
ATOM      7  C   UNL     1       8.009   1.376  -0.694  1.00  0.00     0.008 A 
ATOM      8  C   UNL     1       6.394  -0.127  -1.565  1.00  0.00     0.054 A 
ATOM      9  C   UNL     1       8.980   0.604  -1.277  1.00  0.00     0.051 A 
ATOM     10  C   UNL     1       7.407  -0.900  -2.151  1.00  0.00     0.166 A 
ATOM     11  C   UNL     1       8.728  -0.535  -2.010  1.00  0.00     0.165 A 
ATOM     12  O   UNL     1       7.426  -2.059  -2.917  1.00  0.00    -0.454 OA
ATOM     13  O   UNL     1       9.527  -1.467  -2.685  1.00  0.00    -0.454 OA
ATOM     14  C   UNL     1       8.725  -2.622  -2.814  1.00  0.00     0.468 C 
ENDBRANCH   5   6
ENDBRANCH   1   5
TORSDOF 3
ENDMDL
MODEL 2
REMARK VINA RESULT:      -7.0      1.091      1.183
REMARK SMILES CC(=O)CCc1ccc2c(c1)OCO2
REMARK SMILES IDX 4 1 2 2 1 3 3 4 5 5 6 6 7 7 11 8 8 9 10 10 9 11 12 12 14 13
REMARK SMILES IDX 13 14
REMARK H PARENT
REMARK Flexibility Score: inf
ROOT
ATOM      1  C   UNL     1       6.216   1.212   0.889  1.00  0.00     0.080 C 
ENDROOT
BRANCH   1   2
ATOM      2  C   UNL     1       5.551   0.395   1.920  1.00  0.00     0.130 C 
ATOM      3  C   UNL     1       6.338  -0.812   2.400  1.00  0.00     0.087 C 
ATOM      4  O   UNL     1       4.475   0.571   2.416  1.00  0.00    -0.300 OA
ENDBRANCH   1   2
BRANCH   1   5
ATOM      5  C   UNL     1       5.875   0.895  -0.514  1.00  0.00     0.043 C 
BRANCH   5   6
ATOM      6  C   UNL     1       6.853   0.119  -1.282  1.00  0.00    -0.044 A 
ATOM      7  C   UNL     1       7.797   0.726  -2.113  1.00  0.00     0.008 A 
ATOM      8  C   UNL     1       6.880  -1.252  -1.177  1.00  0.00     0.054 A 
ATOM      9  C   UNL     1       8.700  -0.060  -2.781  1.00  0.00     0.051 A 
ATOM     10  C   UNL     1       7.816  -2.032  -1.873  1.00  0.00     0.166 A 
ATOM     11  C   UNL     1       8.747  -1.434  -2.693  1.00  0.00     0.165 A 
ATOM     12  O   UNL     1       8.073  -3.395  -1.958  1.00  0.00    -0.454 OA
ATOM     13  O   UNL     1       9.552  -2.429  -3.261  1.00  0.00    -0.454 OA
ATOM     14  C   UNL     1       9.407  -3.553  -2.419  1.00  0.00     0.468 C 
ENDBRANCH   5   6
ENDBRANCH   1   5
TORSDOF 3
ENDMDL
MODEL 3
REMARK VINA RESULT:      -6.8      1.917      2.498
REMARK SMILES CC(=O)CCc1ccc2c(c1)OCO2
REMARK SMILES IDX 4 1 2 2 1 3 3 4 5 5 6 6 7 7 11 8 8 9 10 10 9 11 12 12 14 13
REMARK SMILES IDX 13 14
REMARK H PARENT
REMARK Flexibility Score: inf
ROOT
ATOM      1  C   UNL     1       5.485  -0.007   2.059  1.00  0.00     0.080 C 
ENDROOT
BRANCH   1   2
ATOM      2  C   UNL     1       4.539   1.100   1.828  1.00  0.00     0.130 C 
ATOM      3  C   UNL     1       4.931   2.070   0.726  1.00  0.00     0.087 C 
ATOM      4  O   UNL     1       3.510   1.320   2.401  1.00  0.00    -0.300 OA
ENDBRANCH   1   2
BRANCH   1   5
ATOM      5  C   UNL     1       6.840   0.166   1.495  1.00  0.00     0.043 C 
BRANCH   5   6
ATOM      6  C   UNL     1       7.256  -0.772   0.449  1.00  0.00    -0.044 A 
ATOM      7  C   UNL     1       7.178  -0.454  -0.908  1.00  0.00     0.008 A 
ATOM      8  C   UNL     1       7.769  -2.001   0.790  1.00  0.00     0.054 A 
ATOM      9  C   UNL     1       7.610  -1.369  -1.833  1.00  0.00     0.051 A 
ATOM     10  C   UNL     1       8.205  -2.919  -0.178  1.00  0.00     0.166 A 
ATOM     11  C   UNL     1       8.127  -2.606  -1.517  1.00  0.00     0.165 A 
ATOM     12  O   UNL     1       8.751  -4.196  -0.130  1.00  0.00    -0.454 OA
ATOM     13  O   UNL     1       8.622  -3.685  -2.261  1.00  0.00    -0.454 OA
ATOM     14  C   UNL     1       9.421  -4.424  -1.361  1.00  0.00     0.468 C 
ENDBRANCH   5   6
ENDBRANCH   1   5
TORSDOF 3
ENDMDL
MODEL 4
REMARK VINA RESULT:      -6.8      1.080      1.584
REMARK SMILES CC(=O)CCc1ccc2c(c1)OCO2
REMARK SMILES IDX 4 1 2 2 1 3 3 4 5 5 6 6 7 7 11 8 8 9 10 10 9 11 12 12 14 13
REMARK SMILES IDX 13 14
REMARK H PARENT
REMARK Flexibility Score: inf
ROOT
ATOM      1  C   UNL     1       5.353  -0.041   1.987  1.00  0.00     0.080 C 
ENDROOT
BRANCH   1   2
ATOM      2  C   UNL     1       4.409   1.086   1.874  1.00  0.00     0.130 C 
ATOM      3  C   UNL     1       4.753   2.118   0.814  1.00  0.00     0.087 C 
ATOM      4  O   UNL     1       3.414   1.279   2.513  1.00  0.00    -0.300 OA
ENDBRANCH   1   2
BRANCH   1   5
ATOM      5  C   UNL     1       6.779   0.280   1.770  1.00  0.00     0.043 C 
BRANCH   5   6
ATOM      6  C   UNL     1       7.336  -0.005   0.445  1.00  0.00    -0.044 A 
ATOM      7  C   UNL     1       7.924   0.986  -0.344  1.00  0.00     0.008 A 
ATOM      8  C   UNL     1       7.315  -1.288  -0.050  1.00  0.00     0.054 A 
ATOM      9  C   UNL     1       8.449   0.643  -1.563  1.00  0.00     0.051 A 
ATOM     10  C   UNL     1       7.861  -1.611  -1.301  1.00  0.00     0.166 A 
ATOM     11  C   UNL     1       8.440  -0.633  -2.080  1.00  0.00     0.165 A 
ATOM     12  O   UNL     1       7.980  -2.785  -2.036  1.00  0.00    -0.454 OA
ATOM     13  O   UNL     1       8.901  -1.217  -3.267  1.00  0.00    -0.454 OA
ATOM     14  C   UNL     1       9.022  -2.595  -2.983  1.00  0.00     0.468 C 
ENDBRANCH   5   6
ENDBRANCH   1   5
TORSDOF 3
ENDMDL
MODEL 5
REMARK VINA RESULT:      -6.7      1.804      2.267
REMARK SMILES CC(=O)CCc1ccc2c(c1)OCO2
REMARK SMILES IDX 4 1 2 2 1 3 3 4 5 5 6 6 7 7 11 8 8 9 10 10 9 11 12 12 14 13
REMARK SMILES IDX 13 14
REMARK H PARENT
REMARK Flexibility Score: inf
ROOT
ATOM      1  C   UNL     1       6.800   1.156   1.386  1.00  0.00     0.080 C 
ENDROOT
BRANCH   1   2
ATOM      2  C   UNL     1       5.335   1.252   1.518  1.00  0.00     0.130 C 
ATOM      3  C   UNL     1       4.649   2.150   0.503  1.00  0.00     0.087 C 
ATOM      4  O   UNL     1       4.632   0.709   2.322  1.00  0.00    -0.300 OA
ENDBRANCH   1   2
BRANCH   1   5
ATOM      5  C   UNL     1       7.336   1.219   0.010  1.00  0.00     0.043 C 
BRANCH   5   6
ATOM      6  C   UNL     1       7.643  -0.054  -0.649  1.00  0.00    -0.044 A 
ATOM      7  C   UNL     1       7.795  -0.158  -2.032  1.00  0.00     0.008 A 
ATOM      8  C   UNL     1       7.821  -1.193   0.103  1.00  0.00     0.054 A 
ATOM      9  C   UNL     1       8.109  -1.376  -2.578  1.00  0.00     0.051 A 
ATOM     10  C   UNL     1       8.143  -2.426  -0.483  1.00  0.00     0.166 A 
ATOM     11  C   UNL     1       8.291  -2.530  -1.848  1.00  0.00     0.165 A 
ATOM     12  O   UNL     1       8.375  -3.705   0.010  1.00  0.00    -0.454 OA
ATOM     13  O   UNL     1       8.609  -3.856  -2.168  1.00  0.00    -0.454 OA
ATOM     14  C   UNL     1       9.111  -4.418  -0.973  1.00  0.00     0.468 C 
ENDBRANCH   5   6
ENDBRANCH   1   5
TORSDOF 3
ENDMDL
