@<TRIPOS>MOLECULE
/home/cewinharhar/GITHUB/reincatalyze/data/processed/docking_pred/2023-May-31-1727_sub9_nm5_bs15_s42_ex16_mel10_mts10000_k50_ec075_g099_lra3e-4_lrc3e-3/b5f7d4a2d914252a6bbd971338c7ac1ea6a3e46f_ligand_9.pdbqt
 14 15 0 0 0
SMALL
GASTEIGER

@<TRIPOS>ATOM
      1  C          5.3530   -0.0410    1.9870 C.3     1  UNL1        0.0800
      2  C          4.4090    1.0860    1.8740 C.2     1  UNL1        0.1300
      3  C          4.7530    2.1180    0.8140 C.3     1  UNL1        0.0870
      4  O          3.4140    1.2790    2.5130 O.2     1  UNL1       -0.3000
      5  C          6.7790    0.2800    1.7700 C.3     1  UNL1        0.0430
      6  C          7.3360   -0.0050    0.4450 C.2     1  UNL1       -0.0440
      7  C          7.9240    0.9860   -0.3440 C.2     1  UNL1        0.0080
      8  C          7.3150   -1.2880   -0.0500 C.2     1  UNL1        0.0540
      9  C          8.4490    0.6430   -1.5630 C.2     1  UNL1        0.0510
     10  C          7.8610   -1.6110   -1.3010 C.2     1  UNL1        0.1660
     11  C          8.4400   -0.6330   -2.0800 C.2     1  UNL1        0.1650
     12  O          7.9800   -2.7850   -2.0360 O.2     1  UNL1       -0.4540
     13  O          8.9010   -1.2170   -3.2670 O.2     1  UNL1       -0.4540
     14  C          9.0220   -2.5950   -2.9830 C.3     1  UNL1        0.4680
@<TRIPOS>BOND
     1    13    14    1
     2    13    11    1
     3    14    12    1
     4    11     9    2
     5    11    10    1
     6    12    10    1
     7     9     7    1
     8    10     8    2
     9     7     6    2
    10     8     6    1
    11     6     5    1
    12     3     2    1
    13     5     1    1
    14     2     1    1
    15     2     4    2
