@<TRIPOS>MOLECULE
/home/cewinharhar/GITHUB/reincatalyze/data/processed/docking_pred/2023-May-31-1727_sub9_nm5_bs15_s42_ex16_mel10_mts10000_k50_ec075_g099_lra3e-4_lrc3e-3/b658f69152bbaa0d4df6d0fc1d77222c9f34aa3c_ligand_9.pdbqt
 14 15 0 0 0
SMALL
GASTEIGER

@<TRIPOS>ATOM
      1  C          5.3590    0.0170    1.9920 C.3     1  UNL1        0.0800
      2  C          4.4570    1.1820    1.9370 C.2     1  UNL1        0.1300
      3  C          4.7150    2.1500    0.7950 C.3     1  UNL1        0.0870
      4  O          3.5550    1.4490    2.6790 O.2     1  UNL1       -0.3000
      5  C          6.7900    0.2890    1.7460 C.3     1  UNL1        0.0430
      6  C          7.3190   -0.0490    0.4210 C.2     1  UNL1       -0.0440
      7  C          7.7430    0.9270   -0.4820 C.2     1  UNL1        0.0080
      8  C          7.4360   -1.3660    0.0420 C.2     1  UNL1        0.0540
      9  C          8.2520    0.5380   -1.6930 C.2     1  UNL1        0.0510
     10  C          7.9620   -1.7370   -1.2050 C.2     1  UNL1        0.1660
     11  C          8.3800   -0.7730   -2.0960 C.2     1  UNL1        0.1650
     12  O          8.1940   -2.9510   -1.8400 O.2     1  UNL1       -0.4540
     13  O          8.8570   -1.4050   -3.2520 O.2     1  UNL1       -0.4540
     14  C          9.1600   -2.7270   -2.8560 C.3     1  UNL1        0.4680
@<TRIPOS>BOND
     1    13    14    1
     2    13    11    1
     3    14    12    1
     4    11     9    2
     5    11    10    1
     6    12    10    1
     7     9     7    1
     8    10     8    2
     9     7     6    2
    10     8     6    1
    11     6     5    1
    12     3     2    1
    13     5     1    1
    14     2     1    1
    15     2     4    2
