@<TRIPOS>MOLECULE
/home/cewinharhar/GITHUB/reincatalyze/data/processed/docking_pred/2023-May-31-1727_sub9_nm5_bs15_s42_ex16_mel10_mts10000_k50_ec075_g099_lra3e-4_lrc3e-3/b658f69152bbaa0d4df6d0fc1d77222c9f34aa3c_ligand_9.pdbqt
 14 15 0 0 0
SMALL
GASTEIGER

@<TRIPOS>ATOM
      1  C          5.3670    2.1500    1.2080 C.3     1  UNL1        0.0800
      2  C          4.6870    1.1280    2.0230 C.2     1  UNL1        0.1300
      3  C          5.3740   -0.2270    2.0730 C.3     1  UNL1        0.0870
      4  O          3.6680    1.2400    2.6440 O.2     1  UNL1       -0.3000
      5  C          5.3740    1.9190   -0.2520 C.3     1  UNL1        0.0430
      6  C          6.5030    1.1660   -0.8060 C.2     1  UNL1       -0.0440
      7  C          7.8290    1.4820   -0.5030 C.2     1  UNL1        0.0080
      8  C          6.2740    0.0910   -1.6330 C.2     1  UNL1        0.0540
      9  C          8.8340    0.7170   -1.0350 C.2     1  UNL1        0.0510
     10  C          7.3230   -0.6750   -2.1640 C.2     1  UNL1        0.1660
     11  C          8.6310   -0.3630   -1.8650 C.2     1  UNL1        0.1650
     12  O          7.3900   -1.7830   -3.0000 O.2     1  UNL1       -0.4540
     13  O          9.4710   -1.2750   -2.5170 O.2     1  UNL1       -0.4540
     14  C          8.6570   -2.3930   -2.8040 C.3     1  UNL1        0.4680
@<TRIPOS>BOND
     1    12    14    1
     2    12    10    1
     3    14    13    1
     4    13    11    1
     5    10    11    2
     6    10     8    1
     7    11     9    1
     8     8     6    2
     9     9     7    2
    10     6     7    1
    11     6     5    1
    12     5     1    1
    13     1     2    1
    14     2     3    1
    15     2     4    2
