@<TRIPOS>MOLECULE
/home/cewinharhar/GITHUB/reincatalyze/data/processed/docking_pred/2023-May-31-1727_sub9_nm5_bs15_s42_ex16_mel10_mts10000_k50_ec075_g099_lra3e-4_lrc3e-3/b658f69152bbaa0d4df6d0fc1d77222c9f34aa3c_ligand_9.pdbqt
 14 15 0 0 0
SMALL
GASTEIGER

@<TRIPOS>ATOM
      1  C          5.7470    0.2610    2.1920 C.3     1  UNL1        0.0800
      2  C          4.7000    1.2650    1.9260 C.2     1  UNL1        0.1300
      3  C          4.9260    2.1300    0.6980 C.3     1  UNL1        0.0870
      4  O          3.7040    1.4740    2.5580 O.2     1  UNL1       -0.3000
      5  C          7.0210    0.4410    1.4650 C.3     1  UNL1        0.0430
      6  C          7.3460   -0.5450    0.4290 C.2     1  UNL1       -0.0440
      7  C          7.2320   -0.2590   -0.9320 C.2     1  UNL1        0.0080
      8  C          7.8070   -1.7910    0.7850 C.2     1  UNL1        0.0540
      9  C          7.5790   -1.2190   -1.8460 C.2     1  UNL1        0.0510
     10  C          8.1560   -2.7550   -0.1720 C.2     1  UNL1        0.1660
     11  C          8.0430   -2.4730   -1.5160 C.2     1  UNL1        0.1650
     12  O          8.6360   -4.0580   -0.1090 O.2     1  UNL1       -0.4540
     13  O          8.4510   -3.5960   -2.2470 O.2     1  UNL1       -0.4540
     14  C          9.2450   -4.3530   -1.3570 C.3     1  UNL1        0.4680
@<TRIPOS>BOND
     1    13    11    1
     2    13    14    1
     3     9    11    2
     4     9     7    1
     5    11    10    1
     6    14    12    1
     7     7     6    2
     8    10    12    1
     9    10     8    2
    10     6     8    1
    11     6     5    1
    12     3     2    1
    13     5     1    1
    14     2     1    1
    15     2     4    2
