@<TRIPOS>MOLECULE
/home/cewinharhar/GITHUB/reincatalyze/data/processed/docking_pred/2023-May-31-1727_sub9_nm5_bs15_s42_ex16_mel10_mts10000_k50_ec075_g099_lra3e-4_lrc3e-3/b76562e198c52c9f0a92fabf7985b1177e60395e_ligand_9.pdbqt
 14 15 0 0 0
SMALL
GASTEIGER

@<TRIPOS>ATOM
      1  C          5.3380   -0.0330    1.9880 C.3     1  UNL1        0.0800
      2  C          4.4030    1.1010    1.8790 C.2     1  UNL1        0.1300
      3  C          4.7570    2.1370    0.8250 C.3     1  UNL1        0.0870
      4  O          3.4080    1.2980    2.5170 O.2     1  UNL1       -0.3000
      5  C          6.7680    0.2790    1.7790 C.3     1  UNL1        0.0430
      6  C          7.3310   -0.0110    0.4570 C.2     1  UNL1       -0.0440
      7  C          7.9200    0.9780   -0.3330 C.2     1  UNL1        0.0080
      8  C          7.3160   -1.2960   -0.0310 C.2     1  UNL1        0.0540
      9  C          8.4510    0.6300   -1.5480 C.2     1  UNL1        0.0510
     10  C          7.8670   -1.6240   -1.2790 C.2     1  UNL1        0.1660
     11  C          8.4480   -0.6480   -2.0590 C.2     1  UNL1        0.1650
     12  O          7.9930   -2.8010   -2.0070 O.2     1  UNL1       -0.4540
     13  O          8.9150   -1.2370   -3.2410 O.2     1  UNL1       -0.4540
     14  C          9.0380   -2.6140   -2.9500 C.3     1  UNL1        0.4680
@<TRIPOS>BOND
     1    13    14    1
     2    13    11    1
     3    14    12    1
     4    11     9    2
     5    11    10    1
     6    12    10    1
     7     9     7    1
     8    10     8    2
     9     7     6    2
    10     8     6    1
    11     6     5    1
    12     3     2    1
    13     5     1    1
    14     2     1    1
    15     2     4    2
