MODEL 1
REMARK VINA RESULT:      -7.6      0.000      0.000
REMARK SMILES CC(=O)CCc1ccc2c(c1)OCO2
REMARK SMILES IDX 4 1 2 2 1 3 3 4 5 5 6 6 7 7 11 8 8 9 10 10 9 11 12 12 14 13
REMARK SMILES IDX 13 14
REMARK H PARENT
REMARK Flexibility Score: inf
ROOT
ATOM      1  C   UNL     1       5.635   1.798   1.268  1.00  0.00     0.080 C 
ENDROOT
BRANCH   1   2
ATOM      2  C   UNL     1       5.080   0.657   2.018  1.00  0.00     0.130 C 
ATOM      3  C   UNL     1       6.010  -0.535   2.171  1.00  0.00     0.087 C 
ATOM      4  O   UNL     1       3.994   0.562   2.515  1.00  0.00    -0.300 OA
ENDBRANCH   1   2
BRANCH   1   5
ATOM      5  C   UNL     1       5.610   1.682  -0.206  1.00  0.00     0.043 C 
BRANCH   5   6
ATOM      6  C   UNL     1       6.701   0.935  -0.838  1.00  0.00    -0.044 A 
ATOM      7  C   UNL     1       8.038   1.313  -0.705  1.00  0.00     0.008 A 
ATOM      8  C   UNL     1       6.426  -0.198  -1.569  1.00  0.00     0.054 A 
ATOM      9  C   UNL     1       9.009   0.551  -1.301  1.00  0.00     0.051 A 
ATOM     10  C   UNL     1       7.440  -0.959  -2.169  1.00  0.00     0.166 A 
ATOM     11  C   UNL     1       8.759  -0.585  -2.038  1.00  0.00     0.165 A 
ATOM     12  O   UNL     1       7.460  -2.114  -2.942  1.00  0.00    -0.454 OA
ATOM     13  O   UNL     1       9.559  -1.507  -2.726  1.00  0.00    -0.454 OA
ATOM     14  C   UNL     1       8.764  -2.668  -2.854  1.00  0.00     0.468 C 
ENDBRANCH   5   6
ENDBRANCH   1   5
TORSDOF 3
ENDMDL
MODEL 2
REMARK VINA RESULT:      -7.0      1.780      2.201
REMARK SMILES CC(=O)CCc1ccc2c(c1)OCO2
REMARK SMILES IDX 4 1 2 2 1 3 3 4 5 5 6 6 7 7 11 8 8 9 10 10 9 11 12 12 14 13
REMARK SMILES IDX 13 14
REMARK H PARENT
REMARK Flexibility Score: inf
ROOT
ATOM      1  C   UNL     1       5.764   1.472  -0.225  1.00  0.00     0.080 C 
ENDROOT
BRANCH   1   2
ATOM      2  C   UNL     1       5.052   1.357   1.061  1.00  0.00     0.130 C 
ATOM      3  C   UNL     1       5.500   0.212   1.952  1.00  0.00     0.087 C 
ATOM      4  O   UNL     1       4.171   2.054   1.479  1.00  0.00    -0.300 OA
ENDBRANCH   1   2
BRANCH   1   5
ATOM      5  C   UNL     1       7.191   1.087  -0.216  1.00  0.00     0.043 C 
BRANCH   5   6
ATOM      6  C   UNL     1       7.542  -0.197  -0.828  1.00  0.00    -0.044 A 
ATOM      7  C   UNL     1       7.633  -0.362  -2.211  1.00  0.00     0.008 A 
ATOM      8  C   UNL     1       7.823  -1.285  -0.034  1.00  0.00     0.054 A 
ATOM      9  C   UNL     1       7.993  -1.585  -2.714  1.00  0.00     0.051 A 
ATOM     10  C   UNL     1       8.190  -2.526  -0.576  1.00  0.00     0.166 A 
ATOM     11  C   UNL     1       8.279  -2.689  -1.941  1.00  0.00     0.165 A 
ATOM     12  O   UNL     1       8.521  -3.763  -0.036  1.00  0.00    -0.454 OA
ATOM     13  O   UNL     1       8.659  -4.009  -2.213  1.00  0.00    -0.454 OA
ATOM     14  C   UNL     1       9.250  -4.480  -1.020  1.00  0.00     0.468 C 
ENDBRANCH   5   6
ENDBRANCH   1   5
TORSDOF 3
ENDMDL
MODEL 3
REMARK VINA RESULT:      -6.9      1.057      1.111
REMARK SMILES CC(=O)CCc1ccc2c(c1)OCO2
REMARK SMILES IDX 4 1 2 2 1 3 3 4 5 5 6 6 7 7 11 8 8 9 10 10 9 11 12 12 14 13
REMARK SMILES IDX 13 14
REMARK H PARENT
REMARK Flexibility Score: inf
ROOT
ATOM      1  C   UNL     1       6.250   1.213   0.956  1.00  0.00     0.080 C 
ENDROOT
BRANCH   1   2
ATOM      2  C   UNL     1       5.550   0.392   1.960  1.00  0.00     0.130 C 
ATOM      3  C   UNL     1       6.308  -0.833   2.443  1.00  0.00     0.087 C 
ATOM      4  O   UNL     1       4.465   0.577   2.434  1.00  0.00    -0.300 OA
ENDBRANCH   1   2
BRANCH   1   5
ATOM      5  C   UNL     1       5.905   0.949  -0.457  1.00  0.00     0.043 C 
BRANCH   5   6
ATOM      6  C   UNL     1       6.861   0.168  -1.246  1.00  0.00    -0.044 A 
ATOM      7  C   UNL     1       7.774   0.768  -2.115  1.00  0.00     0.008 A 
ATOM      8  C   UNL     1       6.899  -1.202  -1.124  1.00  0.00     0.054 A 
ATOM      9  C   UNL     1       8.659  -0.022  -2.802  1.00  0.00     0.051 A 
ATOM     10  C   UNL     1       7.816  -1.987  -1.839  1.00  0.00     0.166 A 
ATOM     11  C   UNL     1       8.716  -1.394  -2.697  1.00  0.00     0.165 A 
ATOM     12  O   UNL     1       8.078  -3.349  -1.915  1.00  0.00    -0.454 OA
ATOM     13  O   UNL     1       9.508  -2.393  -3.278  1.00  0.00    -0.454 OA
ATOM     14  C   UNL     1       9.397  -3.507  -2.417  1.00  0.00     0.468 C 
ENDBRANCH   5   6
ENDBRANCH   1   5
TORSDOF 3
ENDMDL
MODEL 4
REMARK VINA RESULT:      -6.8      1.840      2.377
REMARK SMILES CC(=O)CCc1ccc2c(c1)OCO2
REMARK SMILES IDX 4 1 2 2 1 3 3 4 5 5 6 6 7 7 11 8 8 9 10 10 9 11 12 12 14 13
REMARK SMILES IDX 13 14
REMARK H PARENT
REMARK Flexibility Score: inf
ROOT
ATOM      1  C   UNL     1       6.508   1.065   1.483  1.00  0.00     0.080 C 
ENDROOT
BRANCH   1   2
ATOM      2  C   UNL     1       5.168   1.594   1.172  1.00  0.00     0.130 C 
ATOM      3  C   UNL     1       4.999   2.150  -0.232  1.00  0.00     0.087 C 
ATOM      4  O   UNL     1       4.209   1.635   1.888  1.00  0.00    -0.300 OA
ENDBRANCH   1   2
BRANCH   1   5
ATOM      5  C   UNL     1       7.494   1.100   0.383  1.00  0.00     0.043 C 
BRANCH   5   6
ATOM      6  C   UNL     1       7.709  -0.141  -0.365  1.00  0.00    -0.044 A 
ATOM      7  C   UNL     1       7.666  -0.187  -1.760  1.00  0.00     0.008 A 
ATOM      8  C   UNL     1       7.992  -1.309   0.305  1.00  0.00     0.054 A 
ATOM      9  C   UNL     1       7.903  -1.378  -2.396  1.00  0.00     0.051 A 
ATOM     10  C   UNL     1       8.231  -2.515  -0.372  1.00  0.00     0.166 A 
ATOM     11  C   UNL     1       8.187  -2.560  -1.748  1.00  0.00     0.165 A 
ATOM     12  O   UNL     1       8.531  -3.811   0.029  1.00  0.00    -0.454 OA
ATOM     13  O   UNL     1       8.460  -3.869  -2.164  1.00  0.00    -0.454 OA
ATOM     14  C   UNL     1       9.125  -4.476  -1.076  1.00  0.00     0.468 C 
ENDBRANCH   5   6
ENDBRANCH   1   5
TORSDOF 3
ENDMDL
MODEL 5
REMARK VINA RESULT:      -6.7      1.087      1.587
REMARK SMILES CC(=O)CCc1ccc2c(c1)OCO2
REMARK SMILES IDX 4 1 2 2 1 3 3 4 5 5 6 6 7 7 11 8 8 9 10 10 9 11 12 12 14 13
REMARK SMILES IDX 13 14
REMARK H PARENT
REMARK Flexibility Score: inf
ROOT
ATOM      1  C   UNL     1       5.338  -0.033   1.988  1.00  0.00     0.080 C 
ENDROOT
BRANCH   1   2
ATOM      2  C   UNL     1       4.403   1.101   1.879  1.00  0.00     0.130 C 
ATOM      3  C   UNL     1       4.757   2.137   0.825  1.00  0.00     0.087 C 
ATOM      4  O   UNL     1       3.408   1.298   2.517  1.00  0.00    -0.300 OA
ENDBRANCH   1   2
BRANCH   1   5
ATOM      5  C   UNL     1       6.768   0.279   1.779  1.00  0.00     0.043 C 
BRANCH   5   6
ATOM      6  C   UNL     1       7.331  -0.011   0.457  1.00  0.00    -0.044 A 
ATOM      7  C   UNL     1       7.920   0.978  -0.333  1.00  0.00     0.008 A 
ATOM      8  C   UNL     1       7.316  -1.296  -0.031  1.00  0.00     0.054 A 
ATOM      9  C   UNL     1       8.451   0.630  -1.548  1.00  0.00     0.051 A 
ATOM     10  C   UNL     1       7.867  -1.624  -1.279  1.00  0.00     0.166 A 
ATOM     11  C   UNL     1       8.448  -0.648  -2.059  1.00  0.00     0.165 A 
ATOM     12  O   UNL     1       7.993  -2.801  -2.007  1.00  0.00    -0.454 OA
ATOM     13  O   UNL     1       8.915  -1.237  -3.241  1.00  0.00    -0.454 OA
ATOM     14  C   UNL     1       9.038  -2.614  -2.950  1.00  0.00     0.468 C 
ENDBRANCH   5   6
ENDBRANCH   1   5
TORSDOF 3
ENDMDL
