@<TRIPOS>MOLECULE
/home/cewinharhar/GITHUB/reincatalyze/data/processed/docking_pred/2023-May-31-1727_sub9_nm5_bs15_s42_ex16_mel10_mts10000_k50_ec075_g099_lra3e-4_lrc3e-3/b76562e198c52c9f0a92fabf7985b1177e60395e_ligand_9.pdbqt
 14 15 0 0 0
SMALL
GASTEIGER

@<TRIPOS>ATOM
      1  C          6.2500    1.2130    0.9560 C.3     1  UNL1        0.0800
      2  C          5.5500    0.3920    1.9600 C.2     1  UNL1        0.1300
      3  C          6.3080   -0.8330    2.4430 C.3     1  UNL1        0.0870
      4  O          4.4650    0.5770    2.4340 O.2     1  UNL1       -0.3000
      5  C          5.9050    0.9490   -0.4570 C.3     1  UNL1        0.0430
      6  C          6.8610    0.1680   -1.2460 C.2     1  UNL1       -0.0440
      7  C          7.7740    0.7680   -2.1150 C.2     1  UNL1        0.0080
      8  C          6.8990   -1.2020   -1.1240 C.2     1  UNL1        0.0540
      9  C          8.6590   -0.0220   -2.8020 C.2     1  UNL1        0.0510
     10  C          7.8160   -1.9870   -1.8390 C.2     1  UNL1        0.1660
     11  C          8.7160   -1.3940   -2.6970 C.2     1  UNL1        0.1650
     12  O          8.0780   -3.3490   -1.9150 O.2     1  UNL1       -0.4540
     13  O          9.5080   -2.3930   -3.2780 O.2     1  UNL1       -0.4540
     14  C          9.3970   -3.5070   -2.4170 C.3     1  UNL1        0.4680
@<TRIPOS>BOND
     1    13    11    1
     2    13    14    1
     3     9    11    2
     4     9     7    1
     5    11    10    1
     6    14    12    1
     7     7     6    2
     8    12    10    1
     9    10     8    2
    10     6     8    1
    11     6     5    1
    12     5     1    1
    13     1     2    1
    14     2     4    2
    15     2     3    1
