@<TRIPOS>MOLECULE
/home/cewinharhar/GITHUB/reincatalyze/data/processed/docking_pred/2023-May-31-1727_sub9_nm5_bs15_s42_ex16_mel10_mts10000_k50_ec075_g099_lra3e-4_lrc3e-3/b76562e198c52c9f0a92fabf7985b1177e60395e_ligand_9.pdbqt
 14 15 0 0 0
SMALL
GASTEIGER

@<TRIPOS>ATOM
      1  C          6.5080    1.0650    1.4830 C.3     1  UNL1        0.0800
      2  C          5.1680    1.5940    1.1720 C.2     1  UNL1        0.1300
      3  C          4.9990    2.1500   -0.2320 C.3     1  UNL1        0.0870
      4  O          4.2090    1.6350    1.8880 O.2     1  UNL1       -0.3000
      5  C          7.4940    1.1000    0.3830 C.3     1  UNL1        0.0430
      6  C          7.7090   -0.1410   -0.3650 C.2     1  UNL1       -0.0440
      7  C          7.6660   -0.1870   -1.7600 C.2     1  UNL1        0.0080
      8  C          7.9920   -1.3090    0.3050 C.2     1  UNL1        0.0540
      9  C          7.9030   -1.3780   -2.3960 C.2     1  UNL1        0.0510
     10  C          8.2310   -2.5150   -0.3720 C.2     1  UNL1        0.1660
     11  C          8.1870   -2.5600   -1.7480 C.2     1  UNL1        0.1650
     12  O          8.5310   -3.8110    0.0290 O.2     1  UNL1       -0.4540
     13  O          8.4600   -3.8690   -2.1640 O.2     1  UNL1       -0.4540
     14  C          9.1250   -4.4760   -1.0760 C.3     1  UNL1        0.4680
@<TRIPOS>BOND
     1     9     7    1
     2     9    11    2
     3    13    11    1
     4    13    14    1
     5     7     6    2
     6    11    10    1
     7    14    12    1
     8    10    12    1
     9    10     8    2
    10     6     8    1
    11     6     5    1
    12     3     2    1
    13     5     1    1
    14     2     1    1
    15     2     4    2
