@<TRIPOS>MOLECULE
/home/cewinharhar/GITHUB/reincatalyze/data/processed/docking_pred/2023-May-31-1727_sub9_nm5_bs15_s42_ex16_mel10_mts10000_k50_ec075_g099_lra3e-4_lrc3e-3/b8d8050f43b71ccf975db7ed0a80e234855f027b_ligand_9.pdbqt
 14 15 0 0 0
SMALL
GASTEIGER

@<TRIPOS>ATOM
      1  C          5.5510    1.8920    1.2290 C.3     1  UNL1        0.0800
      2  C          5.0080    0.7540    1.9930 C.2     1  UNL1        0.1300
      3  C          5.9390   -0.4370    2.1360 C.3     1  UNL1        0.0870
      4  O          3.9300    0.6630    2.5080 O.2     1  UNL1       -0.3000
      5  C          5.5410    1.7520   -0.2430 C.3     1  UNL1        0.0430
      6  C          6.6420    1.0020   -0.8520 C.2     1  UNL1       -0.0440
      7  C          7.9770    1.3780   -0.6930 C.2     1  UNL1        0.0080
      8  C          6.3800   -0.1300   -1.5880 C.2     1  UNL1        0.0540
      9  C          8.9580    0.6140   -1.2690 C.2     1  UNL1        0.0510
     10  C          7.4050   -0.8940   -2.1670 C.2     1  UNL1        0.1660
     11  C          8.7220   -0.5220   -2.0100 C.2     1  UNL1        0.1650
     12  O          7.4380   -2.0490   -2.9390 O.2     1  UNL1       -0.4540
     13  O          9.5340   -1.4460   -2.6810 O.2     1  UNL1       -0.4540
     14  C          8.7400   -2.6060   -2.8240 C.3     1  UNL1        0.4680
@<TRIPOS>BOND
     1    12    14    1
     2    12    10    1
     3    14    13    1
     4    13    11    1
     5    10    11    2
     6    10     8    1
     7    11     9    1
     8     8     6    2
     9     9     7    2
    10     6     7    1
    11     6     5    1
    12     5     1    1
    13     1     2    1
    14     2     3    1
    15     2     4    2
