MODEL 1
REMARK VINA RESULT:      -7.6      0.000      0.000
REMARK SMILES CC(=O)CCc1ccc2c(c1)OCO2
REMARK SMILES IDX 4 1 2 2 1 3 3 4 5 5 6 6 7 7 11 8 8 9 10 10 9 11 12 12 14 13
REMARK SMILES IDX 13 14
REMARK H PARENT
REMARK Flexibility Score: inf
ROOT
ATOM      1  C   UNL     1       5.551   1.892   1.229  1.00  0.00     0.080 C 
ENDROOT
BRANCH   1   2
ATOM      2  C   UNL     1       5.008   0.754   1.993  1.00  0.00     0.130 C 
ATOM      3  C   UNL     1       5.939  -0.437   2.136  1.00  0.00     0.087 C 
ATOM      4  O   UNL     1       3.930   0.663   2.508  1.00  0.00    -0.300 OA
ENDBRANCH   1   2
BRANCH   1   5
ATOM      5  C   UNL     1       5.541   1.752  -0.243  1.00  0.00     0.043 C 
BRANCH   5   6
ATOM      6  C   UNL     1       6.642   1.002  -0.852  1.00  0.00    -0.044 A 
ATOM      7  C   UNL     1       7.977   1.378  -0.693  1.00  0.00     0.008 A 
ATOM      8  C   UNL     1       6.380  -0.130  -1.588  1.00  0.00     0.054 A 
ATOM      9  C   UNL     1       8.958   0.614  -1.269  1.00  0.00     0.051 A 
ATOM     10  C   UNL     1       7.405  -0.894  -2.167  1.00  0.00     0.166 A 
ATOM     11  C   UNL     1       8.722  -0.522  -2.010  1.00  0.00     0.165 A 
ATOM     12  O   UNL     1       7.438  -2.049  -2.939  1.00  0.00    -0.454 OA
ATOM     13  O   UNL     1       9.534  -1.446  -2.681  1.00  0.00    -0.454 OA
ATOM     14  C   UNL     1       8.740  -2.606  -2.824  1.00  0.00     0.468 C 
ENDBRANCH   5   6
ENDBRANCH   1   5
TORSDOF 3
ENDMDL
MODEL 2
REMARK VINA RESULT:      -7.0      1.809      2.285
REMARK SMILES CC(=O)CCc1ccc2c(c1)OCO2
REMARK SMILES IDX 4 1 2 2 1 3 3 4 5 5 6 6 7 7 11 8 8 9 10 10 9 11 12 12 14 13
REMARK SMILES IDX 13 14
REMARK H PARENT
REMARK Flexibility Score: inf
ROOT
ATOM      1  C   UNL     1       5.871   1.490  -0.212  1.00  0.00     0.080 C 
ENDROOT
BRANCH   1   2
ATOM      2  C   UNL     1       5.213   1.404   1.104  1.00  0.00     0.130 C 
ATOM      3  C   UNL     1       5.740   0.316   2.025  1.00  0.00     0.087 C 
ATOM      4  O   UNL     1       4.322   2.085   1.527  1.00  0.00    -0.300 OA
ENDBRANCH   1   2
BRANCH   1   5
ATOM      5  C   UNL     1       7.289   1.074  -0.260  1.00  0.00     0.043 C 
BRANCH   5   6
ATOM      6  C   UNL     1       7.584  -0.232  -0.855  1.00  0.00    -0.044 A 
ATOM      7  C   UNL     1       7.588  -0.436  -2.236  1.00  0.00     0.008 A 
ATOM      8  C   UNL     1       7.898  -1.301  -0.049  1.00  0.00     0.054 A 
ATOM      9  C   UNL     1       7.900  -1.678  -2.725  1.00  0.00     0.051 A 
ATOM     10  C   UNL     1       8.214  -2.562  -0.577  1.00  0.00     0.166 A 
ATOM     11  C   UNL     1       8.217  -2.764  -1.940  1.00  0.00     0.165 A 
ATOM     12  O   UNL     1       8.560  -3.789  -0.023  1.00  0.00    -0.454 OA
ATOM     13  O   UNL     1       8.562  -4.097  -2.197  1.00  0.00    -0.454 OA
ATOM     14  C   UNL     1       9.218  -4.545  -1.029  1.00  0.00     0.468 C 
ENDBRANCH   5   6
ENDBRANCH   1   5
TORSDOF 3
ENDMDL
MODEL 3
REMARK VINA RESULT:      -7.0      1.104      1.205
REMARK SMILES CC(=O)CCc1ccc2c(c1)OCO2
REMARK SMILES IDX 4 1 2 2 1 3 3 4 5 5 6 6 7 7 11 8 8 9 10 10 9 11 12 12 14 13
REMARK SMILES IDX 13 14
REMARK H PARENT
REMARK Flexibility Score: inf
ROOT
ATOM      1  C   UNL     1       6.237   1.185   0.900  1.00  0.00     0.080 C 
ENDROOT
BRANCH   1   2
ATOM      2  C   UNL     1       5.559   0.369   1.924  1.00  0.00     0.130 C 
ATOM      3  C   UNL     1       6.333  -0.849   2.401  1.00  0.00     0.087 C 
ATOM      4  O   UNL     1       4.483   0.552   2.417  1.00  0.00    -0.300 OA
ENDBRANCH   1   2
BRANCH   1   5
ATOM      5  C   UNL     1       5.892   0.884  -0.505  1.00  0.00     0.043 C 
BRANCH   5   6
ATOM      6  C   UNL     1       6.865   0.111  -1.283  1.00  0.00    -0.044 A 
ATOM      7  C   UNL     1       7.794   0.720  -2.128  1.00  0.00     0.008 A 
ATOM      8  C   UNL     1       6.901  -1.260  -1.173  1.00  0.00     0.054 A 
ATOM      9  C   UNL     1       8.693  -0.064  -2.805  1.00  0.00     0.051 A 
ATOM     10  C   UNL     1       7.833  -2.037  -1.877  1.00  0.00     0.166 A 
ATOM     11  C   UNL     1       8.749  -1.437  -2.712  1.00  0.00     0.165 A 
ATOM     12  O   UNL     1       8.097  -3.399  -1.960  1.00  0.00    -0.454 OA
ATOM     13  O   UNL     1       9.553  -2.429  -3.287  1.00  0.00    -0.454 OA
ATOM     14  C   UNL     1       9.426  -3.551  -2.438  1.00  0.00     0.468 C 
ENDBRANCH   5   6
ENDBRANCH   1   5
TORSDOF 3
ENDMDL
MODEL 4
REMARK VINA RESULT:      -6.7      1.083      1.593
REMARK SMILES CC(=O)CCc1ccc2c(c1)OCO2
REMARK SMILES IDX 4 1 2 2 1 3 3 4 5 5 6 6 7 7 11 8 8 9 10 10 9 11 12 12 14 13
REMARK SMILES IDX 13 14
REMARK H PARENT
REMARK Flexibility Score: inf
ROOT
ATOM      1  C   UNL     1       5.345  -0.044   1.983  1.00  0.00     0.080 C 
ENDROOT
BRANCH   1   2
ATOM      2  C   UNL     1       4.409   1.090   1.879  1.00  0.00     0.130 C 
ATOM      3  C   UNL     1       4.759   2.127   0.825  1.00  0.00     0.087 C 
ATOM      4  O   UNL     1       3.416   1.286   2.521  1.00  0.00    -0.300 OA
ENDBRANCH   1   2
BRANCH   1   5
ATOM      5  C   UNL     1       6.774   0.270   1.775  1.00  0.00     0.043 C 
BRANCH   5   6
ATOM      6  C   UNL     1       7.337  -0.014   0.452  1.00  0.00    -0.044 A 
ATOM      7  C   UNL     1       7.933   0.977  -0.330  1.00  0.00     0.008 A 
ATOM      8  C   UNL     1       7.316  -1.296  -0.045  1.00  0.00     0.054 A 
ATOM      9  C   UNL     1       8.464   0.636  -1.547  1.00  0.00     0.051 A 
ATOM     10  C   UNL     1       7.868  -1.617  -1.295  1.00  0.00     0.166 A 
ATOM     11  C   UNL     1       8.454  -0.639  -2.067  1.00  0.00     0.165 A 
ATOM     12  O   UNL     1       7.987  -2.789  -2.031  1.00  0.00    -0.454 OA
ATOM     13  O   UNL     1       8.920  -1.222  -3.253  1.00  0.00    -0.454 OA
ATOM     14  C   UNL     1       9.035  -2.601  -2.972  1.00  0.00     0.468 C 
ENDBRANCH   5   6
ENDBRANCH   1   5
TORSDOF 3
ENDMDL
MODEL 5
REMARK VINA RESULT:      -6.7      1.959      2.532
REMARK SMILES CC(=O)CCc1ccc2c(c1)OCO2
REMARK SMILES IDX 4 1 2 2 1 3 3 4 5 5 6 6 7 7 11 8 8 9 10 10 9 11 12 12 14 13
REMARK SMILES IDX 13 14
REMARK H PARENT
REMARK Flexibility Score: inf
ROOT
ATOM      1  C   UNL     1       5.608   0.013   2.036  1.00  0.00     0.080 C 
ENDROOT
BRANCH   1   2
ATOM      2  C   UNL     1       4.641   1.102   1.810  1.00  0.00     0.130 C 
ATOM      3  C   UNL     1       4.986   2.053   0.676  1.00  0.00     0.087 C 
ATOM      4  O   UNL     1       3.626   1.322   2.409  1.00  0.00    -0.300 OA
ENDBRANCH   1   2
BRANCH   1   5
ATOM      5  C   UNL     1       6.940   0.186   1.420  1.00  0.00     0.043 C 
BRANCH   5   6
ATOM      6  C   UNL     1       7.336  -0.783   0.395  1.00  0.00    -0.044 A 
ATOM      7  C   UNL     1       7.246  -0.501  -0.970  1.00  0.00     0.008 A 
ATOM      8  C   UNL     1       7.840  -2.008   0.763  1.00  0.00     0.054 A 
ATOM      9  C   UNL     1       7.660  -1.445  -1.874  1.00  0.00     0.051 A 
ATOM     10  C   UNL     1       8.257  -2.956  -0.184  1.00  0.00     0.166 A 
ATOM     11  C   UNL     1       8.168  -2.678  -1.530  1.00  0.00     0.165 A 
ATOM     12  O   UNL     1       8.791  -4.236  -0.107  1.00  0.00    -0.454 OA
ATOM     13  O   UNL     1       8.645  -3.781  -2.250  1.00  0.00    -0.454 OA
ATOM     14  C   UNL     1       9.446  -4.504  -1.339  1.00  0.00     0.468 C 
ENDBRANCH   5   6
ENDBRANCH   1   5
TORSDOF 3
ENDMDL
