@<TRIPOS>MOLECULE
/home/cewinharhar/GITHUB/reincatalyze/data/processed/docking_pred/2023-May-31-1727_sub9_nm5_bs15_s42_ex16_mel10_mts10000_k50_ec075_g099_lra3e-4_lrc3e-3/b8d8050f43b71ccf975db7ed0a80e234855f027b_ligand_9.pdbqt
 14 15 0 0 0
SMALL
GASTEIGER

@<TRIPOS>ATOM
      1  C          5.3450   -0.0440    1.9830 C.3     1  UNL1        0.0800
      2  C          4.4090    1.0900    1.8790 C.2     1  UNL1        0.1300
      3  C          4.7590    2.1270    0.8250 C.3     1  UNL1        0.0870
      4  O          3.4160    1.2860    2.5210 O.2     1  UNL1       -0.3000
      5  C          6.7740    0.2700    1.7750 C.3     1  UNL1        0.0430
      6  C          7.3370   -0.0140    0.4520 C.2     1  UNL1       -0.0440
      7  C          7.9330    0.9770   -0.3300 C.2     1  UNL1        0.0080
      8  C          7.3160   -1.2960   -0.0450 C.2     1  UNL1        0.0540
      9  C          8.4640    0.6360   -1.5470 C.2     1  UNL1        0.0510
     10  C          7.8680   -1.6170   -1.2950 C.2     1  UNL1        0.1660
     11  C          8.4540   -0.6390   -2.0670 C.2     1  UNL1        0.1650
     12  O          7.9870   -2.7890   -2.0310 O.2     1  UNL1       -0.4540
     13  O          8.9200   -1.2220   -3.2530 O.2     1  UNL1       -0.4540
     14  C          9.0350   -2.6010   -2.9720 C.3     1  UNL1        0.4680
@<TRIPOS>BOND
     1    13    14    1
     2    13    11    1
     3    14    12    1
     4    11     9    2
     5    11    10    1
     6    12    10    1
     7     9     7    1
     8    10     8    2
     9     7     6    2
    10     8     6    1
    11     6     5    1
    12     3     2    1
    13     5     1    1
    14     2     1    1
    15     2     4    2
