@<TRIPOS>MOLECULE
/home/cewinharhar/GITHUB/reincatalyze/data/processed/docking_pred/2023-May-31-1727_sub9_nm5_bs15_s42_ex16_mel10_mts10000_k50_ec075_g099_lra3e-4_lrc3e-3/b9a0748b4c4cb53be71f33acfe76cbadf25e0c0f_ligand_9.pdbqt
 14 15 0 0 0
SMALL
GASTEIGER

@<TRIPOS>ATOM
      1  C          5.3680   -0.0870    1.9510 C.3     1  UNL1        0.0800
      2  C          4.4310    1.0470    1.8540 C.2     1  UNL1        0.1300
      3  C          4.7700    2.0820    0.7950 C.3     1  UNL1        0.0870
      4  O          3.4450    1.2440    2.5060 O.2     1  UNL1       -0.3000
      5  C          6.7920    0.2220    1.7040 C.3     1  UNL1        0.0430
      6  C          7.3270   -0.0970    0.3770 C.2     1  UNL1       -0.0440
      7  C          7.7340    0.8930   -0.5190 C.2     1  UNL1        0.0080
      8  C          7.4690   -1.4090   -0.0110 C.2     1  UNL1        0.0540
      9  C          8.2510    0.5210   -1.7330 C.2     1  UNL1        0.0510
     10  C          8.0010   -1.7620   -1.2600 C.2     1  UNL1        0.1660
     11  C          8.4020   -0.7850   -2.1450 C.2     1  UNL1        0.1650
     12  O          8.2550   -2.9670   -1.9030 O.2     1  UNL1       -0.4540
     13  O          8.8910   -1.4000   -3.3040 O.2     1  UNL1       -0.4540
     14  C          9.2180   -2.7190   -2.9170 C.3     1  UNL1        0.4680
@<TRIPOS>BOND
     1    13    14    1
     2    13    11    1
     3    14    12    1
     4    11     9    2
     5    11    10    1
     6    12    10    1
     7     9     7    1
     8    10     8    2
     9     7     6    2
    10     8     6    1
    11     6     5    1
    12     3     2    1
    13     5     1    1
    14     2     1    1
    15     2     4    2
