MODEL 1
REMARK VINA RESULT:      -7.7      0.000      0.000
REMARK SMILES CC(=O)CCc1ccc2c(c1)OCO2
REMARK SMILES IDX 4 1 2 2 1 3 3 4 5 5 6 6 7 7 11 8 8 9 10 10 9 11 12 12 14 13
REMARK SMILES IDX 13 14
REMARK H PARENT
REMARK Flexibility Score: inf
ROOT
ATOM      1  C   UNL     1       5.488   1.896   1.207  1.00  0.00     0.080 C 
ENDROOT
BRANCH   1   2
ATOM      2  C   UNL     1       4.971   0.766   2.000  1.00  0.00     0.130 C 
ATOM      3  C   UNL     1       5.906  -0.426   2.119  1.00  0.00     0.087 C 
ATOM      4  O   UNL     1       3.913   0.679   2.555  1.00  0.00    -0.300 OA
ENDBRANCH   1   2
BRANCH   1   5
ATOM      5  C   UNL     1       5.475   1.722  -0.260  1.00  0.00     0.043 C 
BRANCH   5   6
ATOM      6  C   UNL     1       6.592   0.985  -0.858  1.00  0.00    -0.044 A 
ATOM      7  C   UNL     1       7.922   1.355  -0.651  1.00  0.00     0.008 A 
ATOM      8  C   UNL     1       6.350  -0.127  -1.630  1.00  0.00     0.054 A 
ATOM      9  C   UNL     1       8.919   0.604  -1.219  1.00  0.00     0.051 A 
ATOM     10  C   UNL     1       7.389  -0.878  -2.199  1.00  0.00     0.166 A 
ATOM     11  C   UNL     1       8.702  -0.513  -1.995  1.00  0.00     0.165 A 
ATOM     12  O   UNL     1       7.443  -2.013  -2.998  1.00  0.00    -0.454 OA
ATOM     13  O   UNL     1       9.531  -1.421  -2.666  1.00  0.00    -0.454 OA
ATOM     14  C   UNL     1       8.740  -2.575  -2.861  1.00  0.00     0.468 C 
ENDBRANCH   5   6
ENDBRANCH   1   5
TORSDOF 3
ENDMDL
MODEL 2
REMARK VINA RESULT:      -7.0      1.083      1.176
REMARK SMILES CC(=O)CCc1ccc2c(c1)OCO2
REMARK SMILES IDX 4 1 2 2 1 3 3 4 5 5 6 6 7 7 11 8 8 9 10 10 9 11 12 12 14 13
REMARK SMILES IDX 13 14
REMARK H PARENT
REMARK Flexibility Score: inf
ROOT
ATOM      1  C   UNL     1       6.157   1.269   0.828  1.00  0.00     0.080 C 
ENDROOT
BRANCH   1   2
ATOM      2  C   UNL     1       5.492   0.467   1.871  1.00  0.00     0.130 C 
ATOM      3  C   UNL     1       6.276  -0.737   2.363  1.00  0.00     0.087 C 
ATOM      4  O   UNL     1       4.418   0.653   2.368  1.00  0.00    -0.300 OA
ENDBRANCH   1   2
BRANCH   1   5
ATOM      5  C   UNL     1       5.831   0.919  -0.570  1.00  0.00     0.043 C 
BRANCH   5   6
ATOM      6  C   UNL     1       6.828   0.149  -1.318  1.00  0.00    -0.044 A 
ATOM      7  C   UNL     1       7.804   0.762  -2.106  1.00  0.00     0.008 A 
ATOM      8  C   UNL     1       6.841  -1.224  -1.236  1.00  0.00     0.054 A 
ATOM      9  C   UNL     1       8.723  -0.020  -2.757  1.00  0.00     0.051 A 
ATOM     10  C   UNL     1       7.794  -2.000  -1.914  1.00  0.00     0.166 A 
ATOM     11  C   UNL     1       8.757  -1.395  -2.691  1.00  0.00     0.165 A 
ATOM     12  O   UNL     1       8.043  -3.363  -2.014  1.00  0.00    -0.454 OA
ATOM     13  O   UNL     1       9.573  -2.387  -3.249  1.00  0.00    -0.454 OA
ATOM     14  C   UNL     1       9.391  -3.524  -2.432  1.00  0.00     0.468 C 
ENDBRANCH   5   6
ENDBRANCH   1   5
TORSDOF 3
ENDMDL
MODEL 3
REMARK VINA RESULT:      -6.8      1.159      1.656
REMARK SMILES CC(=O)CCc1ccc2c(c1)OCO2
REMARK SMILES IDX 4 1 2 2 1 3 3 4 5 5 6 6 7 7 11 8 8 9 10 10 9 11 12 12 14 13
REMARK SMILES IDX 13 14
REMARK H PARENT
REMARK Flexibility Score: inf
ROOT
ATOM      1  C   UNL     1       5.368  -0.087   1.951  1.00  0.00     0.080 C 
ENDROOT
BRANCH   1   2
ATOM      2  C   UNL     1       4.431   1.047   1.854  1.00  0.00     0.130 C 
ATOM      3  C   UNL     1       4.770   2.082   0.795  1.00  0.00     0.087 C 
ATOM      4  O   UNL     1       3.445   1.244   2.506  1.00  0.00    -0.300 OA
ENDBRANCH   1   2
BRANCH   1   5
ATOM      5  C   UNL     1       6.792   0.222   1.704  1.00  0.00     0.043 C 
BRANCH   5   6
ATOM      6  C   UNL     1       7.327  -0.097   0.377  1.00  0.00    -0.044 A 
ATOM      7  C   UNL     1       7.734   0.893  -0.519  1.00  0.00     0.008 A 
ATOM      8  C   UNL     1       7.469  -1.409  -0.011  1.00  0.00     0.054 A 
ATOM      9  C   UNL     1       8.251   0.521  -1.733  1.00  0.00     0.051 A 
ATOM     10  C   UNL     1       8.001  -1.762  -1.260  1.00  0.00     0.166 A 
ATOM     11  C   UNL     1       8.402  -0.785  -2.145  1.00  0.00     0.165 A 
ATOM     12  O   UNL     1       8.255  -2.967  -1.903  1.00  0.00    -0.454 OA
ATOM     13  O   UNL     1       8.891  -1.400  -3.304  1.00  0.00    -0.454 OA
ATOM     14  C   UNL     1       9.218  -2.719  -2.917  1.00  0.00     0.468 C 
ENDBRANCH   5   6
ENDBRANCH   1   5
TORSDOF 3
ENDMDL
MODEL 4
REMARK VINA RESULT:      -6.7      1.559      1.898
REMARK SMILES CC(=O)CCc1ccc2c(c1)OCO2
REMARK SMILES IDX 4 1 2 2 1 3 3 4 5 5 6 6 7 7 11 8 8 9 10 10 9 11 12 12 14 13
REMARK SMILES IDX 13 14
REMARK H PARENT
REMARK Flexibility Score: inf
ROOT
ATOM      1  C   UNL     1       5.488   1.720   0.113  1.00  0.00     0.080 C 
ENDROOT
BRANCH   1   2
ATOM      2  C   UNL     1       4.830   1.300   1.363  1.00  0.00     0.130 C 
ATOM      3  C   UNL     1       5.459   0.104   2.058  1.00  0.00     0.087 C 
ATOM      4  O   UNL     1       3.869   1.786   1.888  1.00  0.00    -0.300 OA
ENDBRANCH   1   2
BRANCH   1   5
ATOM      5  C   UNL     1       6.923   1.391  -0.011  1.00  0.00     0.043 C 
BRANCH   5   6
ATOM      6  C   UNL     1       7.271   0.175  -0.752  1.00  0.00    -0.044 A 
ATOM      7  C   UNL     1       7.254   0.123  -2.146  1.00  0.00     0.008 A 
ATOM      8  C   UNL     1       7.656  -0.958  -0.073  1.00  0.00     0.054 A 
ATOM      9  C   UNL     1       7.617  -1.040  -2.774  1.00  0.00     0.051 A 
ATOM     10  C   UNL     1       8.023  -2.136  -0.742  1.00  0.00     0.166 A 
ATOM     11  C   UNL     1       8.006  -2.187  -2.118  1.00  0.00     0.165 A 
ATOM     12  O   UNL     1       8.443  -3.396  -0.332  1.00  0.00    -0.454 OA
ATOM     13  O   UNL     1       8.412  -3.464  -2.526  1.00  0.00    -0.454 OA
ATOM     14  C   UNL     1       9.116  -4.002  -1.426  1.00  0.00     0.468 C 
ENDBRANCH   5   6
ENDBRANCH   1   5
TORSDOF 3
ENDMDL
MODEL 5
REMARK VINA RESULT:      -6.6      1.570      2.216
REMARK SMILES CC(=O)CCc1ccc2c(c1)OCO2
REMARK SMILES IDX 4 1 2 2 1 3 3 4 5 5 6 6 7 7 11 8 8 9 10 10 9 11 12 12 14 13
REMARK SMILES IDX 13 14
REMARK H PARENT
REMARK Flexibility Score: inf
ROOT
ATOM      1  C   UNL     1       6.760   1.634   1.127  1.00  0.00     0.080 C 
ENDROOT
BRANCH   1   2
ATOM      2  C   UNL     1       5.319   1.798   0.863  1.00  0.00     0.130 C 
ATOM      3  C   UNL     1       4.956   2.149  -0.570  1.00  0.00     0.087 C 
ATOM      4  O   UNL     1       4.412   1.686   1.638  1.00  0.00    -0.300 OA
ENDBRANCH   1   2
BRANCH   1   5
ATOM      5  C   UNL     1       7.643   1.632  -0.058  1.00  0.00     0.043 C 
BRANCH   5   6
ATOM      6  C   UNL     1       7.785   0.368  -0.786  1.00  0.00    -0.044 A 
ATOM      7  C   UNL     1       7.756   0.306  -2.181  1.00  0.00     0.008 A 
ATOM      8  C   UNL     1       7.982  -0.805  -0.097  1.00  0.00     0.054 A 
ATOM      9  C   UNL     1       7.923  -0.908  -2.797  1.00  0.00     0.051 A 
ATOM     10  C   UNL     1       8.150  -2.034  -0.753  1.00  0.00     0.166 A 
ATOM     11  C   UNL     1       8.121  -2.096  -2.129  1.00  0.00     0.165 A 
ATOM     12  O   UNL     1       8.360  -3.341  -0.331  1.00  0.00    -0.454 OA
ATOM     13  O   UNL     1       8.311  -3.426  -2.524  1.00  0.00    -0.454 OA
ATOM     14  C   UNL     1       8.921  -4.060  -1.419  1.00  0.00     0.468 C 
ENDBRANCH   5   6
ENDBRANCH   1   5
TORSDOF 3
ENDMDL
