@<TRIPOS>MOLECULE
/home/cewinharhar/GITHUB/reincatalyze/data/processed/docking_pred/2023-May-31-1727_sub9_nm5_bs15_s42_ex16_mel10_mts10000_k50_ec075_g099_lra3e-4_lrc3e-3/b9a0748b4c4cb53be71f33acfe76cbadf25e0c0f_ligand_9.pdbqt
 14 15 0 0 0
SMALL
GASTEIGER

@<TRIPOS>ATOM
      1  C          5.4880    1.7200    0.1130 C.3     1  UNL1        0.0800
      2  C          4.8300    1.3000    1.3630 C.2     1  UNL1        0.1300
      3  C          5.4590    0.1040    2.0580 C.3     1  UNL1        0.0870
      4  O          3.8690    1.7860    1.8880 O.2     1  UNL1       -0.3000
      5  C          6.9230    1.3910   -0.0110 C.3     1  UNL1        0.0430
      6  C          7.2710    0.1750   -0.7520 C.2     1  UNL1       -0.0440
      7  C          7.2540    0.1230   -2.1460 C.2     1  UNL1        0.0080
      8  C          7.6560   -0.9580   -0.0730 C.2     1  UNL1        0.0540
      9  C          7.6170   -1.0400   -2.7740 C.2     1  UNL1        0.0510
     10  C          8.0230   -2.1360   -0.7420 C.2     1  UNL1        0.1660
     11  C          8.0060   -2.1870   -2.1180 C.2     1  UNL1        0.1650
     12  O          8.4430   -3.3960   -0.3320 O.2     1  UNL1       -0.4540
     13  O          8.4120   -3.4640   -2.5260 O.2     1  UNL1       -0.4540
     14  C          9.1160   -4.0020   -1.4260 C.3     1  UNL1        0.4680
@<TRIPOS>BOND
     1     9     7    1
     2     9    11    2
     3    13    11    1
     4    13    14    1
     5     7     6    2
     6    11    10    1
     7    14    12    1
     8     6     8    1
     9     6     5    1
    10    10    12    1
    11    10     8    2
    12     5     1    1
    13     1     2    1
    14     2     4    2
    15     2     3    1
