@<TRIPOS>MOLECULE
/home/cewinharhar/GITHUB/reincatalyze/data/processed/docking_pred/2023-May-31-1727_sub9_nm5_bs15_s42_ex16_mel10_mts10000_k50_ec075_g099_lra3e-4_lrc3e-3/b9a0748b4c4cb53be71f33acfe76cbadf25e0c0f_ligand_9.pdbqt
 14 15 0 0 0
SMALL
GASTEIGER

@<TRIPOS>ATOM
      1  C          5.4880    1.8960    1.2070 C.3     1  UNL1        0.0800
      2  C          4.9710    0.7660    2.0000 C.2     1  UNL1        0.1300
      3  C          5.9060   -0.4260    2.1190 C.3     1  UNL1        0.0870
      4  O          3.9130    0.6790    2.5550 O.2     1  UNL1       -0.3000
      5  C          5.4750    1.7220   -0.2600 C.3     1  UNL1        0.0430
      6  C          6.5920    0.9850   -0.8580 C.2     1  UNL1       -0.0440
      7  C          7.9220    1.3550   -0.6510 C.2     1  UNL1        0.0080
      8  C          6.3500   -0.1270   -1.6300 C.2     1  UNL1        0.0540
      9  C          8.9190    0.6040   -1.2190 C.2     1  UNL1        0.0510
     10  C          7.3890   -0.8780   -2.1990 C.2     1  UNL1        0.1660
     11  C          8.7020   -0.5130   -1.9950 C.2     1  UNL1        0.1650
     12  O          7.4430   -2.0130   -2.9980 O.2     1  UNL1       -0.4540
     13  O          9.5310   -1.4210   -2.6660 O.2     1  UNL1       -0.4540
     14  C          8.7400   -2.5750   -2.8610 C.3     1  UNL1        0.4680
@<TRIPOS>BOND
     1    12    14    1
     2    12    10    1
     3    14    13    1
     4    13    11    1
     5    10    11    2
     6    10     8    1
     7    11     9    1
     8     8     6    2
     9     9     7    2
    10     6     7    1
    11     6     5    1
    12     5     1    1
    13     1     2    1
    14     2     3    1
    15     2     4    2
