@<TRIPOS>MOLECULE
/home/cewinharhar/GITHUB/reincatalyze/data/processed/docking_pred/2023-May-31-1727_sub9_nm5_bs15_s42_ex16_mel10_mts10000_k50_ec075_g099_lra3e-4_lrc3e-3/ba254a63d1f23417312e0ffefa4719b754a9a4bf_ligand_9.pdbqt
 14 15 0 0 0
SMALL
GASTEIGER

@<TRIPOS>ATOM
      1  C          5.7640    0.0380    2.0290 C.3     1  UNL1        0.0800
      2  C          4.7460    1.0610    1.7310 C.2     1  UNL1        0.1300
      3  C          5.0630    1.9710    0.5560 C.3     1  UNL1        0.0870
      4  O          3.7090    1.2550    2.2990 O.2     1  UNL1       -0.3000
      5  C          7.0720    0.2070    1.3630 C.3     1  UNL1        0.0430
      6  C          7.4390   -0.7810    0.3450 C.2     1  UNL1       -0.0440
      7  C          7.3860   -0.4980   -1.0210 C.2     1  UNL1        0.0080
      8  C          7.8800   -2.0280    0.7240 C.2     1  UNL1        0.0540
      9  C          7.7700   -1.4620   -1.9160 C.2     1  UNL1        0.0510
     10  C          8.2670   -2.9970   -0.2150 C.2     1  UNL1        0.1660
     11  C          8.2140   -2.7170   -1.5620 C.2     1  UNL1        0.1650
     12  O          8.7390   -4.3010   -0.1270 O.2     1  UNL1       -0.4540
     13  O          8.6510   -3.8430   -2.2730 O.2     1  UNL1       -0.4540
     14  C          9.4020   -4.6010   -1.3470 C.3     1  UNL1        0.4680
@<TRIPOS>BOND
     1    13    11    1
     2    13    14    1
     3     9    11    2
     4     9     7    1
     5    11    10    1
     6    14    12    1
     7     7     6    2
     8    10    12    1
     9    10     8    2
    10     6     8    1
    11     6     5    1
    12     3     2    1
    13     5     1    1
    14     2     1    1
    15     2     4    2
