MODEL 1
REMARK VINA RESULT:      -7.6      0.000      0.000
REMARK SMILES CC(=O)CCc1ccc2c(c1)OCO2
REMARK SMILES IDX 4 1 2 2 1 3 3 4 5 5 6 6 7 7 11 8 8 9 10 10 9 11 12 12 14 13
REMARK SMILES IDX 13 14
REMARK H PARENT
REMARK Flexibility Score: inf
ROOT
ATOM      1  C   UNL     1       5.551   1.888   1.217  1.00  0.00     0.080 C 
ENDROOT
BRANCH   1   2
ATOM      2  C   UNL     1       5.036   0.750   1.999  1.00  0.00     0.130 C 
ATOM      3  C   UNL     1       5.999  -0.413   2.167  1.00  0.00     0.087 C 
ATOM      4  O   UNL     1       3.959   0.638   2.512  1.00  0.00    -0.300 OA
ENDBRANCH   1   2
BRANCH   1   5
ATOM      5  C   UNL     1       5.533   1.729  -0.253  1.00  0.00     0.043 C 
BRANCH   5   6
ATOM      6  C   UNL     1       6.641   0.987  -0.861  1.00  0.00    -0.044 A 
ATOM      7  C   UNL     1       7.974   1.358  -0.678  1.00  0.00     0.008 A 
ATOM      8  C   UNL     1       6.386  -0.132  -1.619  1.00  0.00     0.054 A 
ATOM      9  C   UNL     1       8.962   0.602  -1.254  1.00  0.00     0.051 A 
ATOM     10  C   UNL     1       7.417  -0.888  -2.197  1.00  0.00     0.166 A 
ATOM     11  C   UNL     1       8.733  -0.522  -2.017  1.00  0.00     0.165 A 
ATOM     12  O   UNL     1       7.458  -2.031  -2.987  1.00  0.00    -0.454 OA
ATOM     13  O   UNL     1       9.551  -1.436  -2.692  1.00  0.00    -0.454 OA
ATOM     14  C   UNL     1       8.757  -2.592  -2.864  1.00  0.00     0.468 C 
ENDBRANCH   5   6
ENDBRANCH   1   5
TORSDOF 3
ENDMDL
MODEL 2
REMARK VINA RESULT:      -7.0      1.864      2.339
REMARK SMILES CC(=O)CCc1ccc2c(c1)OCO2
REMARK SMILES IDX 4 1 2 2 1 3 3 4 5 5 6 6 7 7 11 8 8 9 10 10 9 11 12 12 14 13
REMARK SMILES IDX 13 14
REMARK H PARENT
REMARK Flexibility Score: inf
ROOT
ATOM      1  C   UNL     1       5.865   1.369  -0.269  1.00  0.00     0.080 C 
ENDROOT
BRANCH   1   2
ATOM      2  C   UNL     1       5.186   1.338   1.039  1.00  0.00     0.130 C 
ATOM      3  C   UNL     1       5.490   0.125   1.902  1.00  0.00     0.087 C 
ATOM      4  O   UNL     1       4.431   2.150   1.495  1.00  0.00    -0.300 OA
ENDBRANCH   1   2
BRANCH   1   5
ATOM      5  C   UNL     1       7.290   0.975  -0.272  1.00  0.00     0.043 C 
BRANCH   5   6
ATOM      6  C   UNL     1       7.625  -0.321  -0.870  1.00  0.00    -0.044 A 
ATOM      7  C   UNL     1       7.722  -0.500  -2.251  1.00  0.00     0.008 A 
ATOM      8  C   UNL     1       7.886  -1.404  -0.064  1.00  0.00     0.054 A 
ATOM      9  C   UNL     1       8.067  -1.733  -2.740  1.00  0.00     0.051 A 
ATOM     10  C   UNL     1       8.238  -2.656  -0.592  1.00  0.00     0.166 A 
ATOM     11  C   UNL     1       8.332  -2.833  -1.954  1.00  0.00     0.165 A 
ATOM     12  O   UNL     1       8.548  -3.892  -0.037  1.00  0.00    -0.454 OA
ATOM     13  O   UNL     1       8.695  -4.161  -2.211  1.00  0.00    -0.454 OA
ATOM     14  C   UNL     1       9.273  -4.630  -1.010  1.00  0.00     0.468 C 
ENDBRANCH   5   6
ENDBRANCH   1   5
TORSDOF 3
ENDMDL
MODEL 3
REMARK VINA RESULT:      -6.9      1.087      1.174
REMARK SMILES CC(=O)CCc1ccc2c(c1)OCO2
REMARK SMILES IDX 4 1 2 2 1 3 3 4 5 5 6 6 7 7 11 8 8 9 10 10 9 11 12 12 14 13
REMARK SMILES IDX 13 14
REMARK H PARENT
REMARK Flexibility Score: inf
ROOT
ATOM      1  C   UNL     1       6.196   1.204   0.901  1.00  0.00     0.080 C 
ENDROOT
BRANCH   1   2
ATOM      2  C   UNL     1       5.530   0.392   1.936  1.00  0.00     0.130 C 
ATOM      3  C   UNL     1       6.315  -0.816   2.419  1.00  0.00     0.087 C 
ATOM      4  O   UNL     1       4.455   0.572   2.433  1.00  0.00    -0.300 OA
ENDBRANCH   1   2
BRANCH   1   5
ATOM      5  C   UNL     1       5.855   0.881  -0.500  1.00  0.00     0.043 C 
BRANCH   5   6
ATOM      6  C   UNL     1       6.840   0.118  -1.271  1.00  0.00    -0.044 A 
ATOM      7  C   UNL     1       7.792   0.738  -2.082  1.00  0.00     0.008 A 
ATOM      8  C   UNL     1       6.867  -1.255  -1.188  1.00  0.00     0.054 A 
ATOM      9  C   UNL     1       8.702  -0.037  -2.754  1.00  0.00     0.051 A 
ATOM     10  C   UNL     1       7.809  -2.024  -1.888  1.00  0.00     0.166 A 
ATOM     11  C   UNL     1       8.748  -1.412  -2.688  1.00  0.00     0.165 A 
ATOM     12  O   UNL     1       8.068  -3.385  -1.992  1.00  0.00    -0.454 OA
ATOM     13  O   UNL     1       9.559  -2.397  -3.265  1.00  0.00    -0.454 OA
ATOM     14  C   UNL     1       9.406  -3.535  -2.443  1.00  0.00     0.468 C 
ENDBRANCH   5   6
ENDBRANCH   1   5
TORSDOF 3
ENDMDL
MODEL 4
REMARK VINA RESULT:      -6.7      1.180      1.666
REMARK SMILES CC(=O)CCc1ccc2c(c1)OCO2
REMARK SMILES IDX 4 1 2 2 1 3 3 4 5 5 6 6 7 7 11 8 8 9 10 10 9 11 12 12 14 13
REMARK SMILES IDX 13 14
REMARK H PARENT
REMARK Flexibility Score: inf
ROOT
ATOM      1  C   UNL     1       5.409  -0.086   1.956  1.00  0.00     0.080 C 
ENDROOT
BRANCH   1   2
ATOM      2  C   UNL     1       4.455   1.035   1.886  1.00  0.00     0.130 C 
ATOM      3  C   UNL     1       4.749   2.073   0.816  1.00  0.00     0.087 C 
ATOM      4  O   UNL     1       3.486   1.219   2.566  1.00  0.00    -0.300 OA
ENDBRANCH   1   2
BRANCH   1   5
ATOM      5  C   UNL     1       6.825   0.246   1.690  1.00  0.00     0.043 C 
BRANCH   5   6
ATOM      6  C   UNL     1       7.362  -0.112   0.374  1.00  0.00    -0.044 A 
ATOM      7  C   UNL     1       7.795   0.851  -0.539  1.00  0.00     0.008 A 
ATOM      8  C   UNL     1       7.478  -1.434   0.014  1.00  0.00     0.054 A 
ATOM      9  C   UNL     1       8.311   0.444  -1.742  1.00  0.00     0.051 A 
ATOM     10  C   UNL     1       8.012  -1.823  -1.224  1.00  0.00     0.166 A 
ATOM     11  C   UNL     1       8.438  -0.873  -2.125  1.00  0.00     0.165 A 
ATOM     12  O   UNL     1       8.245  -3.046  -1.841  1.00  0.00    -0.454 OA
ATOM     13  O   UNL     1       8.922  -1.522  -3.269  1.00  0.00    -0.454 OA
ATOM     14  C   UNL     1       9.219  -2.838  -2.853  1.00  0.00     0.468 C 
ENDBRANCH   5   6
ENDBRANCH   1   5
TORSDOF 3
ENDMDL
MODEL 5
REMARK VINA RESULT:      -6.7      1.995      2.546
REMARK SMILES CC(=O)CCc1ccc2c(c1)OCO2
REMARK SMILES IDX 4 1 2 2 1 3 3 4 5 5 6 6 7 7 11 8 8 9 10 10 9 11 12 12 14 13
REMARK SMILES IDX 13 14
REMARK H PARENT
REMARK Flexibility Score: inf
ROOT
ATOM      1  C   UNL     1       5.764   0.038   2.029  1.00  0.00     0.080 C 
ENDROOT
BRANCH   1   2
ATOM      2  C   UNL     1       4.746   1.061   1.731  1.00  0.00     0.130 C 
ATOM      3  C   UNL     1       5.063   1.971   0.556  1.00  0.00     0.087 C 
ATOM      4  O   UNL     1       3.709   1.255   2.299  1.00  0.00    -0.300 OA
ENDBRANCH   1   2
BRANCH   1   5
ATOM      5  C   UNL     1       7.072   0.207   1.363  1.00  0.00     0.043 C 
BRANCH   5   6
ATOM      6  C   UNL     1       7.439  -0.781   0.345  1.00  0.00    -0.044 A 
ATOM      7  C   UNL     1       7.386  -0.498  -1.021  1.00  0.00     0.008 A 
ATOM      8  C   UNL     1       7.880  -2.028   0.724  1.00  0.00     0.054 A 
ATOM      9  C   UNL     1       7.770  -1.462  -1.916  1.00  0.00     0.051 A 
ATOM     10  C   UNL     1       8.267  -2.997  -0.215  1.00  0.00     0.166 A 
ATOM     11  C   UNL     1       8.214  -2.717  -1.562  1.00  0.00     0.165 A 
ATOM     12  O   UNL     1       8.739  -4.301  -0.127  1.00  0.00    -0.454 OA
ATOM     13  O   UNL     1       8.651  -3.843  -2.273  1.00  0.00    -0.454 OA
ATOM     14  C   UNL     1       9.402  -4.601  -1.347  1.00  0.00     0.468 C 
ENDBRANCH   5   6
ENDBRANCH   1   5
TORSDOF 3
ENDMDL
