@<TRIPOS>MOLECULE
/home/cewinharhar/GITHUB/reincatalyze/data/processed/docking_pred/2023-May-31-1727_sub9_nm5_bs15_s42_ex16_mel10_mts10000_k50_ec075_g099_lra3e-4_lrc3e-3/ba254a63d1f23417312e0ffefa4719b754a9a4bf_ligand_9.pdbqt
 14 15 0 0 0
SMALL
GASTEIGER

@<TRIPOS>ATOM
      1  C          6.1960    1.2040    0.9010 C.3     1  UNL1        0.0800
      2  C          5.5300    0.3920    1.9360 C.2     1  UNL1        0.1300
      3  C          6.3150   -0.8160    2.4190 C.3     1  UNL1        0.0870
      4  O          4.4550    0.5720    2.4330 O.2     1  UNL1       -0.3000
      5  C          5.8550    0.8810   -0.5000 C.3     1  UNL1        0.0430
      6  C          6.8400    0.1180   -1.2710 C.2     1  UNL1       -0.0440
      7  C          7.7920    0.7380   -2.0820 C.2     1  UNL1        0.0080
      8  C          6.8670   -1.2550   -1.1880 C.2     1  UNL1        0.0540
      9  C          8.7020   -0.0370   -2.7540 C.2     1  UNL1        0.0510
     10  C          7.8090   -2.0240   -1.8880 C.2     1  UNL1        0.1660
     11  C          8.7480   -1.4120   -2.6880 C.2     1  UNL1        0.1650
     12  O          8.0680   -3.3850   -1.9920 O.2     1  UNL1       -0.4540
     13  O          9.5590   -2.3970   -3.2650 O.2     1  UNL1       -0.4540
     14  C          9.4060   -3.5350   -2.4430 C.3     1  UNL1        0.4680
@<TRIPOS>BOND
     1    13    11    1
     2    13    14    1
     3     9    11    2
     4     9     7    1
     5    11    10    1
     6    14    12    1
     7     7     6    2
     8    12    10    1
     9    10     8    2
    10     6     8    1
    11     6     5    1
    12     5     1    1
    13     1     2    1
    14     2     3    1
    15     2     4    2
