@<TRIPOS>MOLECULE
/home/cewinharhar/GITHUB/reincatalyze/data/processed/docking_pred/2023-May-31-1727_sub9_nm5_bs15_s42_ex16_mel10_mts10000_k50_ec075_g099_lra3e-4_lrc3e-3/ba254a63d1f23417312e0ffefa4719b754a9a4bf_ligand_9.pdbqt
 14 15 0 0 0
SMALL
GASTEIGER

@<TRIPOS>ATOM
      1  C          5.4090   -0.0860    1.9560 C.3     1  UNL1        0.0800
      2  C          4.4550    1.0350    1.8860 C.2     1  UNL1        0.1300
      3  C          4.7490    2.0730    0.8160 C.3     1  UNL1        0.0870
      4  O          3.4860    1.2190    2.5660 O.2     1  UNL1       -0.3000
      5  C          6.8250    0.2460    1.6900 C.3     1  UNL1        0.0430
      6  C          7.3620   -0.1120    0.3740 C.2     1  UNL1       -0.0440
      7  C          7.7950    0.8510   -0.5390 C.2     1  UNL1        0.0080
      8  C          7.4780   -1.4340    0.0140 C.2     1  UNL1        0.0540
      9  C          8.3110    0.4440   -1.7420 C.2     1  UNL1        0.0510
     10  C          8.0120   -1.8230   -1.2240 C.2     1  UNL1        0.1660
     11  C          8.4380   -0.8730   -2.1250 C.2     1  UNL1        0.1650
     12  O          8.2450   -3.0460   -1.8410 O.2     1  UNL1       -0.4540
     13  O          8.9220   -1.5220   -3.2690 O.2     1  UNL1       -0.4540
     14  C          9.2190   -2.8380   -2.8530 C.3     1  UNL1        0.4680
@<TRIPOS>BOND
     1    13    14    1
     2    13    11    1
     3    14    12    1
     4    11     9    2
     5    11    10    1
     6    12    10    1
     7     9     7    1
     8    10     8    2
     9     7     6    2
    10     8     6    1
    11     6     5    1
    12     3     2    1
    13     5     1    1
    14     2     1    1
    15     2     4    2
