@<TRIPOS>MOLECULE
/home/cewinharhar/GITHUB/reincatalyze/data/processed/docking_pred/2023-May-31-1727_sub9_nm5_bs15_s42_ex16_mel10_mts10000_k50_ec075_g099_lra3e-4_lrc3e-3/bae690ffab80532c90b6f683492bf7de3cce581e_ligand_9.pdbqt
 14 15 0 0 0
SMALL
GASTEIGER

@<TRIPOS>ATOM
      1  C          5.3830   -0.0440    1.9610 C.3     1  UNL1        0.0800
      2  C          4.4270    1.0740    1.8690 C.2     1  UNL1        0.1300
      3  C          4.7480    2.1180    0.8130 C.3     1  UNL1        0.0870
      4  O          3.4390    1.2530    2.5230 O.2     1  UNL1       -0.3000
      5  C          6.8000    0.2860    1.6980 C.3     1  UNL1        0.0430
      6  C          7.3340   -0.0570    0.3770 C.2     1  UNL1       -0.0440
      7  C          7.7550    0.9150   -0.5310 C.2     1  UNL1        0.0080
      8  C          7.4600   -1.3760    0.0070 C.2     1  UNL1        0.0540
      9  C          8.2700    0.5210   -1.7380 C.2     1  UNL1        0.0510
     10  C          7.9910   -1.7520   -1.2360 C.2     1  UNL1        0.1660
     11  C          8.4060   -0.7920   -2.1320 C.2     1  UNL1        0.1650
     12  O          8.2310   -2.9690   -1.8620 O.2     1  UNL1       -0.4540
     13  O          8.8900   -1.4290   -3.2820 O.2     1  UNL1       -0.4540
     14  C          9.2000   -2.7460   -2.8770 C.3     1  UNL1        0.4680
@<TRIPOS>BOND
     1    13    14    1
     2    13    11    1
     3    14    12    1
     4    11     9    2
     5    11    10    1
     6    12    10    1
     7     9     7    1
     8    10     8    2
     9     7     6    2
    10     8     6    1
    11     6     5    1
    12     3     2    1
    13     5     1    1
    14     2     1    1
    15     2     4    2
