@<TRIPOS>MOLECULE
/home/cewinharhar/GITHUB/reincatalyze/data/processed/docking_pred/2023-May-31-1727_sub9_nm5_bs15_s42_ex16_mel10_mts10000_k50_ec075_g099_lra3e-4_lrc3e-3/bae690ffab80532c90b6f683492bf7de3cce581e_ligand_9.pdbqt
 14 15 0 0 0
SMALL
GASTEIGER

@<TRIPOS>ATOM
      1  C          5.7170    0.0790    1.9770 C.3     1  UNL1        0.0800
      2  C          4.7200    1.1290    1.6980 C.2     1  UNL1        0.1300
      3  C          5.0600    2.0590    0.5460 C.3     1  UNL1        0.0870
      4  O          3.6860    1.3310    2.2680 O.2     1  UNL1       -0.3000
      5  C          7.0350    0.2440    1.3280 C.3     1  UNL1        0.0430
      6  C          7.4120   -0.7470    0.3170 C.2     1  UNL1       -0.0440
      7  C          7.3630   -0.4710   -1.0510 C.2     1  UNL1        0.0080
      8  C          7.8600   -1.9900    0.7030 C.2     1  UNL1        0.0540
      9  C          7.7570   -1.4360   -1.9410 C.2     1  UNL1        0.0510
     10  C          8.2570   -2.9590   -0.2300 C.2     1  UNL1        0.1660
     11  C          8.2080   -2.6870   -1.5790 C.2     1  UNL1        0.1650
     12  O          8.7370   -4.2600   -0.1350 O.2     1  UNL1       -0.4540
     13  O          8.6550   -3.8130   -2.2830 O.2     1  UNL1       -0.4540
     14  C          9.4070   -4.5610   -1.3500 C.3     1  UNL1        0.4680
@<TRIPOS>BOND
     1    13    11    1
     2    13    14    1
     3     9    11    2
     4     9     7    1
     5    11    10    1
     6    14    12    1
     7     7     6    2
     8    10    12    1
     9    10     8    2
    10     6     8    1
    11     6     5    1
    12     3     2    1
    13     5     1    1
    14     2     1    1
    15     2     4    2
