@<TRIPOS>MOLECULE
/home/cewinharhar/GITHUB/reincatalyze/data/processed/docking_pred/2023-May-31-1727_sub9_nm5_bs15_s42_ex16_mel10_mts10000_k50_ec075_g099_lra3e-4_lrc3e-3/bae690ffab80532c90b6f683492bf7de3cce581e_ligand_9.pdbqt
 14 15 0 0 0
SMALL
GASTEIGER

@<TRIPOS>ATOM
      1  C          5.5510    1.8870    1.2130 C.3     1  UNL1        0.0800
      2  C          5.0250    0.7530    1.9950 C.2     1  UNL1        0.1300
      3  C          5.9820   -0.4140    2.1700 C.3     1  UNL1        0.0870
      4  O          3.9450    0.6480    2.5030 O.2     1  UNL1       -0.3000
      5  C          5.5350    1.7280   -0.2560 C.3     1  UNL1        0.0430
      6  C          6.6410    0.9800   -0.8610 C.2     1  UNL1       -0.0440
      7  C          7.9750    1.3470   -0.6770 C.2     1  UNL1        0.0080
      8  C          6.3830   -0.1390   -1.6170 C.2     1  UNL1        0.0540
      9  C          8.9600    0.5860   -1.2510 C.2     1  UNL1        0.0510
     10  C          7.4110   -0.9010   -2.1920 C.2     1  UNL1        0.1660
     11  C          8.7280   -0.5390   -2.0110 C.2     1  UNL1        0.1650
     12  O          7.4490   -2.0450   -2.9800 O.2     1  UNL1       -0.4540
     13  O          9.5440   -1.4570   -2.6840 O.2     1  UNL1       -0.4540
     14  C          8.7460   -2.6100   -2.8550 C.3     1  UNL1        0.4680
@<TRIPOS>BOND
     1    12    14    1
     2    12    10    1
     3    14    13    1
     4    13    11    1
     5    10    11    2
     6    10     8    1
     7    11     9    1
     8     8     6    2
     9     9     7    2
    10     6     7    1
    11     6     5    1
    12     5     1    1
    13     1     2    1
    14     2     3    1
    15     2     4    2
