MODEL 1
REMARK VINA RESULT:      -7.6      0.000      0.000
REMARK SMILES CC(=O)CCc1ccc2c(c1)OCO2
REMARK SMILES IDX 4 1 2 2 1 3 3 4 5 5 6 6 7 7 11 8 8 9 10 10 9 11 12 12 14 13
REMARK SMILES IDX 13 14
REMARK H PARENT
REMARK Flexibility Score: inf
ROOT
ATOM      1  C   UNL     1       5.551   1.887   1.213  1.00  0.00     0.080 C 
ENDROOT
BRANCH   1   2
ATOM      2  C   UNL     1       5.025   0.753   1.995  1.00  0.00     0.130 C 
ATOM      3  C   UNL     1       5.982  -0.414   2.170  1.00  0.00     0.087 C 
ATOM      4  O   UNL     1       3.945   0.648   2.503  1.00  0.00    -0.300 OA
ENDBRANCH   1   2
BRANCH   1   5
ATOM      5  C   UNL     1       5.535   1.728  -0.256  1.00  0.00     0.043 C 
BRANCH   5   6
ATOM      6  C   UNL     1       6.641   0.980  -0.861  1.00  0.00    -0.044 A 
ATOM      7  C   UNL     1       7.975   1.347  -0.677  1.00  0.00     0.008 A 
ATOM      8  C   UNL     1       6.383  -0.139  -1.617  1.00  0.00     0.054 A 
ATOM      9  C   UNL     1       8.960   0.586  -1.251  1.00  0.00     0.051 A 
ATOM     10  C   UNL     1       7.411  -0.901  -2.192  1.00  0.00     0.166 A 
ATOM     11  C   UNL     1       8.728  -0.539  -2.011  1.00  0.00     0.165 A 
ATOM     12  O   UNL     1       7.449  -2.045  -2.980  1.00  0.00    -0.454 OA
ATOM     13  O   UNL     1       9.544  -1.457  -2.684  1.00  0.00    -0.454 OA
ATOM     14  C   UNL     1       8.746  -2.610  -2.855  1.00  0.00     0.468 C 
ENDBRANCH   5   6
ENDBRANCH   1   5
TORSDOF 3
ENDMDL
MODEL 2
REMARK VINA RESULT:      -7.0      1.826      2.301
REMARK SMILES CC(=O)CCc1ccc2c(c1)OCO2
REMARK SMILES IDX 4 1 2 2 1 3 3 4 5 5 6 6 7 7 11 8 8 9 10 10 9 11 12 12 14 13
REMARK SMILES IDX 13 14
REMARK H PARENT
REMARK Flexibility Score: inf
ROOT
ATOM      1  C   UNL     1       5.814   1.487  -0.296  1.00  0.00     0.080 C 
ENDROOT
BRANCH   1   2
ATOM      2  C   UNL     1       5.104   1.417   0.994  1.00  0.00     0.130 C 
ATOM      3  C   UNL     1       5.544   0.295   1.919  1.00  0.00     0.087 C 
ATOM      4  O   UNL     1       4.230   2.134   1.392  1.00  0.00    -0.300 OA
ENDBRANCH   1   2
BRANCH   1   5
ATOM      5  C   UNL     1       7.229   1.061  -0.283  1.00  0.00     0.043 C 
BRANCH   5   6
ATOM      6  C   UNL     1       7.541  -0.245  -0.871  1.00  0.00    -0.044 A 
ATOM      7  C   UNL     1       7.563  -0.454  -2.251  1.00  0.00     0.008 A 
ATOM      8  C   UNL     1       7.853  -1.310  -0.058  1.00  0.00     0.054 A 
ATOM      9  C   UNL     1       7.889  -1.695  -2.733  1.00  0.00     0.051 A 
ATOM     10  C   UNL     1       8.184  -2.570  -0.578  1.00  0.00     0.166 A 
ATOM     11  C   UNL     1       8.204  -2.776  -1.940  1.00  0.00     0.165 A 
ATOM     12  O   UNL     1       8.532  -3.792  -0.016  1.00  0.00    -0.454 OA
ATOM     13  O   UNL     1       8.562  -4.108  -2.188  1.00  0.00    -0.454 OA
ATOM     14  C   UNL     1       9.208  -4.547  -1.011  1.00  0.00     0.468 C 
ENDBRANCH   5   6
ENDBRANCH   1   5
TORSDOF 3
ENDMDL
MODEL 3
REMARK VINA RESULT:      -6.9      1.064      1.137
REMARK SMILES CC(=O)CCc1ccc2c(c1)OCO2
REMARK SMILES IDX 4 1 2 2 1 3 3 4 5 5 6 6 7 7 11 8 8 9 10 10 9 11 12 12 14 13
REMARK SMILES IDX 13 14
REMARK H PARENT
REMARK Flexibility Score: inf
ROOT
ATOM      1  C   UNL     1       6.160   1.232   0.884  1.00  0.00     0.080 C 
ENDROOT
BRANCH   1   2
ATOM      2  C   UNL     1       5.516   0.408   1.923  1.00  0.00     0.130 C 
ATOM      3  C   UNL     1       6.302  -0.817   2.360  1.00  0.00     0.087 C 
ATOM      4  O   UNL     1       4.459   0.590   2.456  1.00  0.00    -0.300 OA
ENDBRANCH   1   2
BRANCH   1   5
ATOM      5  C   UNL     1       5.826   0.895  -0.515  1.00  0.00     0.043 C 
BRANCH   5   6
ATOM      6  C   UNL     1       6.822   0.138  -1.278  1.00  0.00    -0.044 A 
ATOM      7  C   UNL     1       7.796   0.766  -2.057  1.00  0.00     0.008 A 
ATOM      8  C   UNL     1       6.837  -1.236  -1.220  1.00  0.00     0.054 A 
ATOM      9  C   UNL     1       8.714  -0.004  -2.724  1.00  0.00     0.051 A 
ATOM     10  C   UNL     1       7.789  -1.999  -1.912  1.00  0.00     0.166 A 
ATOM     11  C   UNL     1       8.749  -1.380  -2.682  1.00  0.00     0.165 A 
ATOM     12  O   UNL     1       8.039  -3.361  -2.036  1.00  0.00    -0.454 OA
ATOM     13  O   UNL     1       9.565  -2.362  -3.259  1.00  0.00    -0.454 OA
ATOM     14  C   UNL     1       9.386  -3.513  -2.460  1.00  0.00     0.468 C 
ENDBRANCH   5   6
ENDBRANCH   1   5
TORSDOF 3
ENDMDL
MODEL 4
REMARK VINA RESULT:      -6.8      1.162      1.647
REMARK SMILES CC(=O)CCc1ccc2c(c1)OCO2
REMARK SMILES IDX 4 1 2 2 1 3 3 4 5 5 6 6 7 7 11 8 8 9 10 10 9 11 12 12 14 13
REMARK SMILES IDX 13 14
REMARK H PARENT
REMARK Flexibility Score: inf
ROOT
ATOM      1  C   UNL     1       5.383  -0.044   1.961  1.00  0.00     0.080 C 
ENDROOT
BRANCH   1   2
ATOM      2  C   UNL     1       4.427   1.074   1.869  1.00  0.00     0.130 C 
ATOM      3  C   UNL     1       4.748   2.118   0.813  1.00  0.00     0.087 C 
ATOM      4  O   UNL     1       3.439   1.253   2.523  1.00  0.00    -0.300 OA
ENDBRANCH   1   2
BRANCH   1   5
ATOM      5  C   UNL     1       6.800   0.286   1.698  1.00  0.00     0.043 C 
BRANCH   5   6
ATOM      6  C   UNL     1       7.334  -0.057   0.377  1.00  0.00    -0.044 A 
ATOM      7  C   UNL     1       7.755   0.915  -0.531  1.00  0.00     0.008 A 
ATOM      8  C   UNL     1       7.460  -1.376   0.007  1.00  0.00     0.054 A 
ATOM      9  C   UNL     1       8.270   0.521  -1.738  1.00  0.00     0.051 A 
ATOM     10  C   UNL     1       7.991  -1.752  -1.236  1.00  0.00     0.166 A 
ATOM     11  C   UNL     1       8.406  -0.792  -2.132  1.00  0.00     0.165 A 
ATOM     12  O   UNL     1       8.231  -2.969  -1.862  1.00  0.00    -0.454 OA
ATOM     13  O   UNL     1       8.890  -1.429  -3.282  1.00  0.00    -0.454 OA
ATOM     14  C   UNL     1       9.200  -2.746  -2.877  1.00  0.00     0.468 C 
ENDBRANCH   5   6
ENDBRANCH   1   5
TORSDOF 3
ENDMDL
MODEL 5
REMARK VINA RESULT:      -6.7      1.975      2.517
REMARK SMILES CC(=O)CCc1ccc2c(c1)OCO2
REMARK SMILES IDX 4 1 2 2 1 3 3 4 5 5 6 6 7 7 11 8 8 9 10 10 9 11 12 12 14 13
REMARK SMILES IDX 13 14
REMARK H PARENT
REMARK Flexibility Score: inf
ROOT
ATOM      1  C   UNL     1       5.717   0.079   1.977  1.00  0.00     0.080 C 
ENDROOT
BRANCH   1   2
ATOM      2  C   UNL     1       4.720   1.129   1.698  1.00  0.00     0.130 C 
ATOM      3  C   UNL     1       5.060   2.059   0.546  1.00  0.00     0.087 C 
ATOM      4  O   UNL     1       3.686   1.331   2.268  1.00  0.00    -0.300 OA
ENDBRANCH   1   2
BRANCH   1   5
ATOM      5  C   UNL     1       7.035   0.244   1.328  1.00  0.00     0.043 C 
BRANCH   5   6
ATOM      6  C   UNL     1       7.412  -0.747   0.317  1.00  0.00    -0.044 A 
ATOM      7  C   UNL     1       7.363  -0.471  -1.051  1.00  0.00     0.008 A 
ATOM      8  C   UNL     1       7.860  -1.990   0.703  1.00  0.00     0.054 A 
ATOM      9  C   UNL     1       7.757  -1.436  -1.941  1.00  0.00     0.051 A 
ATOM     10  C   UNL     1       8.257  -2.959  -0.230  1.00  0.00     0.166 A 
ATOM     11  C   UNL     1       8.208  -2.687  -1.579  1.00  0.00     0.165 A 
ATOM     12  O   UNL     1       8.737  -4.260  -0.135  1.00  0.00    -0.454 OA
ATOM     13  O   UNL     1       8.655  -3.813  -2.283  1.00  0.00    -0.454 OA
ATOM     14  C   UNL     1       9.407  -4.561  -1.350  1.00  0.00     0.468 C 
ENDBRANCH   5   6
ENDBRANCH   1   5
TORSDOF 3
ENDMDL
