@<TRIPOS>MOLECULE
/home/cewinharhar/GITHUB/reincatalyze/data/processed/docking_pred/2023-May-31-1727_sub9_nm5_bs15_s42_ex16_mel10_mts10000_k50_ec075_g099_lra3e-4_lrc3e-3/bb509c9d750c31c787a0dfaad7ceec12964b61ea_ligand_9.pdbqt
 14 15 0 0 0
SMALL
GASTEIGER

@<TRIPOS>ATOM
      1  C          5.9100    1.4960   -0.1870 C.3     1  UNL1        0.0800
      2  C          5.1800    1.3940    1.0900 C.2     1  UNL1        0.1300
      3  C          5.5850    0.2330    1.9800 C.3     1  UNL1        0.0870
      4  O          4.3140    2.1140    1.5010 O.2     1  UNL1       -0.3000
      5  C          7.3160    1.0410   -0.1700 C.3     1  UNL1        0.0430
      6  C          7.6090   -0.2550   -0.7890 C.2     1  UNL1       -0.0440
      7  C          7.6240   -0.4320   -2.1740 C.2     1  UNL1        0.0080
      8  C          7.9100   -1.3420   -0.0010 C.2     1  UNL1        0.0540
      9  C          7.9320   -1.6660   -2.6840 C.2     1  UNL1        0.0510
     10  C          8.2230   -2.5940   -0.5510 C.2     1  UNL1        0.1660
     11  C          8.2360   -2.7690   -1.9170 C.2     1  UNL1        0.1650
     12  O          8.5570   -3.8330   -0.0180 O.2     1  UNL1       -0.4540
     13  O          8.5760   -4.0990   -2.1970 O.2     1  UNL1       -0.4540
     14  C          9.2190   -4.5730   -1.0330 C.3     1  UNL1        0.4680
@<TRIPOS>BOND
     1     9     7    1
     2     9    11    2
     3    13    11    1
     4    13    14    1
     5     7     6    2
     6    11    10    1
     7    14    12    1
     8     6     5    1
     9     6     8    1
    10    10    12    1
    11    10     8    2
    12     1     5    1
    13     1     2    1
    14     2     4    2
    15     2     3    1
