@<TRIPOS>MOLECULE
/home/cewinharhar/GITHUB/reincatalyze/data/processed/docking_pred/2023-May-31-1727_sub9_nm5_bs15_s42_ex16_mel10_mts10000_k50_ec075_g099_lra3e-4_lrc3e-3/bb509c9d750c31c787a0dfaad7ceec12964b61ea_ligand_9.pdbqt
 14 15 0 0 0
SMALL
GASTEIGER

@<TRIPOS>ATOM
      1  C          5.3510   -0.0480    1.9810 C.3     1  UNL1        0.0800
      2  C          4.4110    1.0830    1.8770 C.2     1  UNL1        0.1300
      3  C          4.7520    2.1170    0.8180 C.3     1  UNL1        0.0870
      4  O          3.4210    1.2780    2.5240 O.2     1  UNL1       -0.3000
      5  C          6.7790    0.2710    1.7730 C.3     1  UNL1        0.0430
      6  C          7.3420   -0.0090    0.4490 C.2     1  UNL1       -0.0440
      7  C          7.9440    0.9820   -0.3280 C.2     1  UNL1        0.0080
      8  C          7.3140   -1.2890   -0.0540 C.2     1  UNL1        0.0540
      9  C          8.4750    0.6430   -1.5460 C.2     1  UNL1        0.0510
     10  C          7.8660   -1.6080   -1.3050 C.2     1  UNL1        0.1660
     11  C          8.4590   -0.6290   -2.0720 C.2     1  UNL1        0.1650
     12  O          7.9790   -2.7770   -2.0470 O.2     1  UNL1       -0.4540
     13  O          8.9230   -1.2090   -3.2600 O.2     1  UNL1       -0.4540
     14  C          9.0290   -2.5900   -2.9850 C.3     1  UNL1        0.4680
@<TRIPOS>BOND
     1    13    14    1
     2    13    11    1
     3    14    12    1
     4    11     9    2
     5    11    10    1
     6    12    10    1
     7     9     7    1
     8    10     8    2
     9     7     6    2
    10     8     6    1
    11     6     5    1
    12     3     2    1
    13     5     1    1
    14     2     1    1
    15     2     4    2
