@<TRIPOS>MOLECULE
/home/cewinharhar/GITHUB/reincatalyze/data/processed/docking_pred/2023-May-31-1727_sub9_nm5_bs15_s42_ex16_mel10_mts10000_k50_ec075_g099_lra3e-4_lrc3e-3/bb509c9d750c31c787a0dfaad7ceec12964b61ea_ligand_9.pdbqt
 14 15 0 0 0
SMALL
GASTEIGER

@<TRIPOS>ATOM
      1  C          5.8140    1.7900    1.3250 C.3     1  UNL1        0.0800
      2  C          5.2040    0.6540    2.0400 C.2     1  UNL1        0.1300
      3  C          6.1060   -0.5540    2.2300 C.3     1  UNL1        0.0870
      4  O          4.0940    0.5740    2.4830 O.2     1  UNL1       -0.3000
      5  C          5.7780    1.7250   -0.1510 C.3     1  UNL1        0.0430
      6  C          6.8270    0.9440   -0.8130 C.2     1  UNL1       -0.0440
      7  C          8.1750    1.2980   -0.7420 C.2     1  UNL1        0.0080
      8  C          6.5000   -0.1950   -1.5110 C.2     1  UNL1        0.0540
      9  C          9.1060    0.5060   -1.3630 C.2     1  UNL1        0.0510
     10  C          7.4740   -0.9880   -2.1380 C.2     1  UNL1        0.1660
     11  C          8.8050   -0.6380   -2.0680 C.2     1  UNL1        0.1650
     12  O          7.4400   -2.1560   -2.8890 O.2     1  UNL1       -0.4540
     13  O          9.5580   -1.5880   -2.7700 O.2     1  UNL1       -0.4540
     14  C          8.7360   -2.7350   -2.8440 C.3     1  UNL1        0.4680
@<TRIPOS>BOND
     1    12    14    1
     2    12    10    1
     3    14    13    1
     4    13    11    1
     5    10    11    2
     6    10     8    1
     7    11     9    1
     8     8     6    2
     9     9     7    2
    10     6     7    1
    11     6     5    1
    12     5     1    1
    13     1     2    1
    14     2     3    1
    15     2     4    2
