@<TRIPOS>MOLECULE
/home/cewinharhar/GITHUB/reincatalyze/data/processed/docking_pred/2023-May-31-1727_sub9_nm5_bs15_s42_ex16_mel10_mts10000_k50_ec075_g099_lra3e-4_lrc3e-3/bb509c9d750c31c787a0dfaad7ceec12964b61ea_ligand_9.pdbqt
 14 15 0 0 0
SMALL
GASTEIGER

@<TRIPOS>ATOM
      1  C          6.2050    1.2250    0.8890 C.3     1  UNL1        0.0800
      2  C          5.5440    0.4070    1.9220 C.2     1  UNL1        0.1300
      3  C          6.3240   -0.8120    2.3840 C.3     1  UNL1        0.0870
      4  O          4.4760    0.5910    2.4340 O.2     1  UNL1       -0.3000
      5  C          5.8680    0.9000   -0.5130 C.3     1  UNL1        0.0430
      6  C          6.8530    0.1320   -1.2790 C.2     1  UNL1       -0.0440
      7  C          7.8220    0.7470   -2.0730 C.2     1  UNL1        0.0080
      8  C          6.8620   -1.2420   -1.2070 C.2     1  UNL1        0.0540
      9  C          8.7300   -0.0330   -2.7410 C.2     1  UNL1        0.0510
     10  C          7.8040   -2.0160   -1.9010 C.2     1  UNL1        0.1660
     11  C          8.7590   -1.4080   -2.6860 C.2     1  UNL1        0.1650
     12  O          8.0480   -3.3790   -2.0140 O.2     1  UNL1       -0.4540
     13  O          9.5660   -2.3990   -3.2610 O.2     1  UNL1       -0.4540
     14  C          9.3900   -3.5420   -2.4500 C.3     1  UNL1        0.4680
@<TRIPOS>BOND
     1    13    11    1
     2    13    14    1
     3     9    11    2
     4     9     7    1
     5    11    10    1
     6    14    12    1
     7     7     6    2
     8    12    10    1
     9    10     8    2
    10     6     8    1
    11     6     5    1
    12     5     1    1
    13     1     2    1
    14     2     3    1
    15     2     4    2
