@<TRIPOS>MOLECULE
/home/cewinharhar/GITHUB/reincatalyze/data/processed/docking_pred/2023-May-31-1727_sub9_nm5_bs15_s42_ex16_mel10_mts10000_k50_ec075_g099_lra3e-4_lrc3e-3/bb509c9d750c31c787a0dfaad7ceec12964b61ea_ligand_9.pdbqt
 14 15 0 0 0
SMALL
GASTEIGER

@<TRIPOS>ATOM
      1  C          5.7530    0.2680    1.8270 C.3     1  UNL1        0.0800
      2  C          4.8570    1.3600    1.4050 C.2     1  UNL1        0.1300
      3  C          5.2810    2.1000    0.1480 C.3     1  UNL1        0.0870
      4  O          3.8450    1.7250    1.9320 O.2     1  UNL1       -0.3000
      5  C          7.1240    0.3020    1.2760 C.3     1  UNL1        0.0430
      6  C          7.4730   -0.7170    0.2820 C.2     1  UNL1       -0.0440
      7  C          7.4060   -0.4700   -1.0900 C.2     1  UNL1        0.0080
      8  C          7.9100   -1.9560    0.6890 C.2     1  UNL1        0.0540
      9  C          7.7730   -1.4610   -1.9640 C.2     1  UNL1        0.0510
     10  C          8.2800   -2.9520   -0.2270 C.2     1  UNL1        0.1660
     11  C          8.2130   -2.7090   -1.5810 C.2     1  UNL1        0.1650
     12  O          8.7440   -4.2560   -0.1100 O.2     1  UNL1       -0.4540
     13  O          8.6340   -3.8560   -2.2660 O.2     1  UNL1       -0.4540
     14  C          9.3910   -4.5940   -1.3280 C.3     1  UNL1        0.4680
@<TRIPOS>BOND
     1    13    11    1
     2    13    14    1
     3     9    11    2
     4     9     7    1
     5    11    10    1
     6    14    12    1
     7     7     6    2
     8    10    12    1
     9    10     8    2
    10     3     2    1
    11     6     8    1
    12     6     5    1
    13     5     1    1
    14     2     1    1
    15     2     4    2
