MODEL 1
REMARK VINA RESULT:      -7.6      0.000      0.000
REMARK SMILES CC(=O)CCc1ccc2c(c1)OCO2
REMARK SMILES IDX 4 1 2 2 1 3 3 4 5 5 6 6 7 7 11 8 8 9 10 10 9 11 12 12 14 13
REMARK SMILES IDX 13 14
REMARK H PARENT
REMARK Flexibility Score: inf
ROOT
ATOM      1  C   UNL     1       5.814   1.790   1.325  1.00  0.00     0.080 C 
ENDROOT
BRANCH   1   2
ATOM      2  C   UNL     1       5.204   0.654   2.040  1.00  0.00     0.130 C 
ATOM      3  C   UNL     1       6.106  -0.554   2.230  1.00  0.00     0.087 C 
ATOM      4  O   UNL     1       4.094   0.574   2.483  1.00  0.00    -0.300 OA
ENDBRANCH   1   2
BRANCH   1   5
ATOM      5  C   UNL     1       5.778   1.725  -0.151  1.00  0.00     0.043 C 
BRANCH   5   6
ATOM      6  C   UNL     1       6.827   0.944  -0.813  1.00  0.00    -0.044 A 
ATOM      7  C   UNL     1       8.175   1.298  -0.742  1.00  0.00     0.008 A 
ATOM      8  C   UNL     1       6.500  -0.195  -1.511  1.00  0.00     0.054 A 
ATOM      9  C   UNL     1       9.106   0.506  -1.363  1.00  0.00     0.051 A 
ATOM     10  C   UNL     1       7.474  -0.988  -2.138  1.00  0.00     0.166 A 
ATOM     11  C   UNL     1       8.805  -0.638  -2.068  1.00  0.00     0.165 A 
ATOM     12  O   UNL     1       7.440  -2.156  -2.889  1.00  0.00    -0.454 OA
ATOM     13  O   UNL     1       9.558  -1.588  -2.770  1.00  0.00    -0.454 OA
ATOM     14  C   UNL     1       8.736  -2.735  -2.844  1.00  0.00     0.468 C 
ENDBRANCH   5   6
ENDBRANCH   1   5
TORSDOF 3
ENDMDL
MODEL 2
REMARK VINA RESULT:      -7.0      1.781      2.223
REMARK SMILES CC(=O)CCc1ccc2c(c1)OCO2
REMARK SMILES IDX 4 1 2 2 1 3 3 4 5 5 6 6 7 7 11 8 8 9 10 10 9 11 12 12 14 13
REMARK SMILES IDX 13 14
REMARK H PARENT
REMARK Flexibility Score: inf
ROOT
ATOM      1  C   UNL     1       5.910   1.496  -0.187  1.00  0.00     0.080 C 
ENDROOT
BRANCH   1   2
ATOM      2  C   UNL     1       5.180   1.394   1.090  1.00  0.00     0.130 C 
ATOM      3  C   UNL     1       5.585   0.233   1.980  1.00  0.00     0.087 C 
ATOM      4  O   UNL     1       4.314   2.114   1.501  1.00  0.00    -0.300 OA
ENDBRANCH   1   2
BRANCH   1   5
ATOM      5  C   UNL     1       7.316   1.041  -0.170  1.00  0.00     0.043 C 
BRANCH   5   6
ATOM      6  C   UNL     1       7.609  -0.255  -0.789  1.00  0.00    -0.044 A 
ATOM      7  C   UNL     1       7.624  -0.432  -2.174  1.00  0.00     0.008 A 
ATOM      8  C   UNL     1       7.910  -1.342  -0.001  1.00  0.00     0.054 A 
ATOM      9  C   UNL     1       7.932  -1.666  -2.684  1.00  0.00     0.051 A 
ATOM     10  C   UNL     1       8.223  -2.594  -0.551  1.00  0.00     0.166 A 
ATOM     11  C   UNL     1       8.236  -2.769  -1.917  1.00  0.00     0.165 A 
ATOM     12  O   UNL     1       8.557  -3.833  -0.018  1.00  0.00    -0.454 OA
ATOM     13  O   UNL     1       8.576  -4.099  -2.197  1.00  0.00    -0.454 OA
ATOM     14  C   UNL     1       9.219  -4.573  -1.033  1.00  0.00     0.468 C 
ENDBRANCH   5   6
ENDBRANCH   1   5
TORSDOF 3
ENDMDL
MODEL 3
REMARK VINA RESULT:      -6.9      1.012      1.057
REMARK SMILES CC(=O)CCc1ccc2c(c1)OCO2
REMARK SMILES IDX 4 1 2 2 1 3 3 4 5 5 6 6 7 7 11 8 8 9 10 10 9 11 12 12 14 13
REMARK SMILES IDX 13 14
REMARK H PARENT
REMARK Flexibility Score: inf
ROOT
ATOM      1  C   UNL     1       6.205   1.225   0.889  1.00  0.00     0.080 C 
ENDROOT
BRANCH   1   2
ATOM      2  C   UNL     1       5.544   0.407   1.922  1.00  0.00     0.130 C 
ATOM      3  C   UNL     1       6.324  -0.812   2.384  1.00  0.00     0.087 C 
ATOM      4  O   UNL     1       4.476   0.591   2.434  1.00  0.00    -0.300 OA
ENDBRANCH   1   2
BRANCH   1   5
ATOM      5  C   UNL     1       5.868   0.900  -0.513  1.00  0.00     0.043 C 
BRANCH   5   6
ATOM      6  C   UNL     1       6.853   0.132  -1.279  1.00  0.00    -0.044 A 
ATOM      7  C   UNL     1       7.822   0.747  -2.073  1.00  0.00     0.008 A 
ATOM      8  C   UNL     1       6.862  -1.242  -1.207  1.00  0.00     0.054 A 
ATOM      9  C   UNL     1       8.730  -0.033  -2.741  1.00  0.00     0.051 A 
ATOM     10  C   UNL     1       7.804  -2.016  -1.901  1.00  0.00     0.166 A 
ATOM     11  C   UNL     1       8.759  -1.408  -2.686  1.00  0.00     0.165 A 
ATOM     12  O   UNL     1       8.048  -3.379  -2.014  1.00  0.00    -0.454 OA
ATOM     13  O   UNL     1       9.566  -2.399  -3.261  1.00  0.00    -0.454 OA
ATOM     14  C   UNL     1       9.390  -3.542  -2.450  1.00  0.00     0.468 C 
ENDBRANCH   5   6
ENDBRANCH   1   5
TORSDOF 3
ENDMDL
MODEL 4
REMARK VINA RESULT:      -6.7      1.080      1.576
REMARK SMILES CC(=O)CCc1ccc2c(c1)OCO2
REMARK SMILES IDX 4 1 2 2 1 3 3 4 5 5 6 6 7 7 11 8 8 9 10 10 9 11 12 12 14 13
REMARK SMILES IDX 13 14
REMARK H PARENT
REMARK Flexibility Score: inf
ROOT
ATOM      1  C   UNL     1       5.351  -0.048   1.981  1.00  0.00     0.080 C 
ENDROOT
BRANCH   1   2
ATOM      2  C   UNL     1       4.411   1.083   1.877  1.00  0.00     0.130 C 
ATOM      3  C   UNL     1       4.752   2.117   0.818  1.00  0.00     0.087 C 
ATOM      4  O   UNL     1       3.421   1.278   2.524  1.00  0.00    -0.300 OA
ENDBRANCH   1   2
BRANCH   1   5
ATOM      5  C   UNL     1       6.779   0.271   1.773  1.00  0.00     0.043 C 
BRANCH   5   6
ATOM      6  C   UNL     1       7.342  -0.009   0.449  1.00  0.00    -0.044 A 
ATOM      7  C   UNL     1       7.944   0.982  -0.328  1.00  0.00     0.008 A 
ATOM      8  C   UNL     1       7.314  -1.289  -0.054  1.00  0.00     0.054 A 
ATOM      9  C   UNL     1       8.475   0.643  -1.546  1.00  0.00     0.051 A 
ATOM     10  C   UNL     1       7.866  -1.608  -1.305  1.00  0.00     0.166 A 
ATOM     11  C   UNL     1       8.459  -0.629  -2.072  1.00  0.00     0.165 A 
ATOM     12  O   UNL     1       7.979  -2.777  -2.047  1.00  0.00    -0.454 OA
ATOM     13  O   UNL     1       8.923  -1.209  -3.260  1.00  0.00    -0.454 OA
ATOM     14  C   UNL     1       9.029  -2.590  -2.985  1.00  0.00     0.468 C 
ENDBRANCH   5   6
ENDBRANCH   1   5
TORSDOF 3
ENDMDL
MODEL 5
REMARK VINA RESULT:      -6.6      1.954      2.488
REMARK SMILES CC(=O)CCc1ccc2c(c1)OCO2
REMARK SMILES IDX 4 1 2 2 1 3 3 4 5 5 6 6 7 7 11 8 8 9 10 10 9 11 12 12 14 13
REMARK SMILES IDX 13 14
REMARK H PARENT
REMARK Flexibility Score: inf
ROOT
ATOM      1  C   UNL     1       5.753   0.268   1.827  1.00  0.00     0.080 C 
ENDROOT
BRANCH   1   2
ATOM      2  C   UNL     1       4.857   1.360   1.405  1.00  0.00     0.130 C 
ATOM      3  C   UNL     1       5.281   2.100   0.148  1.00  0.00     0.087 C 
ATOM      4  O   UNL     1       3.845   1.725   1.932  1.00  0.00    -0.300 OA
ENDBRANCH   1   2
BRANCH   1   5
ATOM      5  C   UNL     1       7.124   0.302   1.276  1.00  0.00     0.043 C 
BRANCH   5   6
ATOM      6  C   UNL     1       7.473  -0.717   0.282  1.00  0.00    -0.044 A 
ATOM      7  C   UNL     1       7.406  -0.470  -1.090  1.00  0.00     0.008 A 
ATOM      8  C   UNL     1       7.910  -1.956   0.689  1.00  0.00     0.054 A 
ATOM      9  C   UNL     1       7.773  -1.461  -1.964  1.00  0.00     0.051 A 
ATOM     10  C   UNL     1       8.280  -2.952  -0.227  1.00  0.00     0.166 A 
ATOM     11  C   UNL     1       8.213  -2.709  -1.581  1.00  0.00     0.165 A 
ATOM     12  O   UNL     1       8.744  -4.256  -0.110  1.00  0.00    -0.454 OA
ATOM     13  O   UNL     1       8.634  -3.856  -2.266  1.00  0.00    -0.454 OA
ATOM     14  C   UNL     1       9.391  -4.594  -1.328  1.00  0.00     0.468 C 
ENDBRANCH   5   6
ENDBRANCH   1   5
TORSDOF 3
ENDMDL
