MODEL 1
REMARK VINA RESULT:      -7.6      0.000      0.000
REMARK SMILES CC(=O)CCc1ccc2c(c1)OCO2
REMARK SMILES IDX 4 1 2 2 1 3 3 4 5 5 6 6 7 7 11 8 8 9 10 10 9 11 12 12 14 13
REMARK SMILES IDX 13 14
REMARK H PARENT
REMARK Flexibility Score: inf
ROOT
ATOM      1  C   UNL     1       5.593   1.868   1.241  1.00  0.00     0.080 C 
ENDROOT
BRANCH   1   2
ATOM      2  C   UNL     1       5.023   0.742   2.002  1.00  0.00     0.130 C 
ATOM      3  C   UNL     1       5.928  -0.471   2.143  1.00  0.00     0.087 C 
ATOM      4  O   UNL     1       3.943   0.673   2.517  1.00  0.00    -0.300 OA
ENDBRANCH   1   2
BRANCH   1   5
ATOM      5  C   UNL     1       5.574   1.734  -0.231  1.00  0.00     0.043 C 
BRANCH   5   6
ATOM      6  C   UNL     1       6.670   0.984  -0.850  1.00  0.00    -0.044 A 
ATOM      7  C   UNL     1       8.007   1.358  -0.698  1.00  0.00     0.008 A 
ATOM      8  C   UNL     1       6.402  -0.145  -1.588  1.00  0.00     0.054 A 
ATOM      9  C   UNL     1       8.983   0.594  -1.282  1.00  0.00     0.051 A 
ATOM     10  C   UNL     1       7.422  -0.909  -2.175  1.00  0.00     0.166 A 
ATOM     11  C   UNL     1       8.740  -0.540  -2.025  1.00  0.00     0.165 A 
ATOM     12  O   UNL     1       7.449  -2.062  -2.950  1.00  0.00    -0.454 OA
ATOM     13  O   UNL     1       9.546  -1.463  -2.704  1.00  0.00    -0.454 OA
ATOM     14  C   UNL     1       8.750  -2.621  -2.845  1.00  0.00     0.468 C 
ENDBRANCH   5   6
ENDBRANCH   1   5
TORSDOF 3
ENDMDL
MODEL 2
REMARK VINA RESULT:      -7.0      1.799      2.268
REMARK SMILES CC(=O)CCc1ccc2c(c1)OCO2
REMARK SMILES IDX 4 1 2 2 1 3 3 4 5 5 6 6 7 7 11 8 8 9 10 10 9 11 12 12 14 13
REMARK SMILES IDX 13 14
REMARK H PARENT
REMARK Flexibility Score: inf
ROOT
ATOM      1  C   UNL     1       5.972   1.610  -0.294  1.00  0.00     0.080 C 
ENDROOT
BRANCH   1   2
ATOM      2  C   UNL     1       5.260   1.502   0.992  1.00  0.00     0.130 C 
ATOM      3  C   UNL     1       5.786   0.436   1.939  1.00  0.00     0.087 C 
ATOM      4  O   UNL     1       4.327   2.150   1.373  1.00  0.00    -0.300 OA
ENDBRANCH   1   2
BRANCH   1   5
ATOM      5  C   UNL     1       7.377   1.152  -0.301  1.00  0.00     0.043 C 
BRANCH   5   6
ATOM      6  C   UNL     1       7.651  -0.161  -0.891  1.00  0.00    -0.044 A 
ATOM      7  C   UNL     1       7.690  -0.363  -2.272  1.00  0.00     0.008 A 
ATOM      8  C   UNL     1       7.909  -1.240  -0.078  1.00  0.00     0.054 A 
ATOM      9  C   UNL     1       7.980  -1.613  -2.754  1.00  0.00     0.051 A 
ATOM     10  C   UNL     1       8.203  -2.510  -0.600  1.00  0.00     0.166 A 
ATOM     11  C   UNL     1       8.241  -2.709  -1.962  1.00  0.00     0.165 A 
ATOM     12  O   UNL     1       8.496  -3.747  -0.039  1.00  0.00    -0.454 OA
ATOM     13  O   UNL     1       8.554  -4.051  -2.212  1.00  0.00    -0.454 OA
ATOM     14  C   UNL     1       9.161  -4.520  -1.026  1.00  0.00     0.468 C 
ENDBRANCH   5   6
ENDBRANCH   1   5
TORSDOF 3
ENDMDL
MODEL 3
REMARK VINA RESULT:      -6.9      1.057      1.134
REMARK SMILES CC(=O)CCc1ccc2c(c1)OCO2
REMARK SMILES IDX 4 1 2 2 1 3 3 4 5 5 6 6 7 7 11 8 8 9 10 10 9 11 12 12 14 13
REMARK SMILES IDX 13 14
REMARK H PARENT
REMARK Flexibility Score: inf
ROOT
ATOM      1  C   UNL     1       6.179   1.236   0.870  1.00  0.00     0.080 C 
ENDROOT
BRANCH   1   2
ATOM      2  C   UNL     1       5.526   0.415   1.906  1.00  0.00     0.130 C 
ATOM      3  C   UNL     1       6.333  -0.774   2.398  1.00  0.00     0.087 C 
ATOM      4  O   UNL     1       4.445   0.576   2.398  1.00  0.00    -0.300 OA
ENDBRANCH   1   2
BRANCH   1   5
ATOM      5  C   UNL     1       5.850   0.900  -0.531  1.00  0.00     0.043 C 
BRANCH   5   6
ATOM      6  C   UNL     1       6.844   0.136  -1.289  1.00  0.00    -0.044 A 
ATOM      7  C   UNL     1       7.825   0.755  -2.065  1.00  0.00     0.008 A 
ATOM      8  C   UNL     1       6.848  -1.238  -1.228  1.00  0.00     0.054 A 
ATOM      9  C   UNL     1       8.741  -0.022  -2.726  1.00  0.00     0.051 A 
ATOM     10  C   UNL     1       7.798  -2.010  -1.915  1.00  0.00     0.166 A 
ATOM     11  C   UNL     1       8.766  -1.399  -2.681  1.00  0.00     0.165 A 
ATOM     12  O   UNL     1       8.040  -3.373  -2.035  1.00  0.00    -0.454 OA
ATOM     13  O   UNL     1       9.578  -2.387  -3.253  1.00  0.00    -0.454 OA
ATOM     14  C   UNL     1       9.387  -3.535  -2.453  1.00  0.00     0.468 C 
ENDBRANCH   5   6
ENDBRANCH   1   5
TORSDOF 3
ENDMDL
MODEL 4
REMARK VINA RESULT:      -6.7      1.099      1.593
REMARK SMILES CC(=O)CCc1ccc2c(c1)OCO2
REMARK SMILES IDX 4 1 2 2 1 3 3 4 5 5 6 6 7 7 11 8 8 9 10 10 9 11 12 12 14 13
REMARK SMILES IDX 13 14
REMARK H PARENT
REMARK Flexibility Score: inf
ROOT
ATOM      1  C   UNL     1       5.335  -0.022   1.989  1.00  0.00     0.080 C 
ENDROOT
BRANCH   1   2
ATOM      2  C   UNL     1       4.388   1.101   1.869  1.00  0.00     0.130 C 
ATOM      3  C   UNL     1       4.733   2.132   0.807  1.00  0.00     0.087 C 
ATOM      4  O   UNL     1       3.390   1.293   2.504  1.00  0.00    -0.300 OA
ENDBRANCH   1   2
BRANCH   1   5
ATOM      5  C   UNL     1       6.760   0.300   1.762  1.00  0.00     0.043 C 
BRANCH   5   6
ATOM      6  C   UNL     1       7.312  -0.000   0.438  1.00  0.00    -0.044 A 
ATOM      7  C   UNL     1       7.870   0.987  -0.377  1.00  0.00     0.008 A 
ATOM      8  C   UNL     1       7.317  -1.294  -0.029  1.00  0.00     0.054 A 
ATOM      9  C   UNL     1       8.393   0.630  -1.592  1.00  0.00     0.051 A 
ATOM     10  C   UNL     1       7.859  -1.631  -1.278  1.00  0.00     0.166 A 
ATOM     11  C   UNL     1       8.410  -0.657  -2.082  1.00  0.00     0.165 A 
ATOM     12  O   UNL     1       7.999  -2.817  -1.989  1.00  0.00    -0.454 OA
ATOM     13  O   UNL     1       8.874  -1.256  -3.261  1.00  0.00    -0.454 OA
ATOM     14  C   UNL     1       9.028  -2.625  -2.948  1.00  0.00     0.468 C 
ENDBRANCH   5   6
ENDBRANCH   1   5
TORSDOF 3
ENDMDL
MODEL 5
REMARK VINA RESULT:      -6.7      1.961      2.478
REMARK SMILES CC(=O)CCc1ccc2c(c1)OCO2
REMARK SMILES IDX 4 1 2 2 1 3 3 4 5 5 6 6 7 7 11 8 8 9 10 10 9 11 12 12 14 13
REMARK SMILES IDX 13 14
REMARK H PARENT
REMARK Flexibility Score: inf
ROOT
ATOM      1  C   UNL     1       5.729   0.132   1.845  1.00  0.00     0.080 C 
ENDROOT
BRANCH   1   2
ATOM      2  C   UNL     1       4.704   1.166   1.611  1.00  0.00     0.130 C 
ATOM      3  C   UNL     1       4.967   2.087   0.432  1.00  0.00     0.087 C 
ATOM      4  O   UNL     1       3.701   1.361   2.236  1.00  0.00    -0.300 OA
ENDBRANCH   1   2
BRANCH   1   5
ATOM      5  C   UNL     1       7.019   0.325   1.148  1.00  0.00     0.043 C 
BRANCH   5   6
ATOM      6  C   UNL     1       7.413  -0.696   0.174  1.00  0.00    -0.044 A 
ATOM      7  C   UNL     1       7.399  -0.457  -1.201  1.00  0.00     0.008 A 
ATOM      8  C   UNL     1       7.842  -1.930   0.605  1.00  0.00     0.054 A 
ATOM      9  C   UNL     1       7.807  -1.450  -2.054  1.00  0.00     0.051 A 
ATOM     10  C   UNL     1       8.255  -2.928  -0.291  1.00  0.00     0.166 A 
ATOM     11  C   UNL     1       8.240  -2.692  -1.648  1.00  0.00     0.165 A 
ATOM     12  O   UNL     1       8.723  -4.228  -0.148  1.00  0.00    -0.454 OA
ATOM     13  O   UNL     1       8.696  -3.840  -2.309  1.00  0.00    -0.454 OA
ATOM     14  C   UNL     1       9.420  -4.567  -1.339  1.00  0.00     0.468 C 
ENDBRANCH   5   6
ENDBRANCH   1   5
TORSDOF 3
ENDMDL
