@<TRIPOS>MOLECULE
/home/cewinharhar/GITHUB/reincatalyze/data/processed/docking_pred/2023-May-31-1727_sub9_nm5_bs15_s42_ex16_mel10_mts10000_k50_ec075_g099_lra3e-4_lrc3e-3/bb8285001221c2ec88d34c7e342a921234d5c761_ligand_9.pdbqt
 14 15 0 0 0
SMALL
GASTEIGER

@<TRIPOS>ATOM
      1  C          5.9720    1.6100   -0.2940 C.3     1  UNL1        0.0800
      2  C          5.2600    1.5020    0.9920 C.2     1  UNL1        0.1300
      3  C          5.7860    0.4360    1.9390 C.3     1  UNL1        0.0870
      4  O          4.3270    2.1500    1.3730 O.2     1  UNL1       -0.3000
      5  C          7.3770    1.1520   -0.3010 C.3     1  UNL1        0.0430
      6  C          7.6510   -0.1610   -0.8910 C.2     1  UNL1       -0.0440
      7  C          7.6900   -0.3630   -2.2720 C.2     1  UNL1        0.0080
      8  C          7.9090   -1.2400   -0.0780 C.2     1  UNL1        0.0540
      9  C          7.9800   -1.6130   -2.7540 C.2     1  UNL1        0.0510
     10  C          8.2030   -2.5100   -0.6000 C.2     1  UNL1        0.1660
     11  C          8.2410   -2.7090   -1.9620 C.2     1  UNL1        0.1650
     12  O          8.4960   -3.7470   -0.0390 O.2     1  UNL1       -0.4540
     13  O          8.5540   -4.0510   -2.2120 O.2     1  UNL1       -0.4540
     14  C          9.1610   -4.5200   -1.0260 C.3     1  UNL1        0.4680
@<TRIPOS>BOND
     1     9     7    1
     2     9    11    2
     3     7     6    2
     4    13    11    1
     5    13    14    1
     6    11    10    1
     7    14    12    1
     8     6     5    1
     9     6     8    1
    10    10     8    2
    11    10    12    1
    12     5     1    1
    13     1     2    1
    14     2     4    2
    15     2     3    1
