@<TRIPOS>MOLECULE
/home/cewinharhar/GITHUB/reincatalyze/data/processed/docking_pred/2023-May-31-1727_sub9_nm5_bs15_s42_ex16_mel10_mts10000_k50_ec075_g099_lra3e-4_lrc3e-3/bb8285001221c2ec88d34c7e342a921234d5c761_ligand_9.pdbqt
 14 15 0 0 0
SMALL
GASTEIGER

@<TRIPOS>ATOM
      1  C          5.7290    0.1320    1.8450 C.3     1  UNL1        0.0800
      2  C          4.7040    1.1660    1.6110 C.2     1  UNL1        0.1300
      3  C          4.9670    2.0870    0.4320 C.3     1  UNL1        0.0870
      4  O          3.7010    1.3610    2.2360 O.2     1  UNL1       -0.3000
      5  C          7.0190    0.3250    1.1480 C.3     1  UNL1        0.0430
      6  C          7.4130   -0.6960    0.1740 C.2     1  UNL1       -0.0440
      7  C          7.3990   -0.4570   -1.2010 C.2     1  UNL1        0.0080
      8  C          7.8420   -1.9300    0.6050 C.2     1  UNL1        0.0540
      9  C          7.8070   -1.4500   -2.0540 C.2     1  UNL1        0.0510
     10  C          8.2550   -2.9280   -0.2910 C.2     1  UNL1        0.1660
     11  C          8.2400   -2.6920   -1.6480 C.2     1  UNL1        0.1650
     12  O          8.7230   -4.2280   -0.1480 O.2     1  UNL1       -0.4540
     13  O          8.6960   -3.8400   -2.3090 O.2     1  UNL1       -0.4540
     14  C          9.4200   -4.5670   -1.3390 C.3     1  UNL1        0.4680
@<TRIPOS>BOND
     1    13    11    1
     2    13    14    1
     3     9    11    2
     4     9     7    1
     5    11    10    1
     6    14    12    1
     7     7     6    2
     8    10    12    1
     9    10     8    2
    10     6     8    1
    11     6     5    1
    12     3     2    1
    13     5     1    1
    14     2     1    1
    15     2     4    2
