@<TRIPOS>MOLECULE
/home/cewinharhar/GITHUB/reincatalyze/data/processed/docking_pred/2023-May-31-1727_sub9_nm5_bs15_s42_ex16_mel10_mts10000_k50_ec075_g099_lra3e-4_lrc3e-3/bde4f716ac8ce10fa2b7126593b1b8cc9fcb83f2_ligand_9.pdbqt
 14 15 0 0 0
SMALL
GASTEIGER

@<TRIPOS>ATOM
      1  C          5.9120    1.5060    1.1460 C.3     1  UNL1        0.0800
      2  C          5.3210    0.4660    2.0070 C.2     1  UNL1        0.1300
      3  C          6.2120   -0.7330    2.2820 C.3     1  UNL1        0.0870
      4  O          4.2330    0.4570    2.5080 O.2     1  UNL1       -0.3000
      5  C          5.7760    1.3010   -0.3110 C.3     1  UNL1        0.0430
      6  C          6.8600    0.5880   -0.9920 C.2     1  UNL1       -0.0440
      7  C          8.1620    1.0890   -1.0460 C.2     1  UNL1        0.0080
      8  C          6.6180   -0.6320   -1.5800 C.2     1  UNL1        0.0540
      9  C          9.1330    0.3550   -1.6760 C.2     1  UNL1        0.0510
     10  C          7.6320   -1.3630   -2.2190 C.2     1  UNL1        0.1660
     11  C          8.9160   -0.8680   -2.2730 C.2     1  UNL1        0.1650
     12  O          7.6800   -2.5840   -2.8800 O.2     1  UNL1       -0.4540
     13  O          9.7230   -1.7840   -2.9600 O.2     1  UNL1       -0.4540
     14  C          9.0330   -3.0150   -2.8900 C.3     1  UNL1        0.4680
@<TRIPOS>BOND
     1    13    14    1
     2    13    11    1
     3    14    12    1
     4    12    10    1
     5    11    10    2
     6    11     9    1
     7    10     8    1
     8     9     7    2
     9     8     6    2
    10     7     6    1
    11     6     5    1
    12     5     1    1
    13     1     2    1
    14     2     3    1
    15     2     4    2
