MODEL 1
REMARK VINA RESULT:      -7.5      0.000      0.000
REMARK SMILES CC(=O)CCc1ccc2c(c1)OCO2
REMARK SMILES IDX 4 1 2 2 1 3 3 4 5 5 6 6 7 7 11 8 8 9 10 10 9 11 12 12 14 13
REMARK SMILES IDX 13 14
REMARK H PARENT
REMARK Flexibility Score: inf
ROOT
ATOM      1  C   UNL     1       5.912   1.506   1.146  1.00  0.00     0.080 C 
ENDROOT
BRANCH   1   2
ATOM      2  C   UNL     1       5.321   0.466   2.007  1.00  0.00     0.130 C 
ATOM      3  C   UNL     1       6.212  -0.733   2.282  1.00  0.00     0.087 C 
ATOM      4  O   UNL     1       4.233   0.457   2.508  1.00  0.00    -0.300 OA
ENDBRANCH   1   2
BRANCH   1   5
ATOM      5  C   UNL     1       5.776   1.301  -0.311  1.00  0.00     0.043 C 
BRANCH   5   6
ATOM      6  C   UNL     1       6.860   0.588  -0.992  1.00  0.00    -0.044 A 
ATOM      7  C   UNL     1       8.162   1.089  -1.046  1.00  0.00     0.008 A 
ATOM      8  C   UNL     1       6.618  -0.632  -1.580  1.00  0.00     0.054 A 
ATOM      9  C   UNL     1       9.133   0.355  -1.676  1.00  0.00     0.051 A 
ATOM     10  C   UNL     1       7.632  -1.363  -2.219  1.00  0.00     0.166 A 
ATOM     11  C   UNL     1       8.916  -0.868  -2.273  1.00  0.00     0.165 A 
ATOM     12  O   UNL     1       7.680  -2.584  -2.880  1.00  0.00    -0.454 OA
ATOM     13  O   UNL     1       9.723  -1.784  -2.960  1.00  0.00    -0.454 OA
ATOM     14  C   UNL     1       9.033  -3.015  -2.890  1.00  0.00     0.468 C 
ENDBRANCH   5   6
ENDBRANCH   1   5
TORSDOF 3
ENDMDL
MODEL 2
REMARK VINA RESULT:      -6.6      1.741      2.167
REMARK SMILES CC(=O)CCc1ccc2c(c1)OCO2
REMARK SMILES IDX 4 1 2 2 1 3 3 4 5 5 6 6 7 7 11 8 8 9 10 10 9 11 12 12 14 13
REMARK SMILES IDX 13 14
REMARK H PARENT
REMARK Flexibility Score: inf
ROOT
ATOM      1  C   UNL     1       5.897   1.222  -0.215  1.00  0.00     0.080 C 
ENDROOT
BRANCH   1   2
ATOM      2  C   UNL     1       5.915   1.302   1.257  1.00  0.00     0.130 C 
ATOM      3  C   UNL     1       5.205   0.168   1.979  1.00  0.00     0.087 C 
ATOM      4  O   UNL     1       6.417   2.147   1.942  1.00  0.00    -0.300 OA
ENDBRANCH   1   2
BRANCH   1   5
ATOM      5  C   UNL     1       7.213   1.092  -0.875  1.00  0.00     0.043 C 
BRANCH   5   6
ATOM      6  C   UNL     1       7.630  -0.253  -1.279  1.00  0.00    -0.044 A 
ATOM      7  C   UNL     1       7.932  -0.572  -2.604  1.00  0.00     0.008 A 
ATOM      8  C   UNL     1       7.763  -1.245  -0.336  1.00  0.00     0.054 A 
ATOM      9  C   UNL     1       8.343  -1.844  -2.907  1.00  0.00     0.051 A 
ATOM     10  C   UNL     1       8.186  -2.540  -0.674  1.00  0.00     0.166 A 
ATOM     11  C   UNL     1       8.483  -2.855  -1.981  1.00  0.00     0.165 A 
ATOM     12  O   UNL     1       8.404  -3.709   0.045  1.00  0.00    -0.454 OA
ATOM     13  O   UNL     1       8.876  -4.198  -2.043  1.00  0.00    -0.454 OA
ATOM     14  C   UNL     1       9.264  -4.534  -0.727  1.00  0.00     0.468 C 
ENDBRANCH   5   6
ENDBRANCH   1   5
TORSDOF 3
ENDMDL
MODEL 3
REMARK VINA RESULT:      -6.4      1.601      1.929
REMARK SMILES CC(=O)CCc1ccc2c(c1)OCO2
REMARK SMILES IDX 4 1 2 2 1 3 3 4 5 5 6 6 7 7 11 8 8 9 10 10 9 11 12 12 14 13
REMARK SMILES IDX 13 14
REMARK H PARENT
REMARK Flexibility Score: inf
ROOT
ATOM      1  C   UNL     1       5.780   1.061   0.510  1.00  0.00     0.080 C 
ENDROOT
BRANCH   1   2
ATOM      2  C   UNL     1       5.414   0.592   1.859  1.00  0.00     0.130 C 
ATOM      3  C   UNL     1       6.538  -0.054   2.650  1.00  0.00     0.087 C 
ATOM      4  O   UNL     1       4.345   0.660   2.397  1.00  0.00    -0.300 OA
ENDBRANCH   1   2
BRANCH   1   5
ATOM      5  C   UNL     1       7.189   0.861   0.111  1.00  0.00     0.043 C 
BRANCH   5   6
ATOM      6  C   UNL     1       7.512  -0.372  -0.613  1.00  0.00    -0.044 A 
ATOM      7  C   UNL     1       7.471  -0.448  -2.006  1.00  0.00     0.008 A 
ATOM      8  C   UNL     1       7.897  -1.496   0.079  1.00  0.00     0.054 A 
ATOM      9  C   UNL     1       7.812  -1.626  -2.619  1.00  0.00     0.051 A 
ATOM     10  C   UNL     1       8.242  -2.689  -0.574  1.00  0.00     0.166 A 
ATOM     11  C   UNL     1       8.201  -2.765  -1.949  1.00  0.00     0.165 A 
ATOM     12  O   UNL     1       8.656  -3.945  -0.148  1.00  0.00    -0.454 OA
ATOM     13  O   UNL     1       8.587  -4.053  -2.340  1.00  0.00    -0.454 OA
ATOM     14  C   UNL     1       9.304  -4.578  -1.242  1.00  0.00     0.468 C 
ENDBRANCH   5   6
ENDBRANCH   1   5
TORSDOF 3
ENDMDL
MODEL 4
REMARK VINA RESULT:      -6.2      2.038      2.443
REMARK SMILES CC(=O)CCc1ccc2c(c1)OCO2
REMARK SMILES IDX 4 1 2 2 1 3 3 4 5 5 6 6 7 7 11 8 8 9 10 10 9 11 12 12 14 13
REMARK SMILES IDX 13 14
REMARK H PARENT
REMARK Flexibility Score: inf
ROOT
ATOM      1  C   UNL     1       5.691   1.082  -0.302  1.00  0.00     0.080 C 
ENDROOT
BRANCH   1   2
ATOM      2  C   UNL     1       5.773   1.326   1.150  1.00  0.00     0.130 C 
ATOM      3  C   UNL     1       4.912   0.418   2.011  1.00  0.00     0.087 C 
ATOM      4  O   UNL     1       6.433   2.147   1.722  1.00  0.00    -0.300 OA
ENDBRANCH   1   2
BRANCH   1   5
ATOM      5  C   UNL     1       6.954   0.702  -0.970  1.00  0.00     0.043 C 
BRANCH   5   6
ATOM      6  C   UNL     1       7.525  -0.604  -0.631  1.00  0.00    -0.044 A 
ATOM      7  C   UNL     1       7.679  -1.028   0.690  1.00  0.00     0.008 A 
ATOM      8  C   UNL     1       7.905  -1.470  -1.630  1.00  0.00     0.054 A 
ATOM      9  C   UNL     1       8.196  -2.274   0.934  1.00  0.00     0.051 A 
ATOM     10  C   UNL     1       8.431  -2.741  -1.351  1.00  0.00     0.166 A 
ATOM     11  C   UNL     1       8.584  -3.159  -0.048  1.00  0.00     0.165 A 
ATOM     12  O   UNL     1       8.887  -3.796  -2.132  1.00  0.00    -0.454 OA
ATOM     13  O   UNL     1       9.124  -4.451  -0.050  1.00  0.00    -0.454 OA
ATOM     14  C   UNL     1       8.846  -4.970  -1.334  1.00  0.00     0.468 C 
ENDBRANCH   5   6
ENDBRANCH   1   5
TORSDOF 3
ENDMDL
MODEL 5
REMARK VINA RESULT:      -6.2      1.947      2.510
REMARK SMILES CC(=O)CCc1ccc2c(c1)OCO2
REMARK SMILES IDX 4 1 2 2 1 3 3 4 5 5 6 6 7 7 11 8 8 9 10 10 9 11 12 12 14 13
REMARK SMILES IDX 13 14
REMARK H PARENT
REMARK Flexibility Score: inf
ROOT
ATOM      1  C   UNL     1       6.250  -0.305   2.311  1.00  0.00     0.080 C 
ENDROOT
BRANCH   1   2
ATOM      2  C   UNL     1       5.115   0.553   1.924  1.00  0.00     0.130 C 
ATOM      3  C   UNL     1       5.319   1.367   0.658  1.00  0.00     0.087 C 
ATOM      4  O   UNL     1       4.064   0.679   2.484  1.00  0.00    -0.300 OA
ENDBRANCH   1   2
BRANCH   1   5
ATOM      5  C   UNL     1       7.492  -0.135   1.528  1.00  0.00     0.043 C 
BRANCH   5   6
ATOM      6  C   UNL     1       7.753  -1.112   0.467  1.00  0.00    -0.044 A 
ATOM      7  C   UNL     1       7.677  -0.778  -0.887  1.00  0.00     0.008 A 
ATOM      8  C   UNL     1       8.115  -2.399   0.790  1.00  0.00     0.054 A 
ATOM      9  C   UNL     1       7.962  -1.735  -1.826  1.00  0.00     0.051 A 
ATOM     10  C   UNL     1       8.401  -3.359  -0.193  1.00  0.00     0.166 A 
ATOM     11  C   UNL     1       8.325  -3.030  -1.528  1.00  0.00     0.165 A 
ATOM     12  O   UNL     1       8.780  -4.696  -0.164  1.00  0.00    -0.454 OA
ATOM     13  O   UNL     1       8.656  -4.158  -2.289  1.00  0.00    -0.454 OA
ATOM     14  C   UNL     1       9.379  -4.999  -1.415  1.00  0.00     0.468 C 
ENDBRANCH   5   6
ENDBRANCH   1   5
TORSDOF 3
ENDMDL
