@<TRIPOS>MOLECULE
/home/cewinharhar/GITHUB/reincatalyze/data/processed/docking_pred/2023-May-31-1727_sub9_nm5_bs15_s42_ex16_mel10_mts10000_k50_ec075_g099_lra3e-4_lrc3e-3/bde4f716ac8ce10fa2b7126593b1b8cc9fcb83f2_ligand_9.pdbqt
 14 15 0 0 0
SMALL
GASTEIGER

@<TRIPOS>ATOM
      1  C          5.6910    1.0820   -0.3020 C.3     1  UNL1        0.0800
      2  C          5.7730    1.3260    1.1500 C.2     1  UNL1        0.1300
      3  C          4.9120    0.4180    2.0110 C.3     1  UNL1        0.0870
      4  O          6.4330    2.1470    1.7220 O.2     1  UNL1       -0.3000
      5  C          6.9540    0.7020   -0.9700 C.3     1  UNL1        0.0430
      6  C          7.5250   -0.6040   -0.6310 C.2     1  UNL1       -0.0440
      7  C          7.6790   -1.0280    0.6900 C.2     1  UNL1        0.0080
      8  C          7.9050   -1.4700   -1.6300 C.2     1  UNL1        0.0540
      9  C          8.1960   -2.2740    0.9340 C.2     1  UNL1        0.0510
     10  C          8.4310   -2.7410   -1.3510 C.2     1  UNL1        0.1660
     11  C          8.5840   -3.1590   -0.0480 C.2     1  UNL1        0.1650
     12  O          8.8870   -3.7960   -2.1320 O.2     1  UNL1       -0.4540
     13  O          9.1240   -4.4510   -0.0500 O.2     1  UNL1       -0.4540
     14  C          8.8460   -4.9700   -1.3340 C.3     1  UNL1        0.4680
@<TRIPOS>BOND
     1    12    10    1
     2    12    14    1
     3     8    10    1
     4     8     6    2
     5    10    11    2
     6    14    13    1
     7     5     6    1
     8     5     1    1
     9     6     7    1
    10     1     2    1
    11    13    11    1
    12    11     9    1
    13     7     9    2
    14     2     4    2
    15     2     3    1
