@<TRIPOS>MOLECULE
/home/cewinharhar/GITHUB/reincatalyze/data/processed/docking_pred/2023-May-31-1727_sub9_nm5_bs15_s42_ex16_mel10_mts10000_k50_ec075_g099_lra3e-4_lrc3e-3/bde4f716ac8ce10fa2b7126593b1b8cc9fcb83f2_ligand_9.pdbqt
 14 15 0 0 0
SMALL
GASTEIGER

@<TRIPOS>ATOM
      1  C          6.2500   -0.3050    2.3110 C.3     1  UNL1        0.0800
      2  C          5.1150    0.5530    1.9240 C.2     1  UNL1        0.1300
      3  C          5.3190    1.3670    0.6580 C.3     1  UNL1        0.0870
      4  O          4.0640    0.6790    2.4840 O.2     1  UNL1       -0.3000
      5  C          7.4920   -0.1350    1.5280 C.3     1  UNL1        0.0430
      6  C          7.7530   -1.1120    0.4670 C.2     1  UNL1       -0.0440
      7  C          7.6770   -0.7780   -0.8870 C.2     1  UNL1        0.0080
      8  C          8.1150   -2.3990    0.7900 C.2     1  UNL1        0.0540
      9  C          7.9620   -1.7350   -1.8260 C.2     1  UNL1        0.0510
     10  C          8.4010   -3.3590   -0.1930 C.2     1  UNL1        0.1660
     11  C          8.3250   -3.0300   -1.5280 C.2     1  UNL1        0.1650
     12  O          8.7800   -4.6960   -0.1640 O.2     1  UNL1       -0.4540
     13  O          8.6560   -4.1580   -2.2890 O.2     1  UNL1       -0.4540
     14  C          9.3790   -4.9990   -1.4150 C.3     1  UNL1        0.4680
@<TRIPOS>BOND
     1    13    11    1
     2    13    14    1
     3     9    11    2
     4     9     7    1
     5    11    10    1
     6    14    12    1
     7     7     6    2
     8    10    12    1
     9    10     8    2
    10     6     8    1
    11     6     5    1
    12     3     2    1
    13     5     1    1
    14     2     1    1
    15     2     4    2
