@<TRIPOS>MOLECULE
/home/cewinharhar/GITHUB/reincatalyze/data/processed/docking_pred/2023-May-31-1727_sub9_nm5_bs15_s42_ex16_mel10_mts10000_k50_ec075_g099_lra3e-4_lrc3e-3/bdfc35a41e3d78d3bf59a6b88613069133e00868_ligand_9.pdbqt
 14 15 0 0 0
SMALL
GASTEIGER

@<TRIPOS>ATOM
      1  C          5.4510    1.8940    1.2140 C.3     1  UNL1        0.0800
      2  C          4.9200    0.7540    1.9830 C.2     1  UNL1        0.1300
      3  C          5.8300   -0.4600    2.0580 C.3     1  UNL1        0.0870
      4  O          3.8660    0.6750    2.5480 O.2     1  UNL1       -0.3000
      5  C          5.4580    1.7420   -0.2560 C.3     1  UNL1        0.0430
      6  C          6.5750    1.0010   -0.8480 C.2     1  UNL1       -0.0440
      7  C          7.9040    1.3850   -0.6600 C.2     1  UNL1        0.0080
      8  C          6.3340   -0.1290   -1.5940 C.2     1  UNL1        0.0540
      9  C          8.9010    0.6290   -1.2210 C.2     1  UNL1        0.0510
     10  C          7.3750   -0.8840   -2.1570 C.2     1  UNL1        0.1660
     11  C          8.6860   -0.5050   -1.9720 C.2     1  UNL1        0.1650
     12  O          7.4300   -2.0340   -2.9340 O.2     1  UNL1       -0.4540
     13  O          9.5160   -1.4200   -2.6310 O.2     1  UNL1       -0.4540
     14  C          8.7330   -2.5840   -2.7960 C.3     1  UNL1        0.4680
@<TRIPOS>BOND
     1    12    14    1
     2    12    10    1
     3    14    13    1
     4    13    11    1
     5    10    11    2
     6    10     8    1
     7    11     9    1
     8     8     6    2
     9     9     7    2
    10     6     7    1
    11     6     5    1
    12     5     1    1
    13     1     2    1
    14     2     3    1
    15     2     4    2
