@<TRIPOS>MOLECULE
/home/cewinharhar/GITHUB/reincatalyze/data/processed/docking_pred/2023-May-31-1727_sub9_nm5_bs15_s42_ex16_mel10_mts10000_k50_ec075_g099_lra3e-4_lrc3e-3/bdfc35a41e3d78d3bf59a6b88613069133e00868_ligand_9.pdbqt
 14 15 0 0 0
SMALL
GASTEIGER

@<TRIPOS>ATOM
      1  C          6.2880    0.4420    1.6320 C.3     1  UNL1        0.0800
      2  C          4.9840    1.1270    1.5820 C.2     1  UNL1        0.1300
      3  C          4.8120    2.1130    0.4390 C.3     1  UNL1        0.0870
      4  O          4.0570    0.9980    2.3300 O.2     1  UNL1       -0.3000
      5  C          7.1750    0.6420    0.4660 C.3     1  UNL1        0.0430
      6  C          7.5180   -0.5420   -0.3260 C.2     1  UNL1       -0.0440
      7  C          7.4890   -0.5370   -1.7220 C.2     1  UNL1        0.0080
      8  C          7.9120   -1.7000    0.3020 C.2     1  UNL1        0.0540
      9  C          7.8480   -1.6730   -2.3990 C.2     1  UNL1        0.0510
     10  C          8.2760   -2.8490   -0.4170 C.2     1  UNL1        0.1660
     11  C          8.2460   -2.8450   -1.7940 C.2     1  UNL1        0.1650
     12  O          8.7020   -4.1230   -0.0620 O.2     1  UNL1       -0.4540
     13  O          8.6510   -4.1030   -2.2570 O.2     1  UNL1       -0.4540
     14  C          9.3660   -4.6830   -1.1860 C.3     1  UNL1        0.4680
@<TRIPOS>BOND
     1     9    11    2
     2     9     7    1
     3    13    11    1
     4    13    14    1
     5    11    10    1
     6     7     6    2
     7    14    12    1
     8    10    12    1
     9    10     8    2
    10     6     8    1
    11     6     5    1
    12     3     2    1
    13     5     1    1
    14     2     1    1
    15     2     4    2
