@<TRIPOS>MOLECULE
/home/cewinharhar/GITHUB/reincatalyze/data/processed/docking_pred/2023-May-31-1727_sub9_nm5_bs15_s42_ex16_mel10_mts10000_k50_ec075_g099_lra3e-4_lrc3e-3/bdfc35a41e3d78d3bf59a6b88613069133e00868_ligand_9.pdbqt
 14 15 0 0 0
SMALL
GASTEIGER

@<TRIPOS>ATOM
      1  C          5.7670    1.3800   -0.2580 C.3     1  UNL1        0.0800
      2  C          5.1560    1.3350    1.0830 C.2     1  UNL1        0.1300
      3  C          5.5300    0.1280    1.9270 C.3     1  UNL1        0.0870
      4  O          4.4090    2.1300    1.5780 O.2     1  UNL1       -0.3000
      5  C          7.2020    1.0340   -0.3320 C.3     1  UNL1        0.0430
      6  C          7.5490   -0.2670   -0.9110 C.2     1  UNL1       -0.0440
      7  C          7.6350   -0.4690   -2.2890 C.2     1  UNL1        0.0080
      8  C          7.8300   -1.3340   -0.0890 C.2     1  UNL1        0.0540
      9  C          7.9920   -1.7060   -2.7610 C.2     1  UNL1        0.0510
     10  C          8.1930   -2.5900   -0.5980 C.2     1  UNL1        0.1660
     11  C          8.2780   -2.7890   -1.9590 C.2     1  UNL1        0.1650
     12  O          8.5230   -3.8120   -0.0260 O.2     1  UNL1       -0.4540
     13  O          8.6550   -4.1170   -2.1970 O.2     1  UNL1       -0.4540
     14  C          9.2490   -4.5570   -0.9930 C.3     1  UNL1        0.4680
@<TRIPOS>BOND
     1     9     7    1
     2     9    11    2
     3     7     6    2
     4    13    11    1
     5    13    14    1
     6    11    10    1
     7    14    12    1
     8     6     5    1
     9     6     8    1
    10    10     8    2
    11    10    12    1
    12     5     1    1
    13     1     2    1
    14     2     4    2
    15     2     3    1
