MODEL 1
REMARK VINA RESULT:      -7.7      0.000      0.000
REMARK SMILES CC(=O)CCc1ccc2c(c1)OCO2
REMARK SMILES IDX 4 1 2 2 1 3 3 4 5 5 6 6 7 7 11 8 8 9 10 10 9 11 12 12 14 13
REMARK SMILES IDX 13 14
REMARK H PARENT
REMARK Flexibility Score: inf
ROOT
ATOM      1  C   UNL     1       5.451   1.894   1.214  1.00  0.00     0.080 C 
ENDROOT
BRANCH   1   2
ATOM      2  C   UNL     1       4.920   0.754   1.983  1.00  0.00     0.130 C 
ATOM      3  C   UNL     1       5.830  -0.460   2.058  1.00  0.00     0.087 C 
ATOM      4  O   UNL     1       3.866   0.675   2.548  1.00  0.00    -0.300 OA
ENDBRANCH   1   2
BRANCH   1   5
ATOM      5  C   UNL     1       5.458   1.742  -0.256  1.00  0.00     0.043 C 
BRANCH   5   6
ATOM      6  C   UNL     1       6.575   1.001  -0.848  1.00  0.00    -0.044 A 
ATOM      7  C   UNL     1       7.904   1.385  -0.660  1.00  0.00     0.008 A 
ATOM      8  C   UNL     1       6.334  -0.129  -1.594  1.00  0.00     0.054 A 
ATOM      9  C   UNL     1       8.901   0.629  -1.221  1.00  0.00     0.051 A 
ATOM     10  C   UNL     1       7.375  -0.884  -2.157  1.00  0.00     0.166 A 
ATOM     11  C   UNL     1       8.686  -0.505  -1.972  1.00  0.00     0.165 A 
ATOM     12  O   UNL     1       7.430  -2.034  -2.934  1.00  0.00    -0.454 OA
ATOM     13  O   UNL     1       9.516  -1.420  -2.631  1.00  0.00    -0.454 OA
ATOM     14  C   UNL     1       8.733  -2.584  -2.796  1.00  0.00     0.468 C 
ENDBRANCH   5   6
ENDBRANCH   1   5
TORSDOF 3
ENDMDL
MODEL 2
REMARK VINA RESULT:      -7.1      1.813      2.303
REMARK SMILES CC(=O)CCc1ccc2c(c1)OCO2
REMARK SMILES IDX 4 1 2 2 1 3 3 4 5 5 6 6 7 7 11 8 8 9 10 10 9 11 12 12 14 13
REMARK SMILES IDX 13 14
REMARK H PARENT
REMARK Flexibility Score: inf
ROOT
ATOM      1  C   UNL     1       5.767   1.380  -0.258  1.00  0.00     0.080 C 
ENDROOT
BRANCH   1   2
ATOM      2  C   UNL     1       5.156   1.335   1.083  1.00  0.00     0.130 C 
ATOM      3  C   UNL     1       5.530   0.128   1.927  1.00  0.00     0.087 C 
ATOM      4  O   UNL     1       4.409   2.130   1.578  1.00  0.00    -0.300 OA
ENDBRANCH   1   2
BRANCH   1   5
ATOM      5  C   UNL     1       7.202   1.034  -0.332  1.00  0.00     0.043 C 
BRANCH   5   6
ATOM      6  C   UNL     1       7.549  -0.267  -0.911  1.00  0.00    -0.044 A 
ATOM      7  C   UNL     1       7.635  -0.469  -2.289  1.00  0.00     0.008 A 
ATOM      8  C   UNL     1       7.830  -1.334  -0.089  1.00  0.00     0.054 A 
ATOM      9  C   UNL     1       7.992  -1.706  -2.761  1.00  0.00     0.051 A 
ATOM     10  C   UNL     1       8.193  -2.590  -0.598  1.00  0.00     0.166 A 
ATOM     11  C   UNL     1       8.278  -2.789  -1.959  1.00  0.00     0.165 A 
ATOM     12  O   UNL     1       8.523  -3.812  -0.026  1.00  0.00    -0.454 OA
ATOM     13  O   UNL     1       8.655  -4.117  -2.197  1.00  0.00    -0.454 OA
ATOM     14  C   UNL     1       9.249  -4.557  -0.993  1.00  0.00     0.468 C 
ENDBRANCH   5   6
ENDBRANCH   1   5
TORSDOF 3
ENDMDL
MODEL 3
REMARK VINA RESULT:      -7.0      1.078      1.181
REMARK SMILES CC(=O)CCc1ccc2c(c1)OCO2
REMARK SMILES IDX 4 1 2 2 1 3 3 4 5 5 6 6 7 7 11 8 8 9 10 10 9 11 12 12 14 13
REMARK SMILES IDX 13 14
REMARK H PARENT
REMARK Flexibility Score: inf
ROOT
ATOM      1  C   UNL     1       6.179   1.211   0.902  1.00  0.00     0.080 C 
ENDROOT
BRANCH   1   2
ATOM      2  C   UNL     1       5.524   0.370   1.920  1.00  0.00     0.130 C 
ATOM      3  C   UNL     1       6.308  -0.858   2.350  1.00  0.00     0.087 C 
ATOM      4  O   UNL     1       4.459   0.542   2.441  1.00  0.00    -0.300 OA
ENDBRANCH   1   2
BRANCH   1   5
ATOM      5  C   UNL     1       5.861   0.896  -0.507  1.00  0.00     0.043 C 
BRANCH   5   6
ATOM      6  C   UNL     1       6.855   0.130  -1.264  1.00  0.00    -0.044 A 
ATOM      7  C   UNL     1       7.848   0.749  -2.025  1.00  0.00     0.008 A 
ATOM      8  C   UNL     1       6.848  -1.245  -1.216  1.00  0.00     0.054 A 
ATOM      9  C   UNL     1       8.763  -0.029  -2.686  1.00  0.00     0.051 A 
ATOM     10  C   UNL     1       7.798  -2.017  -1.902  1.00  0.00     0.166 A 
ATOM     11  C   UNL     1       8.777  -1.406  -2.655  1.00  0.00     0.165 A 
ATOM     12  O   UNL     1       8.029  -3.381  -2.034  1.00  0.00    -0.454 OA
ATOM     13  O   UNL     1       9.586  -2.395  -3.229  1.00  0.00    -0.454 OA
ATOM     14  C   UNL     1       9.379  -3.550  -2.442  1.00  0.00     0.468 C 
ENDBRANCH   5   6
ENDBRANCH   1   5
TORSDOF 3
ENDMDL
MODEL 4
REMARK VINA RESULT:      -6.8      1.164      1.650
REMARK SMILES CC(=O)CCc1ccc2c(c1)OCO2
REMARK SMILES IDX 4 1 2 2 1 3 3 4 5 5 6 6 7 7 11 8 8 9 10 10 9 11 12 12 14 13
REMARK SMILES IDX 13 14
REMARK H PARENT
REMARK Flexibility Score: inf
ROOT
ATOM      1  C   UNL     1       5.376  -0.030   1.959  1.00  0.00     0.080 C 
ENDROOT
BRANCH   1   2
ATOM      2  C   UNL     1       4.427   1.094   1.860  1.00  0.00     0.130 C 
ATOM      3  C   UNL     1       4.757   2.132   0.801  1.00  0.00     0.087 C 
ATOM      4  O   UNL     1       3.438   1.280   2.510  1.00  0.00    -0.300 OA
ENDBRANCH   1   2
BRANCH   1   5
ATOM      5  C   UNL     1       6.795   0.290   1.695  1.00  0.00     0.043 C 
BRANCH   5   6
ATOM      6  C   UNL     1       7.328  -0.064   0.377  1.00  0.00    -0.044 A 
ATOM      7  C   UNL     1       7.739   0.902  -0.544  1.00  0.00     0.008 A 
ATOM      8  C   UNL     1       7.463  -1.386   0.021  1.00  0.00     0.054 A 
ATOM      9  C   UNL     1       8.253   0.498  -1.749  1.00  0.00     0.051 A 
ATOM     10  C   UNL     1       7.993  -1.771  -1.220  1.00  0.00     0.166 A 
ATOM     11  C   UNL     1       8.398  -0.818  -2.128  1.00  0.00     0.165 A 
ATOM     12  O   UNL     1       8.241  -2.993  -1.833  1.00  0.00    -0.454 OA
ATOM     13  O   UNL     1       8.883  -1.464  -3.272  1.00  0.00    -0.454 OA
ATOM     14  C   UNL     1       9.204  -2.775  -2.853  1.00  0.00     0.468 C 
ENDBRANCH   5   6
ENDBRANCH   1   5
TORSDOF 3
ENDMDL
MODEL 5
REMARK VINA RESULT:      -6.6      1.917      2.485
REMARK SMILES CC(=O)CCc1ccc2c(c1)OCO2
REMARK SMILES IDX 4 1 2 2 1 3 3 4 5 5 6 6 7 7 11 8 8 9 10 10 9 11 12 12 14 13
REMARK SMILES IDX 13 14
REMARK H PARENT
REMARK Flexibility Score: inf
ROOT
ATOM      1  C   UNL     1       6.288   0.442   1.632  1.00  0.00     0.080 C 
ENDROOT
BRANCH   1   2
ATOM      2  C   UNL     1       4.984   1.127   1.582  1.00  0.00     0.130 C 
ATOM      3  C   UNL     1       4.812   2.113   0.439  1.00  0.00     0.087 C 
ATOM      4  O   UNL     1       4.057   0.998   2.330  1.00  0.00    -0.300 OA
ENDBRANCH   1   2
BRANCH   1   5
ATOM      5  C   UNL     1       7.175   0.642   0.466  1.00  0.00     0.043 C 
BRANCH   5   6
ATOM      6  C   UNL     1       7.518  -0.542  -0.326  1.00  0.00    -0.044 A 
ATOM      7  C   UNL     1       7.489  -0.537  -1.722  1.00  0.00     0.008 A 
ATOM      8  C   UNL     1       7.912  -1.700   0.302  1.00  0.00     0.054 A 
ATOM      9  C   UNL     1       7.848  -1.673  -2.399  1.00  0.00     0.051 A 
ATOM     10  C   UNL     1       8.276  -2.849  -0.417  1.00  0.00     0.166 A 
ATOM     11  C   UNL     1       8.246  -2.845  -1.794  1.00  0.00     0.165 A 
ATOM     12  O   UNL     1       8.702  -4.123  -0.062  1.00  0.00    -0.454 OA
ATOM     13  O   UNL     1       8.651  -4.103  -2.257  1.00  0.00    -0.454 OA
ATOM     14  C   UNL     1       9.366  -4.683  -1.186  1.00  0.00     0.468 C 
ENDBRANCH   5   6
ENDBRANCH   1   5
TORSDOF 3
ENDMDL
