@<TRIPOS>MOLECULE
/home/cewinharhar/GITHUB/reincatalyze/data/processed/docking_pred/2023-May-31-1727_sub9_nm5_bs15_s42_ex16_mel10_mts10000_k50_ec075_g099_lra3e-4_lrc3e-3/bdfc35a41e3d78d3bf59a6b88613069133e00868_ligand_9.pdbqt
 14 15 0 0 0
SMALL
GASTEIGER

@<TRIPOS>ATOM
      1  C          6.1790    1.2110    0.9020 C.3     1  UNL1        0.0800
      2  C          5.5240    0.3700    1.9200 C.2     1  UNL1        0.1300
      3  C          6.3080   -0.8580    2.3500 C.3     1  UNL1        0.0870
      4  O          4.4590    0.5420    2.4410 O.2     1  UNL1       -0.3000
      5  C          5.8610    0.8960   -0.5070 C.3     1  UNL1        0.0430
      6  C          6.8550    0.1300   -1.2640 C.2     1  UNL1       -0.0440
      7  C          7.8480    0.7490   -2.0250 C.2     1  UNL1        0.0080
      8  C          6.8480   -1.2450   -1.2160 C.2     1  UNL1        0.0540
      9  C          8.7630   -0.0290   -2.6860 C.2     1  UNL1        0.0510
     10  C          7.7980   -2.0170   -1.9020 C.2     1  UNL1        0.1660
     11  C          8.7770   -1.4060   -2.6550 C.2     1  UNL1        0.1650
     12  O          8.0290   -3.3810   -2.0340 O.2     1  UNL1       -0.4540
     13  O          9.5860   -2.3950   -3.2290 O.2     1  UNL1       -0.4540
     14  C          9.3790   -3.5500   -2.4420 C.3     1  UNL1        0.4680
@<TRIPOS>BOND
     1    13    11    1
     2    13    14    1
     3     9    11    2
     4     9     7    1
     5    11    10    1
     6    14    12    1
     7    12    10    1
     8     7     6    2
     9    10     8    2
    10     6     8    1
    11     6     5    1
    12     5     1    1
    13     1     2    1
    14     2     3    1
    15     2     4    2
