@<TRIPOS>MOLECULE
/home/cewinharhar/GITHUB/reincatalyze/data/processed/docking_pred/2023-May-31-1727_sub9_nm5_bs15_s42_ex16_mel10_mts10000_k50_ec075_g099_lra3e-4_lrc3e-3/bf1bd72bf83e0bbc7f208f1f88a3802cf16c22f1_ligand_9.pdbqt
 14 15 0 0 0
SMALL
GASTEIGER

@<TRIPOS>ATOM
      1  C          6.5270    1.0750    1.3020 C.3     1  UNL1        0.0800
      2  C          5.2130    1.6640    0.9840 C.2     1  UNL1        0.1300
      3  C          5.0480    2.1490   -0.4460 C.3     1  UNL1        0.0870
      4  O          4.2730    1.8020    1.7130 O.2     1  UNL1       -0.3000
      5  C          7.5200    1.0690    0.2080 C.3     1  UNL1        0.0430
      6  C          7.7260   -0.1960   -0.5030 C.2     1  UNL1       -0.0440
      7  C          7.6590   -0.2870   -1.8940 C.2     1  UNL1        0.0080
      8  C          8.0250   -1.3400    0.2000 C.2     1  UNL1        0.0540
      9  C          7.8900   -1.4970   -2.4950 C.2     1  UNL1        0.0510
     10  C          8.2560   -2.5670   -0.4410 C.2     1  UNL1        0.1660
     11  C          8.1890   -2.6560   -1.8140 C.2     1  UNL1        0.1650
     12  O          8.5680   -3.8480   -0.0040 O.2     1  UNL1       -0.4540
     13  O          8.4590   -3.9780   -2.1930 O.2     1  UNL1       -0.4540
     14  C          9.1440   -4.5480   -1.0970 C.3     1  UNL1        0.4680
@<TRIPOS>BOND
     1     9     7    1
     2     9    11    2
     3    13    11    1
     4    13    14    1
     5     7     6    2
     6    11    10    1
     7    14    12    1
     8     6     8    1
     9     6     5    1
    10     3     2    1
    11    10    12    1
    12    10     8    2
    13     5     1    1
    14     2     1    1
    15     2     4    2
