@<TRIPOS>MOLECULE
/home/cewinharhar/GITHUB/reincatalyze/data/processed/docking_pred/2023-May-31-1727_sub9_nm5_bs15_s42_ex16_mel10_mts10000_k50_ec075_g099_lra3e-4_lrc3e-3/bfaa3bc067c86e8b5ef89a85d12e30cfe25fe09e_ligand_9.pdbqt
 14 15 0 0 0
SMALL
GASTEIGER

@<TRIPOS>ATOM
      1  C          5.7470    0.2310    1.8630 C.3     1  UNL1        0.0800
      2  C          4.8470    1.3250    1.4560 C.2     1  UNL1        0.1300
      3  C          5.2900    2.1110    0.2340 C.3     1  UNL1        0.0870
      4  O          3.8180    1.6620    1.9710 O.2     1  UNL1       -0.3000
      5  C          7.1160    0.2730    1.3080 C.3     1  UNL1        0.0430
      6  C          7.4640   -0.7350    0.3040 C.2     1  UNL1       -0.0440
      7  C          7.3760   -0.4830   -1.0660 C.2     1  UNL1        0.0080
      8  C          7.9230   -1.9710    0.6990 C.2     1  UNL1        0.0540
      9  C          7.7440   -1.4640   -1.9490 C.2     1  UNL1        0.0510
     10  C          8.2930   -2.9570   -0.2270 C.2     1  UNL1        0.1660
     11  C          8.2050   -2.7080   -1.5790 C.2     1  UNL1        0.1650
     12  O          8.7760   -4.2560   -0.1230 O.2     1  UNL1       -0.4540
     13  O          8.6320   -3.8470   -2.2750 O.2     1  UNL1       -0.4540
     14  C          9.4100   -4.5790   -1.3520 C.3     1  UNL1        0.4680
@<TRIPOS>BOND
     1    13    11    1
     2    13    14    1
     3     9    11    2
     4     9     7    1
     5    11    10    1
     6    14    12    1
     7     7     6    2
     8    10    12    1
     9    10     8    2
    10     3     2    1
    11     6     8    1
    12     6     5    1
    13     5     1    1
    14     2     1    1
    15     2     4    2
