MODEL 1
REMARK VINA RESULT:      -7.6      0.000      0.000
REMARK SMILES CC(=O)CCc1ccc2c(c1)OCO2
REMARK SMILES IDX 4 1 2 2 1 3 3 4 5 5 6 6 7 7 11 8 8 9 10 10 9 11 12 12 14 13
REMARK SMILES IDX 13 14
REMARK H PARENT
REMARK Flexibility Score: inf
ROOT
ATOM      1  C   UNL     1       5.638   1.858   1.266  1.00  0.00     0.080 C 
ENDROOT
BRANCH   1   2
ATOM      2  C   UNL     1       5.066   0.724   2.014  1.00  0.00     0.130 C 
ATOM      3  C   UNL     1       5.985  -0.474   2.182  1.00  0.00     0.087 C 
ATOM      4  O   UNL     1       3.973   0.639   2.498  1.00  0.00    -0.300 OA
ENDBRANCH   1   2
BRANCH   1   5
ATOM      5  C   UNL     1       5.620   1.742  -0.208  1.00  0.00     0.043 C 
BRANCH   5   6
ATOM      6  C   UNL     1       6.705   0.982  -0.834  1.00  0.00    -0.044 A 
ATOM      7  C   UNL     1       8.046   1.345  -0.693  1.00  0.00     0.008 A 
ATOM      8  C   UNL     1       6.421  -0.147  -1.567  1.00  0.00     0.054 A 
ATOM      9  C   UNL     1       9.011   0.571  -1.284  1.00  0.00     0.051 A 
ATOM     10  C   UNL     1       7.430  -0.921  -2.161  1.00  0.00     0.166 A 
ATOM     11  C   UNL     1       8.753  -0.562  -2.023  1.00  0.00     0.165 A 
ATOM     12  O   UNL     1       7.441  -2.075  -2.934  1.00  0.00    -0.454 OA
ATOM     13  O   UNL     1       9.545  -1.493  -2.706  1.00  0.00    -0.454 OA
ATOM     14  C   UNL     1       8.738  -2.644  -2.839  1.00  0.00     0.468 C 
ENDBRANCH   5   6
ENDBRANCH   1   5
TORSDOF 3
ENDMDL
MODEL 2
REMARK VINA RESULT:      -6.9      1.092      1.173
REMARK SMILES CC(=O)CCc1ccc2c(c1)OCO2
REMARK SMILES IDX 4 1 2 2 1 3 3 4 5 5 6 6 7 7 11 8 8 9 10 10 9 11 12 12 14 13
REMARK SMILES IDX 13 14
REMARK H PARENT
REMARK Flexibility Score: inf
ROOT
ATOM      1  C   UNL     1       6.237   1.185   0.900  1.00  0.00     0.080 C 
ENDROOT
BRANCH   1   2
ATOM      2  C   UNL     1       5.559   0.369   1.924  1.00  0.00     0.130 C 
ATOM      3  C   UNL     1       6.333  -0.849   2.401  1.00  0.00     0.087 C 
ATOM      4  O   UNL     1       4.483   0.552   2.417  1.00  0.00    -0.300 OA
ENDBRANCH   1   2
BRANCH   1   5
ATOM      5  C   UNL     1       5.892   0.884  -0.505  1.00  0.00     0.043 C 
BRANCH   5   6
ATOM      6  C   UNL     1       6.865   0.111  -1.283  1.00  0.00    -0.044 A 
ATOM      7  C   UNL     1       7.794   0.720  -2.128  1.00  0.00     0.008 A 
ATOM      8  C   UNL     1       6.901  -1.260  -1.173  1.00  0.00     0.054 A 
ATOM      9  C   UNL     1       8.693  -0.064  -2.805  1.00  0.00     0.051 A 
ATOM     10  C   UNL     1       7.833  -2.037  -1.877  1.00  0.00     0.166 A 
ATOM     11  C   UNL     1       8.749  -1.437  -2.712  1.00  0.00     0.165 A 
ATOM     12  O   UNL     1       8.097  -3.399  -1.960  1.00  0.00    -0.454 OA
ATOM     13  O   UNL     1       9.553  -2.429  -3.287  1.00  0.00    -0.454 OA
ATOM     14  C   UNL     1       9.426  -3.551  -2.438  1.00  0.00     0.468 C 
ENDBRANCH   5   6
ENDBRANCH   1   5
TORSDOF 3
ENDMDL
MODEL 3
REMARK VINA RESULT:      -6.8      1.606      1.941
REMARK SMILES CC(=O)CCc1ccc2c(c1)OCO2
REMARK SMILES IDX 4 1 2 2 1 3 3 4 5 5 6 6 7 7 11 8 8 9 10 10 9 11 12 12 14 13
REMARK SMILES IDX 13 14
REMARK H PARENT
REMARK Flexibility Score: inf
ROOT
ATOM      1  C   UNL     1       5.601   1.651   0.128  1.00  0.00     0.080 C 
ENDROOT
BRANCH   1   2
ATOM      2  C   UNL     1       4.909   1.268   1.371  1.00  0.00     0.130 C 
ATOM      3  C   UNL     1       5.515   0.090   2.116  1.00  0.00     0.087 C 
ATOM      4  O   UNL     1       3.937   1.772   1.858  1.00  0.00    -0.300 OA
ENDBRANCH   1   2
BRANCH   1   5
ATOM      5  C   UNL     1       7.031   1.288   0.039  1.00  0.00     0.043 C 
BRANCH   5   6
ATOM      6  C   UNL     1       7.367   0.061  -0.688  1.00  0.00    -0.044 A 
ATOM      7  C   UNL     1       7.390   0.005  -2.083  1.00  0.00     0.008 A 
ATOM      8  C   UNL     1       7.702  -1.080   0.004  1.00  0.00     0.054 A 
ATOM      9  C   UNL     1       7.740  -1.170  -2.697  1.00  0.00     0.051 A 
ATOM     10  C   UNL     1       8.057  -2.269  -0.651  1.00  0.00     0.166 A 
ATOM     11  C   UNL     1       8.079  -2.324  -2.027  1.00  0.00     0.165 A 
ATOM     12  O   UNL     1       8.431  -3.538  -0.226  1.00  0.00    -0.454 OA
ATOM     13  O   UNL     1       8.462  -3.613  -2.420  1.00  0.00    -0.454 OA
ATOM     14  C   UNL     1       9.119  -4.165  -1.298  1.00  0.00     0.468 C 
ENDBRANCH   5   6
ENDBRANCH   1   5
TORSDOF 3
ENDMDL
MODEL 4
REMARK VINA RESULT:      -6.8      1.809      2.332
REMARK SMILES CC(=O)CCc1ccc2c(c1)OCO2
REMARK SMILES IDX 4 1 2 2 1 3 3 4 5 5 6 6 7 7 11 8 8 9 10 10 9 11 12 12 14 13
REMARK SMILES IDX 13 14
REMARK H PARENT
REMARK Flexibility Score: inf
ROOT
ATOM      1  C   UNL     1       6.836   1.072   1.385  1.00  0.00     0.080 C 
ENDROOT
BRANCH   1   2
ATOM      2  C   UNL     1       5.371   1.206   1.483  1.00  0.00     0.130 C 
ATOM      3  C   UNL     1       4.735   2.150   0.477  1.00  0.00     0.087 C 
ATOM      4  O   UNL     1       4.633   0.662   2.255  1.00  0.00    -0.300 OA
ENDBRANCH   1   2
BRANCH   1   5
ATOM      5  C   UNL     1       7.404   1.120   0.021  1.00  0.00     0.043 C 
BRANCH   5   6
ATOM      6  C   UNL     1       7.646  -0.161  -0.649  1.00  0.00    -0.044 A 
ATOM      7  C   UNL     1       7.624  -0.289  -2.039  1.00  0.00     0.008 A 
ATOM      8  C   UNL     1       7.934  -1.282   0.093  1.00  0.00     0.054 A 
ATOM      9  C   UNL     1       7.887  -1.512  -2.599  1.00  0.00     0.051 A 
ATOM     10  C   UNL     1       8.200  -2.523  -0.507  1.00  0.00     0.166 A 
ATOM     11  C   UNL     1       8.177  -2.649  -1.879  1.00  0.00     0.165 A 
ATOM     12  O   UNL     1       8.511  -3.788  -0.026  1.00  0.00    -0.454 OA
ATOM     13  O   UNL     1       8.473  -3.977  -2.213  1.00  0.00    -0.454 OA
ATOM     14  C   UNL     1       9.130  -4.510  -1.081  1.00  0.00     0.468 C 
ENDBRANCH   5   6
ENDBRANCH   1   5
TORSDOF 3
ENDMDL
MODEL 5
REMARK VINA RESULT:      -6.7      1.166      1.650
REMARK SMILES CC(=O)CCc1ccc2c(c1)OCO2
REMARK SMILES IDX 4 1 2 2 1 3 3 4 5 5 6 6 7 7 11 8 8 9 10 10 9 11 12 12 14 13
REMARK SMILES IDX 13 14
REMARK H PARENT
REMARK Flexibility Score: inf
ROOT
ATOM      1  C   UNL     1       5.373  -0.101   1.930  1.00  0.00     0.080 C 
ENDROOT
BRANCH   1   2
ATOM      2  C   UNL     1       4.450   1.047   1.867  1.00  0.00     0.130 C 
ATOM      3  C   UNL     1       4.794   2.101   0.828  1.00  0.00     0.087 C 
ATOM      4  O   UNL     1       3.473   1.243   2.532  1.00  0.00    -0.300 OA
ENDBRANCH   1   2
BRANCH   1   5
ATOM      5  C   UNL     1       6.801   0.197   1.690  1.00  0.00     0.043 C 
BRANCH   5   6
ATOM      6  C   UNL     1       7.341  -0.133   0.368  1.00  0.00    -0.044 A 
ATOM      7  C   UNL     1       7.751   0.849  -0.535  1.00  0.00     0.008 A 
ATOM      8  C   UNL     1       7.485  -1.448  -0.008  1.00  0.00     0.054 A 
ATOM      9  C   UNL     1       8.273   0.468  -1.743  1.00  0.00     0.051 A 
ATOM     10  C   UNL     1       8.023  -1.811  -1.252  1.00  0.00     0.166 A 
ATOM     11  C   UNL     1       8.427  -0.841  -2.143  1.00  0.00     0.165 A 
ATOM     12  O   UNL     1       8.280  -3.022  -1.884  1.00  0.00    -0.454 OA
ATOM     13  O   UNL     1       8.921  -1.467  -3.296  1.00  0.00    -0.454 OA
ATOM     14  C   UNL     1       9.247  -2.781  -2.896  1.00  0.00     0.468 C 
ENDBRANCH   5   6
ENDBRANCH   1   5
TORSDOF 3
ENDMDL
