@<TRIPOS>MOLECULE
/home/cewinharhar/GITHUB/reincatalyze/data/processed/docking_pred/2023-May-31-1727_sub9_nm5_bs15_s42_ex16_mel10_mts10000_k50_ec075_g099_lra3e-4_lrc3e-3/c00c8b20774af87dd702fd508d588995eeb45aaa_ligand_9.pdbqt
 14 15 0 0 0
SMALL
GASTEIGER

@<TRIPOS>ATOM
      1  C          5.6010    1.6510    0.1280 C.3     1  UNL1        0.0800
      2  C          4.9090    1.2680    1.3710 C.2     1  UNL1        0.1300
      3  C          5.5150    0.0900    2.1160 C.3     1  UNL1        0.0870
      4  O          3.9370    1.7720    1.8580 O.2     1  UNL1       -0.3000
      5  C          7.0310    1.2880    0.0390 C.3     1  UNL1        0.0430
      6  C          7.3670    0.0610   -0.6880 C.2     1  UNL1       -0.0440
      7  C          7.3900    0.0050   -2.0830 C.2     1  UNL1        0.0080
      8  C          7.7020   -1.0800    0.0040 C.2     1  UNL1        0.0540
      9  C          7.7400   -1.1700   -2.6970 C.2     1  UNL1        0.0510
     10  C          8.0570   -2.2690   -0.6510 C.2     1  UNL1        0.1660
     11  C          8.0790   -2.3240   -2.0270 C.2     1  UNL1        0.1650
     12  O          8.4310   -3.5380   -0.2260 O.2     1  UNL1       -0.4540
     13  O          8.4620   -3.6130   -2.4200 O.2     1  UNL1       -0.4540
     14  C          9.1190   -4.1650   -1.2980 C.3     1  UNL1        0.4680
@<TRIPOS>BOND
     1     9     7    1
     2     9    11    2
     3    13    11    1
     4    13    14    1
     5     7     6    2
     6    11    10    1
     7    14    12    1
     8     6     8    1
     9     6     5    1
    10    10    12    1
    11    10     8    2
    12     5     1    1
    13     1     2    1
    14     2     4    2
    15     2     3    1
