@<TRIPOS>MOLECULE
/home/cewinharhar/GITHUB/reincatalyze/data/processed/docking_pred/2023-May-31-1727_sub9_nm5_bs15_s42_ex16_mel10_mts10000_k50_ec075_g099_lra3e-4_lrc3e-3/c054a7f490e8e5c171bc57af56a9ae5cb4d717f8_ligand_9.pdbqt
 14 15 0 0 0
SMALL
GASTEIGER

@<TRIPOS>ATOM
      1  C          6.1770    1.2800    0.8640 C.3     1  UNL1        0.0800
      2  C          5.5360    0.4530    1.9020 C.2     1  UNL1        0.1300
      3  C          6.3470   -0.7430    2.3740 C.3     1  UNL1        0.0870
      4  O          4.4630    0.6120    2.4120 O.2     1  UNL1       -0.3000
      5  C          5.8620    0.9270   -0.5360 C.3     1  UNL1        0.0430
      6  C          6.8740    0.1730   -1.2810 C.2     1  UNL1       -0.0440
      7  C          7.9080    0.8030   -1.9760 C.2     1  UNL1        0.0080
      8  C          6.8410   -1.2020   -1.2890 C.2     1  UNL1        0.0540
      9  C          8.8360    0.0340   -2.6290 C.2     1  UNL1        0.0510
     10  C          7.8050   -1.9640   -1.9660 C.2     1  UNL1        0.1660
     11  C          8.8250   -1.3430   -2.6520 C.2     1  UNL1        0.1650
     12  O          8.0190   -3.3260   -2.1420 O.2     1  UNL1       -0.4540
     13  O          9.6400   -2.3240   -3.2320 O.2     1  UNL1       -0.4540
     14  C          9.3810   -3.5050   -2.5010 C.3     1  UNL1        0.4680
@<TRIPOS>BOND
     1    13    11    1
     2    13    14    1
     3    11     9    2
     4    11    10    1
     5     9     7    1
     6    14    12    1
     7    12    10    1
     8     7     6    2
     9    10     8    2
    10     8     6    1
    11     6     5    1
    12     5     1    1
    13     1     2    1
    14     2     3    1
    15     2     4    2
