MODEL 1
REMARK VINA RESULT:      -7.6      0.000      0.000
REMARK SMILES CC(=O)CCc1ccc2c(c1)OCO2
REMARK SMILES IDX 4 1 2 2 1 3 3 4 5 5 6 6 7 7 11 8 8 9 10 10 9 11 12 12 14 13
REMARK SMILES IDX 13 14
REMARK H PARENT
REMARK Flexibility Score: inf
ROOT
ATOM      1  C   UNL     1       5.614   1.875   1.236  1.00  0.00     0.080 C 
ENDROOT
BRANCH   1   2
ATOM      2  C   UNL     1       5.113   0.721   2.005  1.00  0.00     0.130 C 
ATOM      3  C   UNL     1       6.094  -0.428   2.167  1.00  0.00     0.087 C 
ATOM      4  O   UNL     1       4.035   0.587   2.510  1.00  0.00    -0.300 OA
ENDBRANCH   1   2
BRANCH   1   5
ATOM      5  C   UNL     1       5.594   1.736  -0.235  1.00  0.00     0.043 C 
BRANCH   5   6
ATOM      6  C   UNL     1       6.688   0.981  -0.852  1.00  0.00    -0.044 A 
ATOM      7  C   UNL     1       8.026   1.337  -0.681  1.00  0.00     0.008 A 
ATOM      8  C   UNL     1       6.414  -0.135  -1.608  1.00  0.00     0.054 A 
ATOM      9  C   UNL     1       9.000   0.570  -1.266  1.00  0.00     0.051 A 
ATOM     10  C   UNL     1       7.431  -0.903  -2.195  1.00  0.00     0.166 A 
ATOM     11  C   UNL     1       8.752  -0.551  -2.027  1.00  0.00     0.165 A 
ATOM     12  O   UNL     1       7.452  -2.045  -2.986  1.00  0.00    -0.454 OA
ATOM     13  O   UNL     1       9.554  -1.474  -2.709  1.00  0.00    -0.454 OA
ATOM     14  C   UNL     1       8.746  -2.621  -2.875  1.00  0.00     0.468 C 
ENDBRANCH   5   6
ENDBRANCH   1   5
TORSDOF 3
ENDMDL
MODEL 2
REMARK VINA RESULT:      -7.0      1.007      1.072
REMARK SMILES CC(=O)CCc1ccc2c(c1)OCO2
REMARK SMILES IDX 4 1 2 2 1 3 3 4 5 5 6 6 7 7 11 8 8 9 10 10 9 11 12 12 14 13
REMARK SMILES IDX 13 14
REMARK H PARENT
REMARK Flexibility Score: inf
ROOT
ATOM      1  C   UNL     1       6.177   1.280   0.864  1.00  0.00     0.080 C 
ENDROOT
BRANCH   1   2
ATOM      2  C   UNL     1       5.536   0.453   1.902  1.00  0.00     0.130 C 
ATOM      3  C   UNL     1       6.347  -0.743   2.374  1.00  0.00     0.087 C 
ATOM      4  O   UNL     1       4.463   0.612   2.412  1.00  0.00    -0.300 OA
ENDBRANCH   1   2
BRANCH   1   5
ATOM      5  C   UNL     1       5.862   0.927  -0.536  1.00  0.00     0.043 C 
BRANCH   5   6
ATOM      6  C   UNL     1       6.874   0.173  -1.281  1.00  0.00    -0.044 A 
ATOM      7  C   UNL     1       7.908   0.803  -1.976  1.00  0.00     0.008 A 
ATOM      8  C   UNL     1       6.841  -1.202  -1.289  1.00  0.00     0.054 A 
ATOM      9  C   UNL     1       8.836   0.034  -2.629  1.00  0.00     0.051 A 
ATOM     10  C   UNL     1       7.805  -1.964  -1.966  1.00  0.00     0.166 A 
ATOM     11  C   UNL     1       8.825  -1.343  -2.652  1.00  0.00     0.165 A 
ATOM     12  O   UNL     1       8.019  -3.326  -2.142  1.00  0.00    -0.454 OA
ATOM     13  O   UNL     1       9.640  -2.324  -3.232  1.00  0.00    -0.454 OA
ATOM     14  C   UNL     1       9.381  -3.505  -2.501  1.00  0.00     0.468 C 
ENDBRANCH   5   6
ENDBRANCH   1   5
TORSDOF 3
ENDMDL
MODEL 3
REMARK VINA RESULT:      -6.9      1.894      2.381
REMARK SMILES CC(=O)CCc1ccc2c(c1)OCO2
REMARK SMILES IDX 4 1 2 2 1 3 3 4 5 5 6 6 7 7 11 8 8 9 10 10 9 11 12 12 14 13
REMARK SMILES IDX 13 14
REMARK H PARENT
REMARK Flexibility Score: inf
ROOT
ATOM      1  C   UNL     1       5.779   1.234  -0.327  1.00  0.00     0.080 C 
ENDROOT
BRANCH   1   2
ATOM      2  C   UNL     1       5.221   1.305   1.036  1.00  0.00     0.130 C 
ATOM      3  C   UNL     1       5.608   0.160   1.957  1.00  0.00     0.087 C 
ATOM      4  O   UNL     1       4.506   2.150   1.495  1.00  0.00    -0.300 OA
ENDBRANCH   1   2
BRANCH   1   5
ATOM      5  C   UNL     1       7.224   0.939  -0.424  1.00  0.00     0.043 C 
BRANCH   5   6
ATOM      6  C   UNL     1       7.606  -0.373  -0.953  1.00  0.00    -0.044 A 
ATOM      7  C   UNL     1       7.745  -0.612  -2.321  1.00  0.00     0.008 A 
ATOM      8  C   UNL     1       7.870  -1.412  -0.091  1.00  0.00     0.054 A 
ATOM      9  C   UNL     1       8.132  -1.857  -2.744  1.00  0.00     0.051 A 
ATOM     10  C   UNL     1       8.265  -2.677  -0.552  1.00  0.00     0.166 A 
ATOM     11  C   UNL     1       8.401  -2.914  -1.902  1.00  0.00     0.165 A 
ATOM     12  O   UNL     1       8.589  -3.879   0.066  1.00  0.00    -0.454 OA
ATOM     13  O   UNL     1       8.802  -4.243  -2.088  1.00  0.00    -0.454 OA
ATOM     14  C   UNL     1       9.357  -4.642  -0.852  1.00  0.00     0.468 C 
ENDBRANCH   5   6
ENDBRANCH   1   5
TORSDOF 3
ENDMDL
MODEL 4
REMARK VINA RESULT:      -6.8      1.919      2.463
REMARK SMILES CC(=O)CCc1ccc2c(c1)OCO2
REMARK SMILES IDX 4 1 2 2 1 3 3 4 5 5 6 6 7 7 11 8 8 9 10 10 9 11 12 12 14 13
REMARK SMILES IDX 13 14
REMARK H PARENT
REMARK Flexibility Score: inf
ROOT
ATOM      1  C   UNL     1       6.418   0.789   1.480  1.00  0.00     0.080 C 
ENDROOT
BRANCH   1   2
ATOM      2  C   UNL     1       5.114   1.423   1.216  1.00  0.00     0.130 C 
ATOM      3  C   UNL     1       5.002   2.150  -0.113  1.00  0.00     0.087 C 
ATOM      4  O   UNL     1       4.144   1.431   1.920  1.00  0.00    -0.300 OA
ENDBRANCH   1   2
BRANCH   1   5
ATOM      5  C   UNL     1       7.415   0.873   0.392  1.00  0.00     0.043 C 
BRANCH   5   6
ATOM      6  C   UNL     1       7.679  -0.350  -0.371  1.00  0.00    -0.044 A 
ATOM      7  C   UNL     1       7.655  -0.375  -1.767  1.00  0.00     0.008 A 
ATOM      8  C   UNL     1       7.989  -1.518   0.285  1.00  0.00     0.054 A 
ATOM      9  C   UNL     1       7.938  -1.549  -2.417  1.00  0.00     0.051 A 
ATOM     10  C   UNL     1       8.275  -2.706  -0.406  1.00  0.00     0.166 A 
ATOM     11  C   UNL     1       8.251  -2.731  -1.783  1.00  0.00     0.165 A 
ATOM     12  O   UNL     1       8.611  -3.998  -0.020  1.00  0.00    -0.454 OA
ATOM     13  O   UNL     1       8.569  -4.025  -2.215  1.00  0.00    -0.454 OA
ATOM     14  C   UNL     1       9.239  -4.627  -1.127  1.00  0.00     0.468 C 
ENDBRANCH   5   6
ENDBRANCH   1   5
TORSDOF 3
ENDMDL
MODEL 5
REMARK VINA RESULT:      -6.8      1.181      1.668
REMARK SMILES CC(=O)CCc1ccc2c(c1)OCO2
REMARK SMILES IDX 4 1 2 2 1 3 3 4 5 5 6 6 7 7 11 8 8 9 10 10 9 11 12 12 14 13
REMARK SMILES IDX 13 14
REMARK H PARENT
REMARK Flexibility Score: inf
ROOT
ATOM      1  C   UNL     1       5.365  -0.093   1.924  1.00  0.00     0.080 C 
ENDROOT
BRANCH   1   2
ATOM      2  C   UNL     1       4.443   1.055   1.856  1.00  0.00     0.130 C 
ATOM      3  C   UNL     1       4.787   2.104   0.812  1.00  0.00     0.087 C 
ATOM      4  O   UNL     1       3.465   1.253   2.519  1.00  0.00    -0.300 OA
ENDBRANCH   1   2
BRANCH   1   5
ATOM      5  C   UNL     1       6.793   0.204   1.685  1.00  0.00     0.043 C 
BRANCH   5   6
ATOM      6  C   UNL     1       7.335  -0.129   0.365  1.00  0.00    -0.044 A 
ATOM      7  C   UNL     1       7.747   0.852  -0.539  1.00  0.00     0.008 A 
ATOM      8  C   UNL     1       7.478  -1.444  -0.009  1.00  0.00     0.054 A 
ATOM      9  C   UNL     1       8.269   0.469  -1.747  1.00  0.00     0.051 A 
ATOM     10  C   UNL     1       8.017  -1.809  -1.253  1.00  0.00     0.166 A 
ATOM     11  C   UNL     1       8.423  -0.841  -2.145  1.00  0.00     0.165 A 
ATOM     12  O   UNL     1       8.274  -3.021  -1.883  1.00  0.00    -0.454 OA
ATOM     13  O   UNL     1       8.917  -1.468  -3.296  1.00  0.00    -0.454 OA
ATOM     14  C   UNL     1       9.242  -2.783  -2.894  1.00  0.00     0.468 C 
ENDBRANCH   5   6
ENDBRANCH   1   5
TORSDOF 3
ENDMDL
