@<TRIPOS>MOLECULE
/home/cewinharhar/GITHUB/reincatalyze/data/processed/docking_pred/2023-May-31-1727_sub9_nm5_bs15_s42_ex16_mel10_mts10000_k50_ec075_g099_lra3e-4_lrc3e-3/c054a7f490e8e5c171bc57af56a9ae5cb4d717f8_ligand_9.pdbqt
 14 15 0 0 0
SMALL
GASTEIGER

@<TRIPOS>ATOM
      1  C          5.6140    1.8750    1.2360 C.3     1  UNL1        0.0800
      2  C          5.1130    0.7210    2.0050 C.2     1  UNL1        0.1300
      3  C          6.0940   -0.4280    2.1670 C.3     1  UNL1        0.0870
      4  O          4.0350    0.5870    2.5100 O.2     1  UNL1       -0.3000
      5  C          5.5940    1.7360   -0.2350 C.3     1  UNL1        0.0430
      6  C          6.6880    0.9810   -0.8520 C.2     1  UNL1       -0.0440
      7  C          8.0260    1.3370   -0.6810 C.2     1  UNL1        0.0080
      8  C          6.4140   -0.1350   -1.6080 C.2     1  UNL1        0.0540
      9  C          9.0000    0.5700   -1.2660 C.2     1  UNL1        0.0510
     10  C          7.4310   -0.9030   -2.1950 C.2     1  UNL1        0.1660
     11  C          8.7520   -0.5510   -2.0270 C.2     1  UNL1        0.1650
     12  O          7.4520   -2.0450   -2.9860 O.2     1  UNL1       -0.4540
     13  O          9.5540   -1.4740   -2.7090 O.2     1  UNL1       -0.4540
     14  C          8.7460   -2.6210   -2.8750 C.3     1  UNL1        0.4680
@<TRIPOS>BOND
     1    12    14    1
     2    12    10    1
     3    14    13    1
     4    13    11    1
     5    10    11    2
     6    10     8    1
     7    11     9    1
     8     8     6    2
     9     9     7    2
    10     6     7    1
    11     6     5    1
    12     5     1    1
    13     1     2    1
    14     2     3    1
    15     2     4    2
