@<TRIPOS>MOLECULE
/home/cewinharhar/GITHUB/reincatalyze/data/processed/docking_pred/2023-May-31-1727_sub9_nm5_bs15_s42_ex16_mel10_mts10000_k50_ec075_g099_lra3e-4_lrc3e-3/c054a7f490e8e5c171bc57af56a9ae5cb4d717f8_ligand_9.pdbqt
 14 15 0 0 0
SMALL
GASTEIGER

@<TRIPOS>ATOM
      1  C          6.4180    0.7890    1.4800 C.3     1  UNL1        0.0800
      2  C          5.1140    1.4230    1.2160 C.2     1  UNL1        0.1300
      3  C          5.0020    2.1500   -0.1130 C.3     1  UNL1        0.0870
      4  O          4.1440    1.4310    1.9200 O.2     1  UNL1       -0.3000
      5  C          7.4150    0.8730    0.3920 C.3     1  UNL1        0.0430
      6  C          7.6790   -0.3500   -0.3710 C.2     1  UNL1       -0.0440
      7  C          7.6550   -0.3750   -1.7670 C.2     1  UNL1        0.0080
      8  C          7.9890   -1.5180    0.2850 C.2     1  UNL1        0.0540
      9  C          7.9380   -1.5490   -2.4170 C.2     1  UNL1        0.0510
     10  C          8.2750   -2.7060   -0.4060 C.2     1  UNL1        0.1660
     11  C          8.2510   -2.7310   -1.7830 C.2     1  UNL1        0.1650
     12  O          8.6110   -3.9980   -0.0200 O.2     1  UNL1       -0.4540
     13  O          8.5690   -4.0250   -2.2150 O.2     1  UNL1       -0.4540
     14  C          9.2390   -4.6270   -1.1270 C.3     1  UNL1        0.4680
@<TRIPOS>BOND
     1     9    11    2
     2     9     7    1
     3    13    11    1
     4    13    14    1
     5    11    10    1
     6     7     6    2
     7    14    12    1
     8    10    12    1
     9    10     8    2
    10     6     8    1
    11     6     5    1
    12     3     2    1
    13     5     1    1
    14     2     1    1
    15     2     4    2
