@<TRIPOS>MOLECULE
/home/cewinharhar/GITHUB/reincatalyze/data/processed/docking_pred/2023-May-31-1727_sub9_nm5_bs15_s42_ex16_mel10_mts10000_k50_ec075_g099_lra3e-4_lrc3e-3/c054a7f490e8e5c171bc57af56a9ae5cb4d717f8_ligand_9.pdbqt
 14 15 0 0 0
SMALL
GASTEIGER

@<TRIPOS>ATOM
      1  C          5.3650   -0.0930    1.9240 C.3     1  UNL1        0.0800
      2  C          4.4430    1.0550    1.8560 C.2     1  UNL1        0.1300
      3  C          4.7870    2.1040    0.8120 C.3     1  UNL1        0.0870
      4  O          3.4650    1.2530    2.5190 O.2     1  UNL1       -0.3000
      5  C          6.7930    0.2040    1.6850 C.3     1  UNL1        0.0430
      6  C          7.3350   -0.1290    0.3650 C.2     1  UNL1       -0.0440
      7  C          7.7470    0.8520   -0.5390 C.2     1  UNL1        0.0080
      8  C          7.4780   -1.4440   -0.0090 C.2     1  UNL1        0.0540
      9  C          8.2690    0.4690   -1.7470 C.2     1  UNL1        0.0510
     10  C          8.0170   -1.8090   -1.2530 C.2     1  UNL1        0.1660
     11  C          8.4230   -0.8410   -2.1450 C.2     1  UNL1        0.1650
     12  O          8.2740   -3.0210   -1.8830 O.2     1  UNL1       -0.4540
     13  O          8.9170   -1.4680   -3.2960 O.2     1  UNL1       -0.4540
     14  C          9.2420   -2.7830   -2.8940 C.3     1  UNL1        0.4680
@<TRIPOS>BOND
     1    13    14    1
     2    13    11    1
     3    14    12    1
     4    11     9    2
     5    11    10    1
     6    12    10    1
     7     9     7    1
     8    10     8    2
     9     7     6    2
    10     8     6    1
    11     6     5    1
    12     3     2    1
    13     5     1    1
    14     2     1    1
    15     2     4    2
