MODEL 1
REMARK VINA RESULT:      -7.5      0.000      0.000
REMARK SMILES CC(=O)CCc1ccc2c(c1)OCO2
REMARK SMILES IDX 4 1 2 2 1 3 3 4 5 5 6 6 7 7 11 8 8 9 10 10 9 11 12 12 14 13
REMARK SMILES IDX 13 14
REMARK H PARENT
REMARK Flexibility Score: inf
ROOT
ATOM      1  C   UNL     1       5.529  -0.025   1.963  1.00  0.00     0.080 C 
ENDROOT
BRANCH   1   2
ATOM      2  C   UNL     1       5.369   1.116   1.043  1.00  0.00     0.130 C 
ATOM      3  C   UNL     1       6.082   0.980  -0.292  1.00  0.00     0.087 C 
ATOM      4  O   UNL     1       4.750   2.126   1.224  1.00  0.00    -0.300 OA
ENDBRANCH   1   2
BRANCH   1   5
ATOM      5  C   UNL     1       6.361  -1.144   1.474  1.00  0.00     0.043 C 
BRANCH   5   6
ATOM      6  C   UNL     1       7.543  -1.496   2.266  1.00  0.00    -0.044 A 
ATOM      7  C   UNL     1       7.645  -1.193   3.625  1.00  0.00     0.008 A 
ATOM      8  C   UNL     1       8.587  -2.174   1.681  1.00  0.00     0.054 A 
ATOM      9  C   UNL     1       8.768  -1.577   4.311  1.00  0.00     0.051 A 
ATOM     10  C   UNL     1       9.726  -2.555   2.408  1.00  0.00     0.166 A 
ATOM     11  C   UNL     1       9.827  -2.255   3.748  1.00  0.00     0.165 A 
ATOM     12  O   UNL     1      10.900  -3.227   2.091  1.00  0.00    -0.454 OA
ATOM     13  O   UNL     1      11.049  -2.743   4.228  1.00  0.00    -0.454 OA
ATOM     14  C   UNL     1      11.445  -3.733   3.301  1.00  0.00     0.468 C 
ENDBRANCH   5   6
ENDBRANCH   1   5
TORSDOF 3
ENDMDL
MODEL 2
REMARK VINA RESULT:      -7.3      3.797      4.873
REMARK SMILES CC(=O)CCc1ccc2c(c1)OCO2
REMARK SMILES IDX 4 1 2 2 1 3 3 4 5 5 6 6 7 7 11 8 8 9 10 10 9 11 12 12 14 13
REMARK SMILES IDX 13 14
REMARK H PARENT
REMARK Flexibility Score: inf
ROOT
ATOM      1  C   UNL     1       5.513   1.915   1.184  1.00  0.00     0.080 C 
ENDROOT
BRANCH   1   2
ATOM      2  C   UNL     1       5.024   0.775   1.980  1.00  0.00     0.130 C 
ATOM      3  C   UNL     1       5.997  -0.382   2.126  1.00  0.00     0.087 C 
ATOM      4  O   UNL     1       3.960   0.658   2.520  1.00  0.00    -0.300 OA
ENDBRANCH   1   2
BRANCH   1   5
ATOM      5  C   UNL     1       5.501   1.738  -0.283  1.00  0.00     0.043 C 
BRANCH   5   6
ATOM      6  C   UNL     1       6.616   0.995  -0.878  1.00  0.00    -0.044 A 
ATOM      7  C   UNL     1       7.947   1.358  -0.668  1.00  0.00     0.008 A 
ATOM      8  C   UNL     1       6.369  -0.116  -1.650  1.00  0.00     0.054 A 
ATOM      9  C   UNL     1       8.941   0.601  -1.233  1.00  0.00     0.051 A 
ATOM     10  C   UNL     1       7.406  -0.873  -2.217  1.00  0.00     0.166 A 
ATOM     11  C   UNL     1       8.720  -0.515  -2.010  1.00  0.00     0.165 A 
ATOM     12  O   UNL     1       7.455  -2.008  -3.016  1.00  0.00    -0.454 OA
ATOM     13  O   UNL     1       9.545  -1.427  -2.679  1.00  0.00    -0.454 OA
ATOM     14  C   UNL     1       8.749  -2.577  -2.875  1.00  0.00     0.468 C 
ENDBRANCH   5   6
ENDBRANCH   1   5
TORSDOF 3
ENDMDL
MODEL 3
REMARK VINA RESULT:      -7.2      1.012      1.352
REMARK SMILES CC(=O)CCc1ccc2c(c1)OCO2
REMARK SMILES IDX 4 1 2 2 1 3 3 4 5 5 6 6 7 7 11 8 8 9 10 10 9 11 12 12 14 13
REMARK SMILES IDX 13 14
REMARK H PARENT
REMARK Flexibility Score: inf
ROOT
ATOM      1  C   UNL     1       6.875  -0.510   1.830  1.00  0.00     0.080 C 
ENDROOT
BRANCH   1   2
ATOM      2  C   UNL     1       5.682   0.328   1.616  1.00  0.00     0.130 C 
ATOM      3  C   UNL     1       5.615   1.031   0.271  1.00  0.00     0.087 C 
ATOM      4  O   UNL     1       4.771   0.517   2.371  1.00  0.00    -0.300 OA
ENDBRANCH   1   2
BRANCH   1   5
ATOM      5  C   UNL     1       7.104  -0.976   3.214  1.00  0.00     0.043 C 
BRANCH   5   6
ATOM      6  C   UNL     1       8.414  -1.558   3.518  1.00  0.00    -0.044 A 
ATOM      7  C   UNL     1       9.015  -1.426   4.771  1.00  0.00     0.008 A 
ATOM      8  C   UNL     1       9.082  -2.287   2.562  1.00  0.00     0.054 A 
ATOM      9  C   UNL     1      10.230  -2.020   4.994  1.00  0.00     0.051 A 
ATOM     10  C   UNL     1      10.326  -2.885   2.817  1.00  0.00     0.166 A 
ATOM     11  C   UNL     1      10.919  -2.754   4.053  1.00  0.00     0.165 A 
ATOM     12  O   UNL     1      11.206  -3.655   2.066  1.00  0.00    -0.454 OA
ATOM     13  O   UNL     1      12.141  -3.439   4.042  1.00  0.00    -0.454 OA
ATOM     14  C   UNL     1      12.043  -4.358   2.973  1.00  0.00     0.468 C 
ENDBRANCH   5   6
ENDBRANCH   1   5
TORSDOF 3
ENDMDL
MODEL 4
REMARK VINA RESULT:      -7.1      1.018      1.999
REMARK SMILES CC(=O)CCc1ccc2c(c1)OCO2
REMARK SMILES IDX 4 1 2 2 1 3 3 4 5 5 6 6 7 7 11 8 8 9 10 10 9 11 12 12 14 13
REMARK SMILES IDX 13 14
REMARK H PARENT
REMARK Flexibility Score: inf
ROOT
ATOM      1  C   UNL     1       5.459  -0.291   2.014  1.00  0.00     0.080 C 
ENDROOT
BRANCH   1   2
ATOM      2  C   UNL     1       5.251   0.947   1.241  1.00  0.00     0.130 C 
ATOM      3  C   UNL     1       5.889   0.967  -0.137  1.00  0.00     0.087 C 
ATOM      4  O   UNL     1       4.643   1.926   1.570  1.00  0.00    -0.300 OA
ENDBRANCH   1   2
BRANCH   1   5
ATOM      5  C   UNL     1       6.410  -1.266   1.439  1.00  0.00     0.043 C 
BRANCH   5   6
ATOM      6  C   UNL     1       7.602  -1.585   2.229  1.00  0.00    -0.044 A 
ATOM      7  C   UNL     1       8.693  -2.267   1.686  1.00  0.00     0.008 A 
ATOM      8  C   UNL     1       7.686  -1.185   3.542  1.00  0.00     0.054 A 
ATOM      9  C   UNL     1       9.788  -2.508   2.475  1.00  0.00     0.051 A 
ATOM     10  C   UNL     1       8.820  -1.444   4.327  1.00  0.00     0.166 A 
ATOM     11  C   UNL     1       9.896  -2.118   3.792  1.00  0.00     0.165 A 
ATOM     12  O   UNL     1       9.175  -1.169   5.642  1.00  0.00    -0.454 OA
ATOM     13  O   UNL     1      10.883  -2.244   4.777  1.00  0.00    -0.454 OA
ATOM     14  C   UNL     1      10.591  -1.242   5.729  1.00  0.00     0.468 C 
ENDBRANCH   5   6
ENDBRANCH   1   5
TORSDOF 3
ENDMDL
MODEL 5
REMARK VINA RESULT:      -7.0      1.075      1.120
REMARK SMILES CC(=O)CCc1ccc2c(c1)OCO2
REMARK SMILES IDX 4 1 2 2 1 3 3 4 5 5 6 6 7 7 11 8 8 9 10 10 9 11 12 12 14 13
REMARK SMILES IDX 13 14
REMARK H PARENT
REMARK Flexibility Score: inf
ROOT
ATOM      1  C   UNL     1       6.459   0.269   1.372  1.00  0.00     0.080 C 
ENDROOT
BRANCH   1   2
ATOM      2  C   UNL     1       6.085   0.648  -0.003  1.00  0.00     0.130 C 
ATOM      3  C   UNL     1       5.273   1.925  -0.127  1.00  0.00     0.087 C 
ATOM      4  O   UNL     1       6.346   0.072  -1.021  1.00  0.00    -0.300 OA
ENDBRANCH   1   2
BRANCH   1   5
ATOM      5  C   UNL     1       6.626  -1.177   1.626  1.00  0.00     0.043 C 
BRANCH   5   6
ATOM      6  C   UNL     1       7.809  -1.591   2.387  1.00  0.00    -0.044 A 
ATOM      7  C   UNL     1       7.951  -1.317   3.748  1.00  0.00     0.008 A 
ATOM      8  C   UNL     1       8.813  -2.299   1.768  1.00  0.00     0.054 A 
ATOM      9  C   UNL     1       9.072  -1.758   4.403  1.00  0.00     0.051 A 
ATOM     10  C   UNL     1       9.950  -2.739   2.463  1.00  0.00     0.166 A 
ATOM     11  C   UNL     1      10.091  -2.467   3.806  1.00  0.00     0.165 A 
ATOM     12  O   UNL     1      11.089  -3.451   2.110  1.00  0.00    -0.454 OA
ATOM     13  O   UNL     1      11.302  -3.013   4.251  1.00  0.00    -0.454 OA
ATOM     14  C   UNL     1      11.638  -4.000   3.299  1.00  0.00     0.468 C 
ENDBRANCH   5   6
ENDBRANCH   1   5
TORSDOF 3
ENDMDL
