@<TRIPOS>MOLECULE
/home/cewinharhar/GITHUB/reincatalyze/data/processed/docking_pred/2023-May-31-1727_sub9_nm5_bs15_s42_ex16_mel10_mts10000_k50_ec075_g099_lra3e-4_lrc3e-3/c1e407d4abf657a23e7fbbacfb8eba162f3b2d32_ligand_9.pdbqt
 14 15 0 0 0
SMALL
GASTEIGER

@<TRIPOS>ATOM
      1  C          5.5130    1.9150    1.1840 C.3     1  UNL1        0.0800
      2  C          5.0240    0.7750    1.9800 C.2     1  UNL1        0.1300
      3  C          5.9970   -0.3820    2.1260 C.3     1  UNL1        0.0870
      4  O          3.9600    0.6580    2.5200 O.2     1  UNL1       -0.3000
      5  C          5.5010    1.7380   -0.2830 C.3     1  UNL1        0.0430
      6  C          6.6160    0.9950   -0.8780 C.2     1  UNL1       -0.0440
      7  C          7.9470    1.3580   -0.6680 C.2     1  UNL1        0.0080
      8  C          6.3690   -0.1160   -1.6500 C.2     1  UNL1        0.0540
      9  C          8.9410    0.6010   -1.2330 C.2     1  UNL1        0.0510
     10  C          7.4060   -0.8730   -2.2170 C.2     1  UNL1        0.1660
     11  C          8.7200   -0.5150   -2.0100 C.2     1  UNL1        0.1650
     12  O          7.4550   -2.0080   -3.0160 O.2     1  UNL1       -0.4540
     13  O          9.5450   -1.4270   -2.6790 O.2     1  UNL1       -0.4540
     14  C          8.7490   -2.5770   -2.8750 C.3     1  UNL1        0.4680
@<TRIPOS>BOND
     1    12    14    1
     2    12    10    1
     3    14    13    1
     4    13    11    1
     5    10    11    2
     6    10     8    1
     7    11     9    1
     8     8     6    2
     9     9     7    2
    10     6     7    1
    11     6     5    1
    12     5     1    1
    13     1     2    1
    14     2     3    1
    15     2     4    2
