@<TRIPOS>MOLECULE
/home/cewinharhar/GITHUB/reincatalyze/data/processed/docking_pred/2023-May-31-1727_sub9_nm5_bs15_s42_ex16_mel10_mts10000_k50_ec075_g099_lra3e-4_lrc3e-3/c1e407d4abf657a23e7fbbacfb8eba162f3b2d32_ligand_9.pdbqt
 14 15 0 0 0
SMALL
GASTEIGER

@<TRIPOS>ATOM
      1  C          5.5290   -0.0250    1.9630 C.3     1  UNL1        0.0800
      2  C          5.3690    1.1160    1.0430 C.2     1  UNL1        0.1300
      3  C          6.0820    0.9800   -0.2920 C.3     1  UNL1        0.0870
      4  O          4.7500    2.1260    1.2240 O.2     1  UNL1       -0.3000
      5  C          6.3610   -1.1440    1.4740 C.3     1  UNL1        0.0430
      6  C          7.5430   -1.4960    2.2660 C.2     1  UNL1       -0.0440
      7  C          7.6450   -1.1930    3.6250 C.2     1  UNL1        0.0080
      8  C          8.5870   -2.1740    1.6810 C.2     1  UNL1        0.0540
      9  C          8.7680   -1.5770    4.3110 C.2     1  UNL1        0.0510
     10  C          9.7260   -2.5550    2.4080 C.2     1  UNL1        0.1660
     11  C          9.8270   -2.2550    3.7480 C.2     1  UNL1        0.1650
     12  O         10.9000   -3.2270    2.0910 O.2     1  UNL1       -0.4540
     13  O         11.0490   -2.7430    4.2280 O.2     1  UNL1       -0.4540
     14  C         11.4450   -3.7330    3.3010 C.3     1  UNL1        0.4680
@<TRIPOS>BOND
     1     3     2    1
     2     2     4    2
     3     2     1    1
     4     5     1    1
     5     5     6    1
     6     8     6    2
     7     8    10    1
     8    12    10    1
     9    12    14    1
    10     6     7    1
    11    10    11    2
    12    14    13    1
    13     7     9    2
    14    11    13    1
    15    11     9    1
