@<TRIPOS>MOLECULE
/home/cewinharhar/GITHUB/reincatalyze/data/processed/docking_pred/2023-May-31-1727_sub9_nm5_bs15_s42_ex16_mel10_mts10000_k50_ec075_g099_lra3e-4_lrc3e-3/c1e407d4abf657a23e7fbbacfb8eba162f3b2d32_ligand_9.pdbqt
 14 15 0 0 0
SMALL
GASTEIGER

@<TRIPOS>ATOM
      1  C          5.4590   -0.2910    2.0140 C.3     1  UNL1        0.0800
      2  C          5.2510    0.9470    1.2410 C.2     1  UNL1        0.1300
      3  C          5.8890    0.9670   -0.1370 C.3     1  UNL1        0.0870
      4  O          4.6430    1.9260    1.5700 O.2     1  UNL1       -0.3000
      5  C          6.4100   -1.2660    1.4390 C.3     1  UNL1        0.0430
      6  C          7.6020   -1.5850    2.2290 C.2     1  UNL1       -0.0440
      7  C          8.6930   -2.2670    1.6860 C.2     1  UNL1        0.0080
      8  C          7.6860   -1.1850    3.5420 C.2     1  UNL1        0.0540
      9  C          9.7880   -2.5080    2.4750 C.2     1  UNL1        0.0510
     10  C          8.8200   -1.4440    4.3270 C.2     1  UNL1        0.1660
     11  C          9.8960   -2.1180    3.7920 C.2     1  UNL1        0.1650
     12  O          9.1750   -1.1690    5.6420 O.2     1  UNL1       -0.4540
     13  O         10.8830   -2.2440    4.7770 O.2     1  UNL1       -0.4540
     14  C         10.5910   -1.2420    5.7290 C.3     1  UNL1        0.4680
@<TRIPOS>BOND
     1     3     2    1
     2     2     4    2
     3     2     1    1
     4     5     1    1
     5     5     6    1
     6     7     6    2
     7     7     9    1
     8     6     8    1
     9     9    11    2
    10     8    10    2
    11    11    10    1
    12    11    13    1
    13    10    12    1
    14    13    14    1
    15    12    14    1
