@<TRIPOS>MOLECULE
/home/cewinharhar/GITHUB/reincatalyze/data/processed/docking_pred/2023-May-31-1727_sub9_nm5_bs15_s42_ex16_mel10_mts10000_k50_ec075_g099_lra3e-4_lrc3e-3/c1e407d4abf657a23e7fbbacfb8eba162f3b2d32_ligand_9.pdbqt
 14 15 0 0 0
SMALL
GASTEIGER

@<TRIPOS>ATOM
      1  C          6.4590    0.2690    1.3720 C.3     1  UNL1        0.0800
      2  C          6.0850    0.6480   -0.0030 C.2     1  UNL1        0.1300
      3  C          5.2730    1.9250   -0.1270 C.3     1  UNL1        0.0870
      4  O          6.3460    0.0720   -1.0210 O.2     1  UNL1       -0.3000
      5  C          6.6260   -1.1770    1.6260 C.3     1  UNL1        0.0430
      6  C          7.8090   -1.5910    2.3870 C.2     1  UNL1       -0.0440
      7  C          7.9510   -1.3170    3.7480 C.2     1  UNL1        0.0080
      8  C          8.8130   -2.2990    1.7680 C.2     1  UNL1        0.0540
      9  C          9.0720   -1.7580    4.4030 C.2     1  UNL1        0.0510
     10  C          9.9500   -2.7390    2.4630 C.2     1  UNL1        0.1660
     11  C         10.0910   -2.4670    3.8060 C.2     1  UNL1        0.1650
     12  O         11.0890   -3.4510    2.1100 O.2     1  UNL1       -0.4540
     13  O         11.3020   -3.0130    4.2510 O.2     1  UNL1       -0.4540
     14  C         11.6380   -4.0000    3.2990 C.3     1  UNL1        0.4680
@<TRIPOS>BOND
     1     4     2    2
     2     3     2    1
     3     2     1    1
     4     1     5    1
     5     5     6    1
     6     8     6    2
     7     8    10    1
     8    12    10    1
     9    12    14    1
    10     6     7    1
    11    10    11    2
    12    14    13    1
    13     7     9    2
    14    11    13    1
    15    11     9    1
