@<TRIPOS>MOLECULE
/home/cewinharhar/GITHUB/reincatalyze/data/processed/docking_pred/2023-May-31-1727_sub9_nm5_bs15_s42_ex16_mel10_mts10000_k50_ec075_g099_lra3e-4_lrc3e-3/c1e407d4abf657a23e7fbbacfb8eba162f3b2d32_ligand_9.pdbqt
 14 15 0 0 0
SMALL
GASTEIGER

@<TRIPOS>ATOM
      1  C          6.8750   -0.5100    1.8300 C.2     1  UNL1        0.0800
      2  C          5.6820    0.3280    1.6160 C.2     1  UNL1        0.1300
      3  C          5.6150    1.0310    0.2710 C.3     1  UNL1        0.0870
      4  O          4.7710    0.5170    2.3710 O.2     1  UNL1       -0.3000
      5  C          7.1040   -0.9760    3.2140 C.2     1  UNL1        0.0430
      6  C          8.4140   -1.5580    3.5180 C.2     1  UNL1       -0.0440
      7  C          9.0150   -1.4260    4.7710 C.2     1  UNL1        0.0080
      8  C          9.0820   -2.2870    2.5620 C.2     1  UNL1        0.0540
      9  C         10.2300   -2.0200    4.9940 C.2     1  UNL1        0.0510
     10  C         10.3260   -2.8850    2.8170 C.2     1  UNL1        0.1660
     11  C         10.9190   -2.7540    4.0530 C.2     1  UNL1        0.1650
     12  O         11.2060   -3.6550    2.0660 O.2     1  UNL1       -0.4540
     13  O         12.1410   -3.4390    4.0420 O.2     1  UNL1       -0.4540
     14  C         12.0430   -4.3580    2.9730 C.3     1  UNL1        0.4680
@<TRIPOS>BOND
     1     3     2    1
     2     2     1    1
     3     2     4    2
     4     1     5    2
     5    12    10    1
     6    12    14    1
     7     8    10    1
     8     8     6    2
     9    10    11    2
    10    14    13    1
    11     5     6    1
    12     6     7    1
    13    13    11    1
    14    11     9    1
    15     7     9    2
