@<TRIPOS>MOLECULE
/home/cewinharhar/GITHUB/reincatalyze/data/processed/docking_pred/2023-May-31-1727_sub9_nm5_bs15_s42_ex16_mel10_mts10000_k50_ec075_g099_lra3e-4_lrc3e-3/c2b16f598521213e119e3a09a49f7e8c9c89cc3b_ligand_9.pdbqt
 14 15 0 0 0
SMALL
GASTEIGER

@<TRIPOS>ATOM
      1  C          5.5210    1.9090    1.2130 C.3     1  UNL1        0.0800
      2  C          5.0080    0.7670    1.9920 C.2     1  UNL1        0.1300
      3  C          5.9660   -0.4030    2.1370 C.3     1  UNL1        0.0870
      4  O          3.9370    0.6570    2.5170 O.2     1  UNL1       -0.3000
      5  C          5.5110    1.7530   -0.2560 C.3     1  UNL1        0.0430
      6  C          6.6220    1.0110   -0.8590 C.2     1  UNL1       -0.0440
      7  C          7.9540    1.3890   -0.6780 C.2     1  UNL1        0.0080
      8  C          6.3720   -0.1140   -1.6100 C.2     1  UNL1        0.0540
      9  C          8.9440    0.6330   -1.2490 C.2     1  UNL1        0.0510
     10  C          7.4060   -0.8700   -2.1820 C.2     1  UNL1        0.1660
     11  C          8.7200   -0.4970   -2.0040 C.2     1  UNL1        0.1650
     12  O          7.4520   -2.0170   -2.9650 O.2     1  UNL1       -0.4540
     13  O          9.5430   -1.4120   -2.6730 O.2     1  UNL1       -0.4540
     14  C          8.7530   -2.5720   -2.8380 C.3     1  UNL1        0.4680
@<TRIPOS>BOND
     1    12    14    1
     2    12    10    1
     3    14    13    1
     4    13    11    1
     5    10    11    2
     6    10     8    1
     7    11     9    1
     8     8     6    2
     9     9     7    2
    10     6     7    1
    11     6     5    1
    12     5     1    1
    13     1     2    1
    14     2     3    1
    15     2     4    2
