MODEL 1
REMARK VINA RESULT:      -7.6      0.000      0.000
REMARK SMILES CC(=O)CCc1ccc2c(c1)OCO2
REMARK SMILES IDX 4 1 2 2 1 3 3 4 5 5 6 6 7 7 11 8 8 9 10 10 9 11 12 12 14 13
REMARK SMILES IDX 13 14
REMARK H PARENT
REMARK Flexibility Score: inf
ROOT
ATOM      1  C   UNL     1       5.521   1.909   1.213  1.00  0.00     0.080 C 
ENDROOT
BRANCH   1   2
ATOM      2  C   UNL     1       5.008   0.767   1.992  1.00  0.00     0.130 C 
ATOM      3  C   UNL     1       5.966  -0.403   2.137  1.00  0.00     0.087 C 
ATOM      4  O   UNL     1       3.937   0.657   2.517  1.00  0.00    -0.300 OA
ENDBRANCH   1   2
BRANCH   1   5
ATOM      5  C   UNL     1       5.511   1.753  -0.256  1.00  0.00     0.043 C 
BRANCH   5   6
ATOM      6  C   UNL     1       6.622   1.011  -0.859  1.00  0.00    -0.044 A 
ATOM      7  C   UNL     1       7.954   1.389  -0.678  1.00  0.00     0.008 A 
ATOM      8  C   UNL     1       6.372  -0.114  -1.610  1.00  0.00     0.054 A 
ATOM      9  C   UNL     1       8.944   0.633  -1.249  1.00  0.00     0.051 A 
ATOM     10  C   UNL     1       7.406  -0.870  -2.182  1.00  0.00     0.166 A 
ATOM     11  C   UNL     1       8.720  -0.497  -2.004  1.00  0.00     0.165 A 
ATOM     12  O   UNL     1       7.452  -2.017  -2.965  1.00  0.00    -0.454 OA
ATOM     13  O   UNL     1       9.543  -1.412  -2.673  1.00  0.00    -0.454 OA
ATOM     14  C   UNL     1       8.753  -2.572  -2.838  1.00  0.00     0.468 C 
ENDBRANCH   5   6
ENDBRANCH   1   5
TORSDOF 3
ENDMDL
MODEL 2
REMARK VINA RESULT:      -7.0      1.829      2.300
REMARK SMILES CC(=O)CCc1ccc2c(c1)OCO2
REMARK SMILES IDX 4 1 2 2 1 3 3 4 5 5 6 6 7 7 11 8 8 9 10 10 9 11 12 12 14 13
REMARK SMILES IDX 13 14
REMARK H PARENT
REMARK Flexibility Score: inf
ROOT
ATOM      1  C   UNL     1       5.823   1.483  -0.306  1.00  0.00     0.080 C 
ENDROOT
BRANCH   1   2
ATOM      2  C   UNL     1       5.098   1.423   0.976  1.00  0.00     0.130 C 
ATOM      3  C   UNL     1       5.518   0.299   1.908  1.00  0.00     0.087 C 
ATOM      4  O   UNL     1       4.228   2.150   1.363  1.00  0.00    -0.300 OA
ENDBRANCH   1   2
BRANCH   1   5
ATOM      5  C   UNL     1       7.242   1.069  -0.273  1.00  0.00     0.043 C 
BRANCH   5   6
ATOM      6  C   UNL     1       7.576  -0.227  -0.869  1.00  0.00    -0.044 A 
ATOM      7  C   UNL     1       7.657  -0.412  -2.250  1.00  0.00     0.008 A 
ATOM      8  C   UNL     1       7.850  -1.306  -0.061  1.00  0.00     0.054 A 
ATOM      9  C   UNL     1       8.001  -1.646  -2.738  1.00  0.00     0.051 A 
ATOM     10  C   UNL     1       8.200  -2.559  -0.588  1.00  0.00     0.166 A 
ATOM     11  C   UNL     1       8.280  -2.741  -1.951  1.00  0.00     0.165 A 
ATOM     12  O   UNL     1       8.521  -3.791  -0.033  1.00  0.00    -0.454 OA
ATOM     13  O   UNL     1       8.645  -4.069  -2.207  1.00  0.00    -0.454 OA
ATOM     14  C   UNL     1       9.238  -4.531  -1.011  1.00  0.00     0.468 C 
ENDBRANCH   5   6
ENDBRANCH   1   5
TORSDOF 3
ENDMDL
MODEL 3
REMARK VINA RESULT:      -7.0      1.111      1.206
REMARK SMILES CC(=O)CCc1ccc2c(c1)OCO2
REMARK SMILES IDX 4 1 2 2 1 3 3 4 5 5 6 6 7 7 11 8 8 9 10 10 9 11 12 12 14 13
REMARK SMILES IDX 13 14
REMARK H PARENT
REMARK Flexibility Score: inf
ROOT
ATOM      1  C   UNL     1       6.218   1.263   0.864  1.00  0.00     0.080 C 
ENDROOT
BRANCH   1   2
ATOM      2  C   UNL     1       5.590   0.450   1.921  1.00  0.00     0.130 C 
ATOM      3  C   UNL     1       6.421  -0.719   2.422  1.00  0.00     0.087 C 
ATOM      4  O   UNL     1       4.514   0.604   2.425  1.00  0.00    -0.300 OA
ENDBRANCH   1   2
BRANCH   1   5
ATOM      5  C   UNL     1       5.857   0.915  -0.527  1.00  0.00     0.043 C 
BRANCH   5   6
ATOM      6  C   UNL     1       6.832   0.140  -1.299  1.00  0.00    -0.044 A 
ATOM      7  C   UNL     1       7.761   0.747  -2.147  1.00  0.00     0.008 A 
ATOM      8  C   UNL     1       6.873  -1.230  -1.180  1.00  0.00     0.054 A 
ATOM      9  C   UNL     1       8.662  -0.038  -2.818  1.00  0.00     0.051 A 
ATOM     10  C   UNL     1       7.808  -2.009  -1.879  1.00  0.00     0.166 A 
ATOM     11  C   UNL     1       8.723  -1.410  -2.717  1.00  0.00     0.165 A 
ATOM     12  O   UNL     1       8.077  -3.370  -1.953  1.00  0.00    -0.454 OA
ATOM     13  O   UNL     1       9.531  -2.403  -3.285  1.00  0.00    -0.454 OA
ATOM     14  C   UNL     1       9.407  -3.520  -2.429  1.00  0.00     0.468 C 
ENDBRANCH   5   6
ENDBRANCH   1   5
TORSDOF 3
ENDMDL
MODEL 4
REMARK VINA RESULT:      -6.8      1.856      2.392
REMARK SMILES CC(=O)CCc1ccc2c(c1)OCO2
REMARK SMILES IDX 4 1 2 2 1 3 3 4 5 5 6 6 7 7 11 8 8 9 10 10 9 11 12 12 14 13
REMARK SMILES IDX 13 14
REMARK H PARENT
REMARK Flexibility Score: inf
ROOT
ATOM      1  C   UNL     1       6.808   0.994   1.401  1.00  0.00     0.080 C 
ENDROOT
BRANCH   1   2
ATOM      2  C   UNL     1       5.349   1.196   1.456  1.00  0.00     0.130 C 
ATOM      3  C   UNL     1       4.785   2.150   0.417  1.00  0.00     0.087 C 
ATOM      4  O   UNL     1       4.566   0.700   2.216  1.00  0.00    -0.300 OA
ENDBRANCH   1   2
BRANCH   1   5
ATOM      5  C   UNL     1       7.424   1.060   0.059  1.00  0.00     0.043 C 
BRANCH   5   6
ATOM      6  C   UNL     1       7.680  -0.211  -0.625  1.00  0.00    -0.044 A 
ATOM      7  C   UNL     1       7.690  -0.318  -2.017  1.00  0.00     0.008 A 
ATOM      8  C   UNL     1       7.948  -1.344   0.106  1.00  0.00     0.054 A 
ATOM      9  C   UNL     1       7.964  -1.533  -2.590  1.00  0.00     0.051 A 
ATOM     10  C   UNL     1       8.225  -2.576  -0.506  1.00  0.00     0.166 A 
ATOM     11  C   UNL     1       8.235  -2.682  -1.880  1.00  0.00     0.165 A 
ATOM     12  O   UNL     1       8.522  -3.850  -0.037  1.00  0.00    -0.454 OA
ATOM     13  O   UNL     1       8.535  -4.005  -2.227  1.00  0.00    -0.454 OA
ATOM     14  C   UNL     1       9.164  -4.556  -1.089  1.00  0.00     0.468 C 
ENDBRANCH   5   6
ENDBRANCH   1   5
TORSDOF 3
ENDMDL
MODEL 5
REMARK VINA RESULT:      -6.8      1.172      1.666
REMARK SMILES CC(=O)CCc1ccc2c(c1)OCO2
REMARK SMILES IDX 4 1 2 2 1 3 3 4 5 5 6 6 7 7 11 8 8 9 10 10 9 11 12 12 14 13
REMARK SMILES IDX 13 14
REMARK H PARENT
REMARK Flexibility Score: inf
ROOT
ATOM      1  C   UNL     1       5.377  -0.086   1.930  1.00  0.00     0.080 C 
ENDROOT
BRANCH   1   2
ATOM      2  C   UNL     1       4.442   1.052   1.871  1.00  0.00     0.130 C 
ATOM      3  C   UNL     1       4.757   2.097   0.815  1.00  0.00     0.087 C 
ATOM      4  O   UNL     1       3.474   1.245   2.550  1.00  0.00    -0.300 OA
ENDBRANCH   1   2
BRANCH   1   5
ATOM      5  C   UNL     1       6.801   0.227   1.688  1.00  0.00     0.043 C 
BRANCH   5   6
ATOM      6  C   UNL     1       7.349  -0.119   0.374  1.00  0.00    -0.044 A 
ATOM      7  C   UNL     1       7.793   0.851  -0.526  1.00  0.00     0.008 A 
ATOM      8  C   UNL     1       7.467  -1.438   0.003  1.00  0.00     0.054 A 
ATOM      9  C   UNL     1       8.320   0.454  -1.728  1.00  0.00     0.051 A 
ATOM     10  C   UNL     1       8.011  -1.817  -1.234  1.00  0.00     0.166 A 
ATOM     11  C   UNL     1       8.448  -0.859  -2.122  1.00  0.00     0.165 A 
ATOM     12  O   UNL     1       8.247  -3.035  -1.860  1.00  0.00    -0.454 OA
ATOM     13  O   UNL     1       8.941  -1.499  -3.267  1.00  0.00    -0.454 OA
ATOM     14  C   UNL     1       9.231  -2.820  -2.861  1.00  0.00     0.468 C 
ENDBRANCH   5   6
ENDBRANCH   1   5
TORSDOF 3
ENDMDL
