@<TRIPOS>MOLECULE
/home/cewinharhar/GITHUB/reincatalyze/data/processed/docking_pred/2023-May-31-1727_sub9_nm5_bs15_s42_ex16_mel10_mts10000_k50_ec075_g099_lra3e-4_lrc3e-3/c2bbe2b0b698b4c34a14c6b9d782c5d04fb4e97c_ligand_9.pdbqt
 14 15 0 0 0
SMALL
GASTEIGER

@<TRIPOS>ATOM
      1  C          5.7240    1.3080   -0.3380 C.3     1  UNL1        0.0800
      2  C          5.1300    1.3520    1.0110 C.2     1  UNL1        0.1300
      3  C          5.5730    0.2440    1.9520 C.3     1  UNL1        0.0870
      4  O          4.3500    2.1500    1.4450 O.2     1  UNL1       -0.3000
      5  C          7.1740    1.0320   -0.4030 C.3     1  UNL1        0.0430
      6  C          7.5870   -0.2540   -0.9720 C.2     1  UNL1       -0.0440
      7  C          7.8260   -0.4220   -2.3370 C.2     1  UNL1        0.0080
      8  C          7.7770   -1.3410   -0.1500 C.2     1  UNL1        0.0540
      9  C          8.2360   -1.6460   -2.7960 C.2     1  UNL1        0.0510
     10  C          8.1980   -2.5840   -0.6480 C.2     1  UNL1        0.1660
     11  C          8.4340   -2.7490   -1.9950 C.2     1  UNL1        0.1650
     12  O          8.4660   -3.8200   -0.0730 O.2     1  UNL1       -0.4540
     13  O          8.8390   -4.0710   -2.2220 O.2     1  UNL1       -0.4540
     14  C          9.2960   -4.5410   -0.9720 C.3     1  UNL1        0.4680
@<TRIPOS>BOND
     1     9     7    1
     2     9    11    2
     3     7     6    2
     4    13    11    1
     5    13    14    1
     6    11    10    1
     7     6     5    1
     8     6     8    1
     9    14    12    1
    10    10     8    2
    11    10    12    1
    12     5     1    1
    13     1     2    1
    14     2     4    2
    15     2     3    1
