@<TRIPOS>MOLECULE
/home/cewinharhar/GITHUB/reincatalyze/data/processed/docking_pred/2023-May-31-1727_sub9_nm5_bs15_s42_ex16_mel10_mts10000_k50_ec075_g099_lra3e-4_lrc3e-3/c2bbe2b0b698b4c34a14c6b9d782c5d04fb4e97c_ligand_9.pdbqt
 14 15 0 0 0
SMALL
GASTEIGER

@<TRIPOS>ATOM
      1  C          5.5860    1.8630    1.2410 C.3     1  UNL1        0.0800
      2  C          5.0360    0.7320    2.0110 C.2     1  UNL1        0.1300
      3  C          5.9600   -0.4650    2.1580 C.3     1  UNL1        0.0870
      4  O          3.9580    0.6490    2.5270 O.2     1  UNL1       -0.3000
      5  C          5.5650    1.7210   -0.2300 C.3     1  UNL1        0.0430
      6  C          6.6650    0.9760   -0.8480 C.2     1  UNL1       -0.0440
      7  C          8.0000    1.3470   -0.6830 C.2     1  UNL1        0.0080
      8  C          6.4000   -0.1470   -1.5970 C.2     1  UNL1        0.0540
      9  C          8.9800    0.5870   -1.2680 C.2     1  UNL1        0.0510
     10  C          7.4230   -0.9070   -2.1840 C.2     1  UNL1        0.1660
     11  C          8.7410   -0.5400   -2.0220 C.2     1  UNL1        0.1650
     12  O          7.4540   -2.0530   -2.9690 O.2     1  UNL1       -0.4540
     13  O          9.5510   -1.4580   -2.7030 O.2     1  UNL1       -0.4540
     14  C          8.7540   -2.6140   -2.8600 C.3     1  UNL1        0.4680
@<TRIPOS>BOND
     1    12    14    1
     2    12    10    1
     3    14    13    1
     4    13    11    1
     5    10    11    2
     6    10     8    1
     7    11     9    1
     8     8     6    2
     9     9     7    2
    10     6     7    1
    11     6     5    1
    12     5     1    1
    13     1     2    1
    14     2     3    1
    15     2     4    2
