MODEL 1
REMARK VINA RESULT:      -7.6      0.000      0.000
REMARK SMILES CC(=O)CCc1ccc2c(c1)OCO2
REMARK SMILES IDX 4 1 2 2 1 3 3 4 5 5 6 6 7 7 11 8 8 9 10 10 9 11 12 12 14 13
REMARK SMILES IDX 13 14
REMARK H PARENT
REMARK Flexibility Score: inf
ROOT
ATOM      1  C   UNL     1       5.586   1.863   1.241  1.00  0.00     0.080 C 
ENDROOT
BRANCH   1   2
ATOM      2  C   UNL     1       5.036   0.732   2.011  1.00  0.00     0.130 C 
ATOM      3  C   UNL     1       5.960  -0.465   2.158  1.00  0.00     0.087 C 
ATOM      4  O   UNL     1       3.958   0.649   2.527  1.00  0.00    -0.300 OA
ENDBRANCH   1   2
BRANCH   1   5
ATOM      5  C   UNL     1       5.565   1.721  -0.230  1.00  0.00     0.043 C 
BRANCH   5   6
ATOM      6  C   UNL     1       6.665   0.976  -0.848  1.00  0.00    -0.044 A 
ATOM      7  C   UNL     1       8.000   1.347  -0.683  1.00  0.00     0.008 A 
ATOM      8  C   UNL     1       6.400  -0.147  -1.597  1.00  0.00     0.054 A 
ATOM      9  C   UNL     1       8.980   0.587  -1.268  1.00  0.00     0.051 A 
ATOM     10  C   UNL     1       7.423  -0.907  -2.184  1.00  0.00     0.166 A 
ATOM     11  C   UNL     1       8.741  -0.540  -2.022  1.00  0.00     0.165 A 
ATOM     12  O   UNL     1       7.454  -2.053  -2.969  1.00  0.00    -0.454 OA
ATOM     13  O   UNL     1       9.551  -1.458  -2.703  1.00  0.00    -0.454 OA
ATOM     14  C   UNL     1       8.754  -2.614  -2.860  1.00  0.00     0.468 C 
ENDBRANCH   5   6
ENDBRANCH   1   5
TORSDOF 3
ENDMDL
MODEL 2
REMARK VINA RESULT:      -7.0      1.811      2.261
REMARK SMILES CC(=O)CCc1ccc2c(c1)OCO2
REMARK SMILES IDX 4 1 2 2 1 3 3 4 5 5 6 6 7 7 11 8 8 9 10 10 9 11 12 12 14 13
REMARK SMILES IDX 13 14
REMARK H PARENT
REMARK Flexibility Score: inf
ROOT
ATOM      1  C   UNL     1       5.724   1.308  -0.338  1.00  0.00     0.080 C 
ENDROOT
BRANCH   1   2
ATOM      2  C   UNL     1       5.130   1.352   1.011  1.00  0.00     0.130 C 
ATOM      3  C   UNL     1       5.573   0.244   1.952  1.00  0.00     0.087 C 
ATOM      4  O   UNL     1       4.350   2.150   1.445  1.00  0.00    -0.300 OA
ENDBRANCH   1   2
BRANCH   1   5
ATOM      5  C   UNL     1       7.174   1.032  -0.403  1.00  0.00     0.043 C 
BRANCH   5   6
ATOM      6  C   UNL     1       7.587  -0.254  -0.972  1.00  0.00    -0.044 A 
ATOM      7  C   UNL     1       7.826  -0.422  -2.337  1.00  0.00     0.008 A 
ATOM      8  C   UNL     1       7.777  -1.341  -0.150  1.00  0.00     0.054 A 
ATOM      9  C   UNL     1       8.236  -1.646  -2.796  1.00  0.00     0.051 A 
ATOM     10  C   UNL     1       8.198  -2.584  -0.648  1.00  0.00     0.166 A 
ATOM     11  C   UNL     1       8.434  -2.749  -1.995  1.00  0.00     0.165 A 
ATOM     12  O   UNL     1       8.466  -3.820  -0.073  1.00  0.00    -0.454 OA
ATOM     13  O   UNL     1       8.839  -4.071  -2.222  1.00  0.00    -0.454 OA
ATOM     14  C   UNL     1       9.296  -4.541  -0.972  1.00  0.00     0.468 C 
ENDBRANCH   5   6
ENDBRANCH   1   5
TORSDOF 3
ENDMDL
MODEL 3
REMARK VINA RESULT:      -6.7      1.093      1.594
REMARK SMILES CC(=O)CCc1ccc2c(c1)OCO2
REMARK SMILES IDX 4 1 2 2 1 3 3 4 5 5 6 6 7 7 11 8 8 9 10 10 9 11 12 12 14 13
REMARK SMILES IDX 13 14
REMARK H PARENT
REMARK Flexibility Score: inf
ROOT
ATOM      1  C   UNL     1       5.351  -0.040   1.998  1.00  0.00     0.080 C 
ENDROOT
BRANCH   1   2
ATOM      2  C   UNL     1       4.405   1.085   1.883  1.00  0.00     0.130 C 
ATOM      3  C   UNL     1       4.748   2.116   0.820  1.00  0.00     0.087 C 
ATOM      4  O   UNL     1       3.410   1.278   2.521  1.00  0.00    -0.300 OA
ENDBRANCH   1   2
BRANCH   1   5
ATOM      5  C   UNL     1       6.776   0.283   1.780  1.00  0.00     0.043 C 
BRANCH   5   6
ATOM      6  C   UNL     1       7.334  -0.008   0.456  1.00  0.00    -0.044 A 
ATOM      7  C   UNL     1       7.917   0.981  -0.339  1.00  0.00     0.008 A 
ATOM      8  C   UNL     1       7.319  -1.294  -0.030  1.00  0.00     0.054 A 
ATOM      9  C   UNL     1       8.443   0.633  -1.556  1.00  0.00     0.051 A 
ATOM     10  C   UNL     1       7.866  -1.623  -1.280  1.00  0.00     0.166 A 
ATOM     11  C   UNL     1       8.440  -0.647  -2.065  1.00  0.00     0.165 A 
ATOM     12  O   UNL     1       7.990  -2.800  -2.007  1.00  0.00    -0.454 OA
ATOM     13  O   UNL     1       8.903  -1.236  -3.249  1.00  0.00    -0.454 OA
ATOM     14  C   UNL     1       9.030  -2.612  -2.956  1.00  0.00     0.468 C 
ENDBRANCH   5   6
ENDBRANCH   1   5
TORSDOF 3
ENDMDL
MODEL 4
REMARK VINA RESULT:      -6.7      1.976      2.520
REMARK SMILES CC(=O)CCc1ccc2c(c1)OCO2
REMARK SMILES IDX 4 1 2 2 1 3 3 4 5 5 6 6 7 7 11 8 8 9 10 10 9 11 12 12 14 13
REMARK SMILES IDX 13 14
REMARK H PARENT
REMARK Flexibility Score: inf
ROOT
ATOM      1  C   UNL     1       5.706   0.056   1.991  1.00  0.00     0.080 C 
ENDROOT
BRANCH   1   2
ATOM      2  C   UNL     1       4.705   1.101   1.713  1.00  0.00     0.130 C 
ATOM      3  C   UNL     1       5.028   2.018   0.546  1.00  0.00     0.087 C 
ATOM      4  O   UNL     1       3.677   1.308   2.295  1.00  0.00    -0.300 OA
ENDBRANCH   1   2
BRANCH   1   5
ATOM      5  C   UNL     1       7.022   0.225   1.339  1.00  0.00     0.043 C 
BRANCH   5   6
ATOM      6  C   UNL     1       7.401  -0.764   0.327  1.00  0.00    -0.044 A 
ATOM      7  C   UNL     1       7.334  -0.493  -1.041  1.00  0.00     0.008 A 
ATOM      8  C   UNL     1       7.868  -1.999   0.712  1.00  0.00     0.054 A 
ATOM      9  C   UNL     1       7.730  -1.457  -1.932  1.00  0.00     0.051 A 
ATOM     10  C   UNL     1       8.267  -2.967  -0.222  1.00  0.00     0.166 A 
ATOM     11  C   UNL     1       8.200  -2.700  -1.572  1.00  0.00     0.165 A 
ATOM     12  O   UNL     1       8.765  -4.262  -0.128  1.00  0.00    -0.454 OA
ATOM     13  O   UNL     1       8.653  -3.823  -2.276  1.00  0.00    -0.454 OA
ATOM     14  C   UNL     1       9.425  -4.558  -1.350  1.00  0.00     0.468 C 
ENDBRANCH   5   6
ENDBRANCH   1   5
TORSDOF 3
ENDMDL
MODEL 5
REMARK VINA RESULT:      -6.7      1.848      2.363
REMARK SMILES CC(=O)CCc1ccc2c(c1)OCO2
REMARK SMILES IDX 4 1 2 2 1 3 3 4 5 5 6 6 7 7 11 8 8 9 10 10 9 11 12 12 14 13
REMARK SMILES IDX 13 14
REMARK H PARENT
REMARK Flexibility Score: inf
ROOT
ATOM      1  C   UNL     1       7.017   1.124   1.241  1.00  0.00     0.080 C 
ENDROOT
BRANCH   1   2
ATOM      2  C   UNL     1       5.563   1.176   1.483  1.00  0.00     0.130 C 
ATOM      3  C   UNL     1       4.793   2.150   0.607  1.00  0.00     0.087 C 
ATOM      4  O   UNL     1       4.927   0.547   2.280  1.00  0.00    -0.300 OA
ENDBRANCH   1   2
BRANCH   1   5
ATOM      5  C   UNL     1       7.442   1.129  -0.175  1.00  0.00     0.043 C 
BRANCH   5   6
ATOM      6  C   UNL     1       7.726  -0.169  -0.794  1.00  0.00    -0.044 A 
ATOM      7  C   UNL     1       7.871  -0.319  -2.174  1.00  0.00     0.008 A 
ATOM      8  C   UNL     1       7.887  -1.286  -0.008  1.00  0.00     0.054 A 
ATOM      9  C   UNL     1       8.163  -1.558  -2.682  1.00  0.00     0.051 A 
ATOM     10  C   UNL     1       8.187  -2.543  -0.555  1.00  0.00     0.166 A 
ATOM     11  C   UNL     1       8.329  -2.691  -1.917  1.00  0.00     0.165 A 
ATOM     12  O   UNL     1       8.399  -3.809  -0.023  1.00  0.00    -0.454 OA
ATOM     13  O   UNL     1       8.623  -4.032  -2.195  1.00  0.00    -0.454 OA
ATOM     14  C   UNL     1       9.120  -4.565  -0.985  1.00  0.00     0.468 C 
ENDBRANCH   5   6
ENDBRANCH   1   5
TORSDOF 3
ENDMDL
