@<TRIPOS>MOLECULE
/home/cewinharhar/GITHUB/reincatalyze/data/processed/docking_pred/2023-May-31-1727_sub9_nm5_bs15_s42_ex16_mel10_mts10000_k50_ec075_g099_lra3e-4_lrc3e-3/c2bbe2b0b698b4c34a14c6b9d782c5d04fb4e97c_ligand_9.pdbqt
 14 15 0 0 0
SMALL
GASTEIGER

@<TRIPOS>ATOM
      1  C          7.0170    1.1240    1.2410 C.3     1  UNL1        0.0800
      2  C          5.5630    1.1760    1.4830 C.2     1  UNL1        0.1300
      3  C          4.7930    2.1500    0.6070 C.3     1  UNL1        0.0870
      4  O          4.9270    0.5470    2.2800 O.2     1  UNL1       -0.3000
      5  C          7.4420    1.1290   -0.1750 C.3     1  UNL1        0.0430
      6  C          7.7260   -0.1690   -0.7940 C.2     1  UNL1       -0.0440
      7  C          7.8710   -0.3190   -2.1740 C.2     1  UNL1        0.0080
      8  C          7.8870   -1.2860   -0.0080 C.2     1  UNL1        0.0540
      9  C          8.1630   -1.5580   -2.6820 C.2     1  UNL1        0.0510
     10  C          8.1870   -2.5430   -0.5550 C.2     1  UNL1        0.1660
     11  C          8.3290   -2.6910   -1.9170 C.2     1  UNL1        0.1650
     12  O          8.3990   -3.8090   -0.0230 O.2     1  UNL1       -0.4540
     13  O          8.6230   -4.0320   -2.1950 O.2     1  UNL1       -0.4540
     14  C          9.1200   -4.5650   -0.9850 C.3     1  UNL1        0.4680
@<TRIPOS>BOND
     1     9     7    1
     2     9    11    2
     3    13    11    1
     4    13    14    1
     5     7     6    2
     6    11    10    1
     7    14    12    1
     8     6     5    1
     9     6     8    1
    10    10    12    1
    11    10     8    2
    12     5     1    1
    13     3     2    1
    14     1     2    1
    15     2     4    2
