@<TRIPOS>MOLECULE
/home/cewinharhar/GITHUB/reincatalyze/data/processed/docking_pred/2023-May-31-1727_sub9_nm5_bs15_s42_ex16_mel10_mts10000_k50_ec075_g099_lra3e-4_lrc3e-3/c6f7ed627fe12308445a4436d87b5ee6093cef8d_ligand_9.pdbqt
 14 15 0 0 0
SMALL
GASTEIGER

@<TRIPOS>ATOM
      1  C          6.3150    1.1940    0.8570 C.3     1  UNL1        0.0800
      2  C          5.6020    0.3930    1.8690 C.2     1  UNL1        0.1300
      3  C          6.3550   -0.8220    2.3840 C.3     1  UNL1        0.0870
      4  O          4.5110    0.5860    2.3250 O.2     1  UNL1       -0.3000
      5  C          5.9630    0.9260   -0.5530 C.3     1  UNL1        0.0430
      6  C          6.8970    0.1080   -1.3320 C.2     1  UNL1       -0.0440
      7  C          7.7170    0.6540   -2.3210 C.2     1  UNL1        0.0080
      8  C          7.0070   -1.2390   -1.0810 C.2     1  UNL1        0.0540
      9  C          8.5860   -0.1650   -2.9930 C.2     1  UNL1        0.0510
     10  C          7.9070   -2.0550   -1.7840 C.2     1  UNL1        0.1660
     11  C          8.7150   -1.5170   -2.7610 C.2     1  UNL1        0.1650
     12  O          8.2260   -3.4070   -1.7470 O.2     1  UNL1       -0.4540
     13  O          9.5100   -2.5360   -3.3000 O.2     1  UNL1       -0.4540
     14  C          9.5120   -3.5620   -2.3290 C.3     1  UNL1        0.4680
@<TRIPOS>BOND
     1    13    11    1
     2    13    14    1
     3     9    11    2
     4     9     7    1
     5    11    10    1
     6    14    12    1
     7     7     6    2
     8    10    12    1
     9    10     8    2
    10     6     8    1
    11     6     5    1
    12     5     1    1
    13     1     2    1
    14     2     4    2
    15     2     3    1
