@<TRIPOS>MOLECULE
/home/cewinharhar/GITHUB/reincatalyze/data/processed/docking_pred/2023-May-31-1727_sub9_nm5_bs15_s42_ex16_mel10_mts10000_k50_ec075_g099_lra3e-4_lrc3e-3/c6f7ed627fe12308445a4436d87b5ee6093cef8d_ligand_9.pdbqt
 14 15 0 0 0
SMALL
GASTEIGER

@<TRIPOS>ATOM
      1  C          6.7620    0.8600    1.4430 C.3     1  UNL1        0.0800
      2  C          5.3120    1.1180    1.5100 C.2     1  UNL1        0.1300
      3  C          4.7740    2.0780    0.4630 C.3     1  UNL1        0.0870
      4  O          4.5190    0.6620    2.2840 O.2     1  UNL1       -0.3000
      5  C          7.3770    0.9410    0.1010 C.3     1  UNL1        0.0430
      6  C          7.6510   -0.3240   -0.5870 C.2     1  UNL1       -0.0440
      7  C          7.6480   -0.4290   -1.9790 C.2     1  UNL1        0.0080
      8  C          7.9510   -1.4520    0.1400 C.2     1  UNL1        0.0540
      9  C          7.9400   -1.6370   -2.5570 C.2     1  UNL1        0.0510
     10  C          8.2470   -2.6770   -0.4780 C.2     1  UNL1        0.1660
     11  C          8.2430   -2.7810   -1.8520 C.2     1  UNL1        0.1650
     12  O          8.5760   -3.9450   -0.0140 O.2     1  UNL1       -0.4540
     13  O          8.5680   -4.0970   -2.2040 O.2     1  UNL1       -0.4540
     14  C          9.2200   -4.6370   -1.0740 C.3     1  UNL1        0.4680
@<TRIPOS>BOND
     1     9     7    1
     2     9    11    2
     3    13    11    1
     4    13    14    1
     5     7     6    2
     6    11    10    1
     7    14    12    1
     8     6     5    1
     9     6     8    1
    10    10    12    1
    11    10     8    2
    12     5     1    1
    13     3     2    1
    14     1     2    1
    15     2     4    2
