MODEL 1
REMARK VINA RESULT:      -7.6      0.000      0.000
REMARK SMILES CC(=O)CCc1ccc2c(c1)OCO2
REMARK SMILES IDX 4 1 2 2 1 3 3 4 5 5 6 6 7 7 11 8 8 9 10 10 9 11 12 12 14 13
REMARK SMILES IDX 13 14
REMARK H PARENT
REMARK Flexibility Score: inf
ROOT
ATOM      1  C   UNL     1       5.609   1.871   1.241  1.00  0.00     0.080 C 
ENDROOT
BRANCH   1   2
ATOM      2  C   UNL     1       5.046   0.749   2.014  1.00  0.00     0.130 C 
ATOM      3  C   UNL     1       5.978  -0.433   2.217  1.00  0.00     0.087 C 
ATOM      4  O   UNL     1       3.951   0.664   2.494  1.00  0.00    -0.300 OA
ENDBRANCH   1   2
BRANCH   1   5
ATOM      5  C   UNL     1       5.582   1.728  -0.230  1.00  0.00     0.043 C 
BRANCH   5   6
ATOM      6  C   UNL     1       6.675   0.973  -0.850  1.00  0.00    -0.044 A 
ATOM      7  C   UNL     1       8.012   1.350  -0.712  1.00  0.00     0.008 A 
ATOM      8  C   UNL     1       6.402  -0.164  -1.574  1.00  0.00     0.054 A 
ATOM      9  C   UNL     1       8.984   0.581  -1.296  1.00  0.00     0.051 A 
ATOM     10  C   UNL     1       7.418  -0.933  -2.162  1.00  0.00     0.166 A 
ATOM     11  C   UNL     1       8.737  -0.560  -2.026  1.00  0.00     0.165 A 
ATOM     12  O   UNL     1       7.440  -2.093  -2.926  1.00  0.00    -0.454 OA
ATOM     13  O   UNL     1       9.539  -1.489  -2.702  1.00  0.00    -0.454 OA
ATOM     14  C   UNL     1       8.742  -2.649  -2.826  1.00  0.00     0.468 C 
ENDBRANCH   5   6
ENDBRANCH   1   5
TORSDOF 3
ENDMDL
MODEL 2
REMARK VINA RESULT:      -7.0      1.808      2.268
REMARK SMILES CC(=O)CCc1ccc2c(c1)OCO2
REMARK SMILES IDX 4 1 2 2 1 3 3 4 5 5 6 6 7 7 11 8 8 9 10 10 9 11 12 12 14 13
REMARK SMILES IDX 13 14
REMARK H PARENT
REMARK Flexibility Score: inf
ROOT
ATOM      1  C   UNL     1       5.892   1.518  -0.289  1.00  0.00     0.080 C 
ENDROOT
BRANCH   1   2
ATOM      2  C   UNL     1       5.178   1.440   0.999  1.00  0.00     0.130 C 
ATOM      3  C   UNL     1       5.624   0.318   1.922  1.00  0.00     0.087 C 
ATOM      4  O   UNL     1       4.298   2.149   1.397  1.00  0.00    -0.300 OA
ENDBRANCH   1   2
BRANCH   1   5
ATOM      5  C   UNL     1       7.306   1.088  -0.277  1.00  0.00     0.043 C 
BRANCH   5   6
ATOM      6  C   UNL     1       7.613  -0.219  -0.865  1.00  0.00    -0.044 A 
ATOM      7  C   UNL     1       7.672  -0.419  -2.245  1.00  0.00     0.008 A 
ATOM      8  C   UNL     1       7.884  -1.294  -0.050  1.00  0.00     0.054 A 
ATOM      9  C   UNL     1       7.992  -1.662  -2.725  1.00  0.00     0.051 A 
ATOM     10  C   UNL     1       8.210  -2.556  -0.569  1.00  0.00     0.166 A 
ATOM     11  C   UNL     1       8.267  -2.753  -1.931  1.00  0.00     0.165 A 
ATOM     12  O   UNL     1       8.522  -3.787  -0.006  1.00  0.00    -0.454 OA
ATOM     13  O   UNL     1       8.610  -4.089  -2.179  1.00  0.00    -0.454 OA
ATOM     14  C   UNL     1       9.214  -4.546  -0.987  1.00  0.00     0.468 C 
ENDBRANCH   5   6
ENDBRANCH   1   5
TORSDOF 3
ENDMDL
MODEL 3
REMARK VINA RESULT:      -6.9      1.163      1.271
REMARK SMILES CC(=O)CCc1ccc2c(c1)OCO2
REMARK SMILES IDX 4 1 2 2 1 3 3 4 5 5 6 6 7 7 11 8 8 9 10 10 9 11 12 12 14 13
REMARK SMILES IDX 13 14
REMARK H PARENT
REMARK Flexibility Score: inf
ROOT
ATOM      1  C   UNL     1       6.315   1.194   0.857  1.00  0.00     0.080 C 
ENDROOT
BRANCH   1   2
ATOM      2  C   UNL     1       5.602   0.393   1.869  1.00  0.00     0.130 C 
ATOM      3  C   UNL     1       6.355  -0.822   2.384  1.00  0.00     0.087 C 
ATOM      4  O   UNL     1       4.511   0.586   2.325  1.00  0.00    -0.300 OA
ENDBRANCH   1   2
BRANCH   1   5
ATOM      5  C   UNL     1       5.963   0.926  -0.553  1.00  0.00     0.043 C 
BRANCH   5   6
ATOM      6  C   UNL     1       6.897   0.108  -1.332  1.00  0.00    -0.044 A 
ATOM      7  C   UNL     1       7.717   0.654  -2.321  1.00  0.00     0.008 A 
ATOM      8  C   UNL     1       7.007  -1.239  -1.081  1.00  0.00     0.054 A 
ATOM      9  C   UNL     1       8.586  -0.165  -2.993  1.00  0.00     0.051 A 
ATOM     10  C   UNL     1       7.907  -2.055  -1.784  1.00  0.00     0.166 A 
ATOM     11  C   UNL     1       8.715  -1.517  -2.761  1.00  0.00     0.165 A 
ATOM     12  O   UNL     1       8.226  -3.407  -1.747  1.00  0.00    -0.454 OA
ATOM     13  O   UNL     1       9.510  -2.536  -3.300  1.00  0.00    -0.454 OA
ATOM     14  C   UNL     1       9.512  -3.562  -2.329  1.00  0.00     0.468 C 
ENDBRANCH   5   6
ENDBRANCH   1   5
TORSDOF 3
ENDMDL
MODEL 4
REMARK VINA RESULT:      -6.8      1.864      2.397
REMARK SMILES CC(=O)CCc1ccc2c(c1)OCO2
REMARK SMILES IDX 4 1 2 2 1 3 3 4 5 5 6 6 7 7 11 8 8 9 10 10 9 11 12 12 14 13
REMARK SMILES IDX 13 14
REMARK H PARENT
REMARK Flexibility Score: inf
ROOT
ATOM      1  C   UNL     1       6.762   0.860   1.443  1.00  0.00     0.080 C 
ENDROOT
BRANCH   1   2
ATOM      2  C   UNL     1       5.312   1.118   1.510  1.00  0.00     0.130 C 
ATOM      3  C   UNL     1       4.774   2.078   0.463  1.00  0.00     0.087 C 
ATOM      4  O   UNL     1       4.519   0.662   2.284  1.00  0.00    -0.300 OA
ENDBRANCH   1   2
BRANCH   1   5
ATOM      5  C   UNL     1       7.377   0.941   0.101  1.00  0.00     0.043 C 
BRANCH   5   6
ATOM      6  C   UNL     1       7.651  -0.324  -0.587  1.00  0.00    -0.044 A 
ATOM      7  C   UNL     1       7.648  -0.429  -1.979  1.00  0.00     0.008 A 
ATOM      8  C   UNL     1       7.951  -1.452   0.140  1.00  0.00     0.054 A 
ATOM      9  C   UNL     1       7.940  -1.637  -2.557  1.00  0.00     0.051 A 
ATOM     10  C   UNL     1       8.247  -2.677  -0.478  1.00  0.00     0.166 A 
ATOM     11  C   UNL     1       8.243  -2.781  -1.852  1.00  0.00     0.165 A 
ATOM     12  O   UNL     1       8.576  -3.945  -0.014  1.00  0.00    -0.454 OA
ATOM     13  O   UNL     1       8.568  -4.097  -2.204  1.00  0.00    -0.454 OA
ATOM     14  C   UNL     1       9.220  -4.637  -1.074  1.00  0.00     0.468 C 
ENDBRANCH   5   6
ENDBRANCH   1   5
TORSDOF 3
ENDMDL
MODEL 5
REMARK VINA RESULT:      -6.7      1.093      1.591
REMARK SMILES CC(=O)CCc1ccc2c(c1)OCO2
REMARK SMILES IDX 4 1 2 2 1 3 3 4 5 5 6 6 7 7 11 8 8 9 10 10 9 11 12 12 14 13
REMARK SMILES IDX 13 14
REMARK H PARENT
REMARK Flexibility Score: inf
ROOT
ATOM      1  C   UNL     1       5.335  -0.022   1.989  1.00  0.00     0.080 C 
ENDROOT
BRANCH   1   2
ATOM      2  C   UNL     1       4.388   1.101   1.869  1.00  0.00     0.130 C 
ATOM      3  C   UNL     1       4.733   2.132   0.807  1.00  0.00     0.087 C 
ATOM      4  O   UNL     1       3.390   1.293   2.504  1.00  0.00    -0.300 OA
ENDBRANCH   1   2
BRANCH   1   5
ATOM      5  C   UNL     1       6.760   0.300   1.762  1.00  0.00     0.043 C 
BRANCH   5   6
ATOM      6  C   UNL     1       7.312  -0.000   0.438  1.00  0.00    -0.044 A 
ATOM      7  C   UNL     1       7.870   0.987  -0.377  1.00  0.00     0.008 A 
ATOM      8  C   UNL     1       7.317  -1.294  -0.029  1.00  0.00     0.054 A 
ATOM      9  C   UNL     1       8.393   0.630  -1.592  1.00  0.00     0.051 A 
ATOM     10  C   UNL     1       7.859  -1.631  -1.278  1.00  0.00     0.166 A 
ATOM     11  C   UNL     1       8.410  -0.657  -2.082  1.00  0.00     0.165 A 
ATOM     12  O   UNL     1       7.999  -2.817  -1.989  1.00  0.00    -0.454 OA
ATOM     13  O   UNL     1       8.874  -1.256  -3.261  1.00  0.00    -0.454 OA
ATOM     14  C   UNL     1       9.028  -2.625  -2.948  1.00  0.00     0.468 C 
ENDBRANCH   5   6
ENDBRANCH   1   5
TORSDOF 3
ENDMDL
