@<TRIPOS>MOLECULE
/home/cewinharhar/GITHUB/reincatalyze/data/processed/docking_pred/2023-May-31-1727_sub9_nm5_bs15_s42_ex16_mel10_mts10000_k50_ec075_g099_lra3e-4_lrc3e-3/c6f7ed627fe12308445a4436d87b5ee6093cef8d_ligand_9.pdbqt
 14 15 0 0 0
SMALL
GASTEIGER

@<TRIPOS>ATOM
      1  C          5.8920    1.5180   -0.2890 C.3     1  UNL1        0.0800
      2  C          5.1780    1.4400    0.9990 C.2     1  UNL1        0.1300
      3  C          5.6240    0.3180    1.9220 C.3     1  UNL1        0.0870
      4  O          4.2980    2.1490    1.3970 O.2     1  UNL1       -0.3000
      5  C          7.3060    1.0880   -0.2770 C.3     1  UNL1        0.0430
      6  C          7.6130   -0.2190   -0.8650 C.2     1  UNL1       -0.0440
      7  C          7.6720   -0.4190   -2.2450 C.2     1  UNL1        0.0080
      8  C          7.8840   -1.2940   -0.0500 C.2     1  UNL1        0.0540
      9  C          7.9920   -1.6620   -2.7250 C.2     1  UNL1        0.0510
     10  C          8.2100   -2.5560   -0.5690 C.2     1  UNL1        0.1660
     11  C          8.2670   -2.7530   -1.9310 C.2     1  UNL1        0.1650
     12  O          8.5220   -3.7870   -0.0060 O.2     1  UNL1       -0.4540
     13  O          8.6100   -4.0890   -2.1790 O.2     1  UNL1       -0.4540
     14  C          9.2140   -4.5460   -0.9870 C.3     1  UNL1        0.4680
@<TRIPOS>BOND
     1     9     7    1
     2     9    11    2
     3     7     6    2
     4    13    11    1
     5    13    14    1
     6    11    10    1
     7    14    12    1
     8     6     5    1
     9     6     8    1
    10    10     8    2
    11    10    12    1
    12     1     5    1
    13     1     2    1
    14     2     4    2
    15     2     3    1
