@<TRIPOS>MOLECULE
/home/cewinharhar/GITHUB/reincatalyze/data/processed/docking_pred/2023-May-31-1727_sub9_nm5_bs15_s42_ex16_mel10_mts10000_k50_ec075_g099_lra3e-4_lrc3e-3/c8a10dea28a77dd5a54e6b3bff917c6d12aef46d_ligand_9.pdbqt
 14 15 0 0 0
SMALL
GASTEIGER

@<TRIPOS>ATOM
      1  C          5.5730    1.8000    0.1910 C.3     1  UNL1        0.0800
      2  C          4.8370    1.3400    1.3820 C.2     1  UNL1        0.1300
      3  C          5.4150    0.1150    2.0700 C.3     1  UNL1        0.0870
      4  O          3.8480    1.8140    1.8640 O.2     1  UNL1       -0.3000
      5  C          6.9930    1.3980    0.1070 C.3     1  UNL1        0.0430
      6  C          7.3050    0.1970   -0.6730 C.2     1  UNL1       -0.0440
      7  C          7.2380    0.1780   -2.0680 C.2     1  UNL1        0.0080
      8  C          7.7050   -0.9540   -0.0360 C.2     1  UNL1        0.0540
      9  C          7.5700   -0.9730   -2.7350 C.2     1  UNL1        0.0510
     10  C          8.0400   -2.1180   -0.7440 C.2     1  UNL1        0.1660
     11  C          7.9730   -2.1370   -2.1200 C.2     1  UNL1        0.1650
     12  O          8.4640   -3.3890   -0.3780 O.2     1  UNL1       -0.4540
     13  O          8.3540   -3.4070   -2.5710 O.2     1  UNL1       -0.4540
     14  C          9.0930   -3.9740   -1.5090 C.3     1  UNL1        0.4680
@<TRIPOS>BOND
     1     9    11    2
     2     9     7    1
     3    13    11    1
     4    13    14    1
     5    11    10    1
     6     7     6    2
     7    14    12    1
     8    10    12    1
     9    10     8    2
    10     6     8    1
    11     6     5    1
    12     5     1    1
    13     1     2    1
    14     2     4    2
    15     2     3    1
