@<TRIPOS>MOLECULE
/home/cewinharhar/GITHUB/reincatalyze/data/processed/docking_pred/2023-May-31-1727_sub9_nm5_bs15_s42_ex16_mel10_mts10000_k50_ec075_g099_lra3e-4_lrc3e-3/c8a10dea28a77dd5a54e6b3bff917c6d12aef46d_ligand_9.pdbqt
 14 15 0 0 0
SMALL
GASTEIGER

@<TRIPOS>ATOM
      1  C          5.3810   -0.0280    1.9580 C.3     1  UNL1        0.0800
      2  C          4.4350    1.0980    1.8590 C.2     1  UNL1        0.1300
      3  C          4.7680    2.1360    0.8010 C.3     1  UNL1        0.0870
      4  O          3.4450    1.2860    2.5090 O.2     1  UNL1       -0.3000
      5  C          6.8010    0.2900    1.6960 C.3     1  UNL1        0.0430
      6  C          7.3360   -0.0660    0.3790 C.2     1  UNL1       -0.0440
      7  C          7.7570    0.8980   -0.5380 C.2     1  UNL1        0.0080
      8  C          7.4640   -1.3890    0.0230 C.2     1  UNL1        0.0540
      9  C          8.2730    0.4920   -1.7420 C.2     1  UNL1        0.0510
     10  C          7.9960   -1.7760   -1.2170 C.2     1  UNL1        0.1660
     11  C          8.4110   -0.8240   -2.1220 C.2     1  UNL1        0.1650
     12  O          8.2380   -2.9990   -1.8310 O.2     1  UNL1       -0.4540
     13  O          8.8960   -1.4720   -3.2660 O.2     1  UNL1       -0.4540
     14  C          9.2070   -2.7850   -2.8470 C.3     1  UNL1        0.4680
@<TRIPOS>BOND
     1    13    14    1
     2    13    11    1
     3    14    12    1
     4    11     9    2
     5    11    10    1
     6    12    10    1
     7     9     7    1
     8    10     8    2
     9     7     6    2
    10     8     6    1
    11     6     5    1
    12     3     2    1
    13     5     1    1
    14     2     1    1
    15     2     4    2
