@<TRIPOS>MOLECULE
/home/cewinharhar/GITHUB/reincatalyze/data/processed/docking_pred/2023-May-31-1727_sub9_nm5_bs15_s42_ex16_mel10_mts10000_k50_ec075_g099_lra3e-4_lrc3e-3/c8a10dea28a77dd5a54e6b3bff917c6d12aef46d_ligand_9.pdbqt
 14 15 0 0 0
SMALL
GASTEIGER

@<TRIPOS>ATOM
      1  C          6.2130    1.2070    0.9160 C.3     1  UNL1        0.0800
      2  C          5.5480    0.3780    1.9370 C.2     1  UNL1        0.1300
      3  C          6.3430   -0.8240    2.4180 C.3     1  UNL1        0.0870
      4  O          4.4670    0.5420    2.4270 O.2     1  UNL1       -0.3000
      5  C          5.8750    0.9040   -0.4910 C.3     1  UNL1        0.0430
      6  C          6.8500    0.1300   -1.2630 C.2     1  UNL1       -0.0440
      7  C          7.7980    0.7380   -2.0880 C.2     1  UNL1        0.0080
      8  C          6.8710   -1.2430   -1.1680 C.2     1  UNL1        0.0540
      9  C          8.6980   -0.0480   -2.7600 C.2     1  UNL1        0.0510
     10  C          7.8040   -2.0220   -1.8680 C.2     1  UNL1        0.1660
     11  C          8.7390   -1.4220   -2.6820 C.2     1  UNL1        0.1650
     12  O          8.0550   -3.3860   -1.9620 O.2     1  UNL1       -0.4540
     13  O          9.5400   -2.4170   -3.2570 O.2     1  UNL1       -0.4540
     14  C          9.3890   -3.5470   -2.4220 C.3     1  UNL1        0.4680
@<TRIPOS>BOND
     1    13    11    1
     2    13    14    1
     3     9    11    2
     4     9     7    1
     5    11    10    1
     6    14    12    1
     7     7     6    2
     8    12    10    1
     9    10     8    2
    10     6     8    1
    11     6     5    1
    12     5     1    1
    13     1     2    1
    14     2     3    1
    15     2     4    2
