MODEL 1
REMARK VINA RESULT:      -7.6      0.000      0.000
REMARK SMILES CC(=O)CCc1ccc2c(c1)OCO2
REMARK SMILES IDX 4 1 2 2 1 3 3 4 5 5 6 6 7 7 11 8 8 9 10 10 9 11 12 12 14 13
REMARK SMILES IDX 13 14
REMARK H PARENT
REMARK Flexibility Score: inf
ROOT
ATOM      1  C   UNL     1       5.746   1.742   1.282  1.00  0.00     0.080 C 
ENDROOT
BRANCH   1   2
ATOM      2  C   UNL     1       5.164   0.612   2.028  1.00  0.00     0.130 C 
ATOM      3  C   UNL     1       6.070  -0.597   2.189  1.00  0.00     0.087 C 
ATOM      4  O   UNL     1       4.072   0.538   2.517  1.00  0.00    -0.300 OA
ENDBRANCH   1   2
BRANCH   1   5
ATOM      5  C   UNL     1       5.701   1.641  -0.192  1.00  0.00     0.043 C 
BRANCH   5   6
ATOM      6  C   UNL     1       6.773   0.884  -0.846  1.00  0.00    -0.044 A 
ATOM      7  C   UNL     1       8.112   1.267  -0.761  1.00  0.00     0.008 A 
ATOM      8  C   UNL     1       6.477  -0.261  -1.548  1.00  0.00     0.054 A 
ATOM      9  C   UNL     1       9.066   0.497  -1.374  1.00  0.00     0.051 A 
ATOM     10  C   UNL     1       7.474  -1.031  -2.167  1.00  0.00     0.166 A 
ATOM     11  C   UNL     1       8.796  -0.652  -2.084  1.00  0.00     0.165 A 
ATOM     12  O   UNL     1       7.472  -2.199  -2.920  1.00  0.00    -0.454 OA
ATOM     13  O   UNL     1       9.576  -1.585  -2.780  1.00  0.00    -0.454 OA
ATOM     14  C   UNL     1       8.780  -2.749  -2.863  1.00  0.00     0.468 C 
ENDBRANCH   5   6
ENDBRANCH   1   5
TORSDOF 3
ENDMDL
MODEL 2
REMARK VINA RESULT:      -7.0      1.003      1.045
REMARK SMILES CC(=O)CCc1ccc2c(c1)OCO2
REMARK SMILES IDX 4 1 2 2 1 3 3 4 5 5 6 6 7 7 11 8 8 9 10 10 9 11 12 12 14 13
REMARK SMILES IDX 13 14
REMARK H PARENT
REMARK Flexibility Score: inf
ROOT
ATOM      1  C   UNL     1       6.213   1.207   0.916  1.00  0.00     0.080 C 
ENDROOT
BRANCH   1   2
ATOM      2  C   UNL     1       5.548   0.378   1.937  1.00  0.00     0.130 C 
ATOM      3  C   UNL     1       6.343  -0.824   2.418  1.00  0.00     0.087 C 
ATOM      4  O   UNL     1       4.467   0.542   2.427  1.00  0.00    -0.300 OA
ENDBRANCH   1   2
BRANCH   1   5
ATOM      5  C   UNL     1       5.875   0.904  -0.491  1.00  0.00     0.043 C 
BRANCH   5   6
ATOM      6  C   UNL     1       6.850   0.130  -1.263  1.00  0.00    -0.044 A 
ATOM      7  C   UNL     1       7.798   0.738  -2.088  1.00  0.00     0.008 A 
ATOM      8  C   UNL     1       6.871  -1.243  -1.168  1.00  0.00     0.054 A 
ATOM      9  C   UNL     1       8.698  -0.048  -2.760  1.00  0.00     0.051 A 
ATOM     10  C   UNL     1       7.804  -2.022  -1.868  1.00  0.00     0.166 A 
ATOM     11  C   UNL     1       8.739  -1.422  -2.682  1.00  0.00     0.165 A 
ATOM     12  O   UNL     1       8.055  -3.386  -1.962  1.00  0.00    -0.454 OA
ATOM     13  O   UNL     1       9.540  -2.417  -3.257  1.00  0.00    -0.454 OA
ATOM     14  C   UNL     1       9.389  -3.547  -2.422  1.00  0.00     0.468 C 
ENDBRANCH   5   6
ENDBRANCH   1   5
TORSDOF 3
ENDMDL
MODEL 3
REMARK VINA RESULT:      -6.8      1.160      1.623
REMARK SMILES CC(=O)CCc1ccc2c(c1)OCO2
REMARK SMILES IDX 4 1 2 2 1 3 3 4 5 5 6 6 7 7 11 8 8 9 10 10 9 11 12 12 14 13
REMARK SMILES IDX 13 14
REMARK H PARENT
REMARK Flexibility Score: inf
ROOT
ATOM      1  C   UNL     1       5.381  -0.028   1.958  1.00  0.00     0.080 C 
ENDROOT
BRANCH   1   2
ATOM      2  C   UNL     1       4.435   1.098   1.859  1.00  0.00     0.130 C 
ATOM      3  C   UNL     1       4.768   2.136   0.801  1.00  0.00     0.087 C 
ATOM      4  O   UNL     1       3.445   1.286   2.509  1.00  0.00    -0.300 OA
ENDBRANCH   1   2
BRANCH   1   5
ATOM      5  C   UNL     1       6.801   0.290   1.696  1.00  0.00     0.043 C 
BRANCH   5   6
ATOM      6  C   UNL     1       7.336  -0.066   0.379  1.00  0.00    -0.044 A 
ATOM      7  C   UNL     1       7.757   0.898  -0.538  1.00  0.00     0.008 A 
ATOM      8  C   UNL     1       7.464  -1.389   0.023  1.00  0.00     0.054 A 
ATOM      9  C   UNL     1       8.273   0.492  -1.742  1.00  0.00     0.051 A 
ATOM     10  C   UNL     1       7.996  -1.776  -1.217  1.00  0.00     0.166 A 
ATOM     11  C   UNL     1       8.411  -0.824  -2.122  1.00  0.00     0.165 A 
ATOM     12  O   UNL     1       8.238  -2.999  -1.831  1.00  0.00    -0.454 OA
ATOM     13  O   UNL     1       8.896  -1.472  -3.266  1.00  0.00    -0.454 OA
ATOM     14  C   UNL     1       9.207  -2.785  -2.847  1.00  0.00     0.468 C 
ENDBRANCH   5   6
ENDBRANCH   1   5
TORSDOF 3
ENDMDL
MODEL 4
REMARK VINA RESULT:      -6.7      1.486      1.806
REMARK SMILES CC(=O)CCc1ccc2c(c1)OCO2
REMARK SMILES IDX 4 1 2 2 1 3 3 4 5 5 6 6 7 7 11 8 8 9 10 10 9 11 12 12 14 13
REMARK SMILES IDX 13 14
REMARK H PARENT
REMARK Flexibility Score: inf
ROOT
ATOM      1  C   UNL     1       5.573   1.800   0.191  1.00  0.00     0.080 C 
ENDROOT
BRANCH   1   2
ATOM      2  C   UNL     1       4.837   1.340   1.382  1.00  0.00     0.130 C 
ATOM      3  C   UNL     1       5.415   0.115   2.070  1.00  0.00     0.087 C 
ATOM      4  O   UNL     1       3.848   1.814   1.864  1.00  0.00    -0.300 OA
ENDBRANCH   1   2
BRANCH   1   5
ATOM      5  C   UNL     1       6.993   1.398   0.107  1.00  0.00     0.043 C 
BRANCH   5   6
ATOM      6  C   UNL     1       7.305   0.197  -0.673  1.00  0.00    -0.044 A 
ATOM      7  C   UNL     1       7.238   0.178  -2.068  1.00  0.00     0.008 A 
ATOM      8  C   UNL     1       7.705  -0.954  -0.036  1.00  0.00     0.054 A 
ATOM      9  C   UNL     1       7.570  -0.973  -2.735  1.00  0.00     0.051 A 
ATOM     10  C   UNL     1       8.040  -2.118  -0.744  1.00  0.00     0.166 A 
ATOM     11  C   UNL     1       7.973  -2.137  -2.120  1.00  0.00     0.165 A 
ATOM     12  O   UNL     1       8.464  -3.389  -0.378  1.00  0.00    -0.454 OA
ATOM     13  O   UNL     1       8.354  -3.407  -2.571  1.00  0.00    -0.454 OA
ATOM     14  C   UNL     1       9.093  -3.974  -1.509  1.00  0.00     0.468 C 
ENDBRANCH   5   6
ENDBRANCH   1   5
TORSDOF 3
ENDMDL
MODEL 5
REMARK VINA RESULT:      -6.6      1.540      2.142
REMARK SMILES CC(=O)CCc1ccc2c(c1)OCO2
REMARK SMILES IDX 4 1 2 2 1 3 3 4 5 5 6 6 7 7 11 8 8 9 10 10 9 11 12 12 14 13
REMARK SMILES IDX 13 14
REMARK H PARENT
REMARK Flexibility Score: inf
ROOT
ATOM      1  C   UNL     1       6.760   1.634   1.127  1.00  0.00     0.080 C 
ENDROOT
BRANCH   1   2
ATOM      2  C   UNL     1       5.319   1.798   0.863  1.00  0.00     0.130 C 
ATOM      3  C   UNL     1       4.956   2.149  -0.570  1.00  0.00     0.087 C 
ATOM      4  O   UNL     1       4.412   1.686   1.638  1.00  0.00    -0.300 OA
ENDBRANCH   1   2
BRANCH   1   5
ATOM      5  C   UNL     1       7.643   1.632  -0.058  1.00  0.00     0.043 C 
BRANCH   5   6
ATOM      6  C   UNL     1       7.785   0.368  -0.786  1.00  0.00    -0.044 A 
ATOM      7  C   UNL     1       7.756   0.306  -2.181  1.00  0.00     0.008 A 
ATOM      8  C   UNL     1       7.982  -0.805  -0.097  1.00  0.00     0.054 A 
ATOM      9  C   UNL     1       7.923  -0.908  -2.797  1.00  0.00     0.051 A 
ATOM     10  C   UNL     1       8.150  -2.034  -0.753  1.00  0.00     0.166 A 
ATOM     11  C   UNL     1       8.121  -2.096  -2.129  1.00  0.00     0.165 A 
ATOM     12  O   UNL     1       8.360  -3.341  -0.331  1.00  0.00    -0.454 OA
ATOM     13  O   UNL     1       8.311  -3.426  -2.524  1.00  0.00    -0.454 OA
ATOM     14  C   UNL     1       8.921  -4.060  -1.419  1.00  0.00     0.468 C 
ENDBRANCH   5   6
ENDBRANCH   1   5
TORSDOF 3
ENDMDL
