@<TRIPOS>MOLECULE
/home/cewinharhar/GITHUB/reincatalyze/data/processed/docking_pred/2023-May-31-1727_sub9_nm5_bs15_s42_ex16_mel10_mts10000_k50_ec075_g099_lra3e-4_lrc3e-3/ca2511eb0ea692a115cf18c67ef7ccdfaa736476_ligand_9.pdbqt
 14 15 0 0 0
SMALL
GASTEIGER

@<TRIPOS>ATOM
      1  C          5.3690   -0.0870    1.9490 C.3     1  UNL1        0.0800
      2  C          4.4390    1.0510    1.8480 C.2     1  UNL1        0.1300
      3  C          4.7850    2.0830    0.7880 C.3     1  UNL1        0.0870
      4  O          3.4520    1.2550    2.4980 O.2     1  UNL1       -0.3000
      5  C          6.7960    0.2140    1.7070 C.3     1  UNL1        0.0430
      6  C          7.3360   -0.1190    0.3860 C.2     1  UNL1       -0.0440
      7  C          7.7630    0.8610   -0.5120 C.2     1  UNL1        0.0080
      8  C          7.4630   -1.4350    0.0060 C.2     1  UNL1        0.0540
      9  C          8.2840    0.4760   -1.7200 C.2     1  UNL1        0.0510
     10  C          8.0000   -1.8010   -1.2380 C.2     1  UNL1        0.1660
     11  C          8.4210   -0.8340   -2.1240 C.2     1  UNL1        0.1650
     12  O          8.2430   -3.0120   -1.8730 O.2     1  UNL1       -0.4540
     13  O          8.9100   -1.4620   -3.2770 O.2     1  UNL1       -0.4540
     14  C          9.2160   -2.7820   -2.8810 C.3     1  UNL1        0.4680
@<TRIPOS>BOND
     1    13    14    1
     2    13    11    1
     3    14    12    1
     4    11     9    2
     5    11    10    1
     6    12    10    1
     7     9     7    1
     8    10     8    2
     9     7     6    2
    10     8     6    1
    11     6     5    1
    12     3     2    1
    13     5     1    1
    14     2     1    1
    15     2     4    2
