@<TRIPOS>MOLECULE
/home/cewinharhar/GITHUB/reincatalyze/data/processed/docking_pred/2023-May-31-1727_sub9_nm5_bs15_s42_ex16_mel10_mts10000_k50_ec075_g099_lra3e-4_lrc3e-3/ca2511eb0ea692a115cf18c67ef7ccdfaa736476_ligand_9.pdbqt
 14 15 0 0 0
SMALL
GASTEIGER

@<TRIPOS>ATOM
      1  C          5.6620    1.8620    1.2790 C.3     1  UNL1        0.0800
      2  C          5.0820    0.7210    2.0110 C.2     1  UNL1        0.1300
      3  C          6.0040   -0.4720    2.1910 C.3     1  UNL1        0.0870
      4  O          3.9810    0.6280    2.4740 O.2     1  UNL1       -0.3000
      5  C          5.6510    1.7640   -0.1950 C.3     1  UNL1        0.0430
      6  C          6.7250    0.9910   -0.8240 C.2     1  UNL1       -0.0440
      7  C          8.0700    1.3340   -0.6820 C.2     1  UNL1        0.0080
      8  C          6.4250   -0.1310   -1.5620 C.2     1  UNL1        0.0540
      9  C          9.0250    0.5500   -1.2760 C.2     1  UNL1        0.0510
     10  C          7.4220   -0.9160   -2.1590 C.2     1  UNL1        0.1660
     11  C          8.7500   -0.5770   -2.0190 C.2     1  UNL1        0.1650
     12  O          7.4170   -2.0680   -2.9360 O.2     1  UNL1       -0.4540
     13  O          9.5300   -1.5170   -2.7050 O.2     1  UNL1       -0.4540
     14  C          8.7060   -2.6560   -2.8430 C.3     1  UNL1        0.4680
@<TRIPOS>BOND
     1    12    14    1
     2    12    10    1
     3    14    13    1
     4    13    11    1
     5    10    11    2
     6    10     8    1
     7    11     9    1
     8     8     6    2
     9     9     7    2
    10     6     7    1
    11     6     5    1
    12     5     1    1
    13     1     2    1
    14     2     3    1
    15     2     4    2
