@<TRIPOS>MOLECULE
/home/cewinharhar/GITHUB/reincatalyze/data/processed/docking_pred/2023-May-31-1727_sub9_nm5_bs15_s42_ex16_mel10_mts10000_k50_ec075_g099_lra3e-4_lrc3e-3/ca2511eb0ea692a115cf18c67ef7ccdfaa736476_ligand_9.pdbqt
 14 15 0 0 0
SMALL
GASTEIGER

@<TRIPOS>ATOM
      1  C          6.2010    1.2090    0.8830 C.3     1  UNL1        0.0800
      2  C          5.5380    0.3940    1.9160 C.2     1  UNL1        0.1300
      3  C          6.3290   -0.8080    2.4030 C.3     1  UNL1        0.0870
      4  O          4.4600    0.5670    2.4110 O.2     1  UNL1       -0.3000
      5  C          5.8620    0.8860   -0.5190 C.3     1  UNL1        0.0430
      6  C          6.8470    0.1180   -1.2860 C.2     1  UNL1       -0.0440
      7  C          7.7960    0.7320   -2.1050 C.2     1  UNL1        0.0080
      8  C          6.8740   -1.2540   -1.1930 C.2     1  UNL1        0.0540
      9  C          8.7040   -0.0470   -2.7730 C.2     1  UNL1        0.0510
     10  C          7.8160   -2.0280   -1.8880 C.2     1  UNL1        0.1660
     11  C          8.7520   -1.4210   -2.6960 C.2     1  UNL1        0.1650
     12  O          8.0750   -3.3900   -1.9820 O.2     1  UNL1       -0.4540
     13  O          9.5630   -2.4110   -3.2670 O.2     1  UNL1       -0.4540
     14  C          9.4130   -3.5420   -2.4350 C.3     1  UNL1        0.4680
@<TRIPOS>BOND
     1    13    11    1
     2    13    14    1
     3     9    11    2
     4     9     7    1
     5    11    10    1
     6    14    12    1
     7     7     6    2
     8    12    10    1
     9    10     8    2
    10     6     8    1
    11     6     5    1
    12     5     1    1
    13     1     2    1
    14     2     3    1
    15     2     4    2
