@<TRIPOS>MOLECULE
/home/cewinharhar/GITHUB/reincatalyze/data/processed/docking_pred/2023-May-31-1727_sub9_nm5_bs15_s42_ex16_mel10_mts10000_k50_ec075_g099_lra3e-4_lrc3e-3/ca2511eb0ea692a115cf18c67ef7ccdfaa736476_ligand_9.pdbqt
 14 15 0 0 0
SMALL
GASTEIGER

@<TRIPOS>ATOM
      1  C          6.1790    0.4220    1.6820 C.3     1  UNL1        0.0800
      2  C          4.9500    1.2220    1.5320 C.2     1  UNL1        0.1300
      3  C          4.9210    2.1490    0.3290 C.3     1  UNL1        0.0870
      4  O          3.9830    1.2240    2.2400 O.2     1  UNL1       -0.3000
      5  C          7.2160    0.6210    0.6480 C.3     1  UNL1        0.0430
      6  C          7.5580   -0.5320   -0.1890 C.2     1  UNL1       -0.0440
      7  C          7.5750   -0.4610   -1.5830 C.2     1  UNL1        0.0080
      8  C          7.9050   -1.7280    0.3950 C.2     1  UNL1        0.0540
      9  C          7.9310   -1.5720   -2.3030 C.2     1  UNL1        0.0510
     10  C          8.2650   -2.8500   -0.3670 C.2     1  UNL1        0.1660
     11  C          8.2810   -2.7800   -1.7420 C.2     1  UNL1        0.1650
     12  O          8.6500   -4.1500   -0.0600 O.2     1  UNL1       -0.4540
     13  O          8.6720   -4.0250   -2.2520 O.2     1  UNL1       -0.4540
     14  C          9.3380   -4.6710   -1.1880 C.3     1  UNL1        0.4680
@<TRIPOS>BOND
     1     9    11    2
     2     9     7    1
     3    13    11    1
     4    13    14    1
     5    11    10    1
     6     7     6    2
     7    14    12    1
     8    10    12    1
     9    10     8    2
    10     6     8    1
    11     6     5    1
    12     3     2    1
    13     5     1    1
    14     2     1    1
    15     2     4    2
