@<TRIPOS>MOLECULE
/home/cewinharhar/GITHUB/reincatalyze/data/processed/docking_pred/2023-May-31-1727_sub9_nm5_bs15_s42_ex16_mel10_mts10000_k50_ec075_g099_lra3e-4_lrc3e-3/ca2511eb0ea692a115cf18c67ef7ccdfaa736476_ligand_9.pdbqt
 14 15 0 0 0
SMALL
GASTEIGER

@<TRIPOS>ATOM
      1  C          5.8940    1.3630   -0.2720 C.3     1  UNL1        0.0800
      2  C          5.2540    1.3170    1.0550 C.2     1  UNL1        0.1300
      3  C          5.5170    0.0560    1.8610 C.3     1  UNL1        0.0870
      4  O          4.5600    2.1500    1.5660 O.2     1  UNL1       -0.3000
      5  C          7.3210    0.9840   -0.3210 C.3     1  UNL1        0.0430
      6  C          7.6490   -0.3230   -0.8970 C.2     1  UNL1       -0.0440
      7  C          7.7190   -0.5320   -2.2750 C.2     1  UNL1        0.0080
      8  C          7.9280   -1.3880   -0.0730 C.2     1  UNL1        0.0540
      9  C          8.0580   -1.7750   -2.7450 C.2     1  UNL1        0.0510
     10  C          8.2730   -2.6500   -0.5810 C.2     1  UNL1        0.1660
     11  C          8.3410   -2.8570   -1.9410 C.2     1  UNL1        0.1650
     12  O          8.5970   -3.8730   -0.0060 O.2     1  UNL1       -0.4540
     13  O          8.7020   -4.1890   -2.1760 O.2     1  UNL1       -0.4540
     14  C          9.3050   -4.6300   -0.9770 C.3     1  UNL1        0.4680
@<TRIPOS>BOND
     1     9     7    1
     2     9    11    2
     3     7     6    2
     4    13    11    1
     5    13    14    1
     6    11    10    1
     7    14    12    1
     8     6     5    1
     9     6     8    1
    10    10     8    2
    11    10    12    1
    12     5     1    1
    13     1     2    1
    14     2     4    2
    15     2     3    1
