MODEL 1
REMARK VINA RESULT:      -7.6      0.000      0.000
REMARK SMILES CC(=O)CCc1ccc2c(c1)OCO2
REMARK SMILES IDX 4 1 2 2 1 3 3 4 5 5 6 6 7 7 11 8 8 9 10 10 9 11 12 12 14 13
REMARK SMILES IDX 13 14
REMARK H PARENT
REMARK Flexibility Score: inf
ROOT
ATOM      1  C   UNL     1       5.662   1.862   1.279  1.00  0.00     0.080 C 
ENDROOT
BRANCH   1   2
ATOM      2  C   UNL     1       5.082   0.721   2.011  1.00  0.00     0.130 C 
ATOM      3  C   UNL     1       6.004  -0.472   2.191  1.00  0.00     0.087 C 
ATOM      4  O   UNL     1       3.981   0.628   2.474  1.00  0.00    -0.300 OA
ENDBRANCH   1   2
BRANCH   1   5
ATOM      5  C   UNL     1       5.651   1.764  -0.195  1.00  0.00     0.043 C 
BRANCH   5   6
ATOM      6  C   UNL     1       6.725   0.991  -0.824  1.00  0.00    -0.044 A 
ATOM      7  C   UNL     1       8.070   1.334  -0.682  1.00  0.00     0.008 A 
ATOM      8  C   UNL     1       6.425  -0.131  -1.562  1.00  0.00     0.054 A 
ATOM      9  C   UNL     1       9.025   0.550  -1.276  1.00  0.00     0.051 A 
ATOM     10  C   UNL     1       7.422  -0.916  -2.159  1.00  0.00     0.166 A 
ATOM     11  C   UNL     1       8.750  -0.577  -2.019  1.00  0.00     0.165 A 
ATOM     12  O   UNL     1       7.417  -2.068  -2.936  1.00  0.00    -0.454 OA
ATOM     13  O   UNL     1       9.530  -1.517  -2.705  1.00  0.00    -0.454 OA
ATOM     14  C   UNL     1       8.706  -2.656  -2.843  1.00  0.00     0.468 C 
ENDBRANCH   5   6
ENDBRANCH   1   5
TORSDOF 3
ENDMDL
MODEL 2
REMARK VINA RESULT:      -6.9      1.846      2.322
REMARK SMILES CC(=O)CCc1ccc2c(c1)OCO2
REMARK SMILES IDX 4 1 2 2 1 3 3 4 5 5 6 6 7 7 11 8 8 9 10 10 9 11 12 12 14 13
REMARK SMILES IDX 13 14
REMARK H PARENT
REMARK Flexibility Score: inf
ROOT
ATOM      1  C   UNL     1       5.894   1.363  -0.272  1.00  0.00     0.080 C 
ENDROOT
BRANCH   1   2
ATOM      2  C   UNL     1       5.254   1.317   1.055  1.00  0.00     0.130 C 
ATOM      3  C   UNL     1       5.517   0.056   1.861  1.00  0.00     0.087 C 
ATOM      4  O   UNL     1       4.560   2.150   1.566  1.00  0.00    -0.300 OA
ENDBRANCH   1   2
BRANCH   1   5
ATOM      5  C   UNL     1       7.321   0.984  -0.321  1.00  0.00     0.043 C 
BRANCH   5   6
ATOM      6  C   UNL     1       7.649  -0.323  -0.897  1.00  0.00    -0.044 A 
ATOM      7  C   UNL     1       7.719  -0.532  -2.275  1.00  0.00     0.008 A 
ATOM      8  C   UNL     1       7.928  -1.388  -0.073  1.00  0.00     0.054 A 
ATOM      9  C   UNL     1       8.058  -1.775  -2.745  1.00  0.00     0.051 A 
ATOM     10  C   UNL     1       8.273  -2.650  -0.581  1.00  0.00     0.166 A 
ATOM     11  C   UNL     1       8.341  -2.857  -1.941  1.00  0.00     0.165 A 
ATOM     12  O   UNL     1       8.597  -3.873  -0.006  1.00  0.00    -0.454 OA
ATOM     13  O   UNL     1       8.702  -4.189  -2.176  1.00  0.00    -0.454 OA
ATOM     14  C   UNL     1       9.305  -4.630  -0.977  1.00  0.00     0.468 C 
ENDBRANCH   5   6
ENDBRANCH   1   5
TORSDOF 3
ENDMDL
MODEL 3
REMARK VINA RESULT:      -6.9      1.080      1.155
REMARK SMILES CC(=O)CCc1ccc2c(c1)OCO2
REMARK SMILES IDX 4 1 2 2 1 3 3 4 5 5 6 6 7 7 11 8 8 9 10 10 9 11 12 12 14 13
REMARK SMILES IDX 13 14
REMARK H PARENT
REMARK Flexibility Score: inf
ROOT
ATOM      1  C   UNL     1       6.201   1.209   0.883  1.00  0.00     0.080 C 
ENDROOT
BRANCH   1   2
ATOM      2  C   UNL     1       5.538   0.394   1.916  1.00  0.00     0.130 C 
ATOM      3  C   UNL     1       6.329  -0.808   2.403  1.00  0.00     0.087 C 
ATOM      4  O   UNL     1       4.460   0.567   2.411  1.00  0.00    -0.300 OA
ENDBRANCH   1   2
BRANCH   1   5
ATOM      5  C   UNL     1       5.862   0.886  -0.519  1.00  0.00     0.043 C 
BRANCH   5   6
ATOM      6  C   UNL     1       6.847   0.118  -1.286  1.00  0.00    -0.044 A 
ATOM      7  C   UNL     1       7.796   0.732  -2.105  1.00  0.00     0.008 A 
ATOM      8  C   UNL     1       6.874  -1.254  -1.193  1.00  0.00     0.054 A 
ATOM      9  C   UNL     1       8.704  -0.047  -2.773  1.00  0.00     0.051 A 
ATOM     10  C   UNL     1       7.816  -2.028  -1.888  1.00  0.00     0.166 A 
ATOM     11  C   UNL     1       8.752  -1.421  -2.696  1.00  0.00     0.165 A 
ATOM     12  O   UNL     1       8.075  -3.390  -1.982  1.00  0.00    -0.454 OA
ATOM     13  O   UNL     1       9.563  -2.411  -3.267  1.00  0.00    -0.454 OA
ATOM     14  C   UNL     1       9.413  -3.542  -2.435  1.00  0.00     0.468 C 
ENDBRANCH   5   6
ENDBRANCH   1   5
TORSDOF 3
ENDMDL
MODEL 4
REMARK VINA RESULT:      -6.7      1.171      1.650
REMARK SMILES CC(=O)CCc1ccc2c(c1)OCO2
REMARK SMILES IDX 4 1 2 2 1 3 3 4 5 5 6 6 7 7 11 8 8 9 10 10 9 11 12 12 14 13
REMARK SMILES IDX 13 14
REMARK H PARENT
REMARK Flexibility Score: inf
ROOT
ATOM      1  C   UNL     1       5.369  -0.087   1.949  1.00  0.00     0.080 C 
ENDROOT
BRANCH   1   2
ATOM      2  C   UNL     1       4.439   1.051   1.848  1.00  0.00     0.130 C 
ATOM      3  C   UNL     1       4.785   2.083   0.788  1.00  0.00     0.087 C 
ATOM      4  O   UNL     1       3.452   1.255   2.498  1.00  0.00    -0.300 OA
ENDBRANCH   1   2
BRANCH   1   5
ATOM      5  C   UNL     1       6.796   0.214   1.707  1.00  0.00     0.043 C 
BRANCH   5   6
ATOM      6  C   UNL     1       7.336  -0.119   0.386  1.00  0.00    -0.044 A 
ATOM      7  C   UNL     1       7.763   0.861  -0.512  1.00  0.00     0.008 A 
ATOM      8  C   UNL     1       7.463  -1.435   0.006  1.00  0.00     0.054 A 
ATOM      9  C   UNL     1       8.284   0.476  -1.720  1.00  0.00     0.051 A 
ATOM     10  C   UNL     1       8.000  -1.801  -1.238  1.00  0.00     0.166 A 
ATOM     11  C   UNL     1       8.421  -0.834  -2.124  1.00  0.00     0.165 A 
ATOM     12  O   UNL     1       8.243  -3.012  -1.873  1.00  0.00    -0.454 OA
ATOM     13  O   UNL     1       8.910  -1.462  -3.277  1.00  0.00    -0.454 OA
ATOM     14  C   UNL     1       9.216  -2.782  -2.881  1.00  0.00     0.468 C 
ENDBRANCH   5   6
ENDBRANCH   1   5
TORSDOF 3
ENDMDL
MODEL 5
REMARK VINA RESULT:      -6.6      1.936      2.446
REMARK SMILES CC(=O)CCc1ccc2c(c1)OCO2
REMARK SMILES IDX 4 1 2 2 1 3 3 4 5 5 6 6 7 7 11 8 8 9 10 10 9 11 12 12 14 13
REMARK SMILES IDX 13 14
REMARK H PARENT
REMARK Flexibility Score: inf
ROOT
ATOM      1  C   UNL     1       6.179   0.422   1.682  1.00  0.00     0.080 C 
ENDROOT
BRANCH   1   2
ATOM      2  C   UNL     1       4.950   1.222   1.532  1.00  0.00     0.130 C 
ATOM      3  C   UNL     1       4.921   2.149   0.329  1.00  0.00     0.087 C 
ATOM      4  O   UNL     1       3.983   1.224   2.240  1.00  0.00    -0.300 OA
ENDBRANCH   1   2
BRANCH   1   5
ATOM      5  C   UNL     1       7.216   0.621   0.648  1.00  0.00     0.043 C 
BRANCH   5   6
ATOM      6  C   UNL     1       7.558  -0.532  -0.189  1.00  0.00    -0.044 A 
ATOM      7  C   UNL     1       7.575  -0.461  -1.583  1.00  0.00     0.008 A 
ATOM      8  C   UNL     1       7.905  -1.728   0.395  1.00  0.00     0.054 A 
ATOM      9  C   UNL     1       7.931  -1.572  -2.303  1.00  0.00     0.051 A 
ATOM     10  C   UNL     1       8.265  -2.850  -0.367  1.00  0.00     0.166 A 
ATOM     11  C   UNL     1       8.281  -2.780  -1.742  1.00  0.00     0.165 A 
ATOM     12  O   UNL     1       8.650  -4.150  -0.060  1.00  0.00    -0.454 OA
ATOM     13  O   UNL     1       8.672  -4.025  -2.252  1.00  0.00    -0.454 OA
ATOM     14  C   UNL     1       9.338  -4.671  -1.188  1.00  0.00     0.468 C 
ENDBRANCH   5   6
ENDBRANCH   1   5
TORSDOF 3
ENDMDL
