@<TRIPOS>MOLECULE
/home/cewinharhar/GITHUB/reincatalyze/data/processed/docking_pred/2023-May-31-1727_sub9_nm5_bs15_s42_ex16_mel10_mts10000_k50_ec075_g099_lra3e-4_lrc3e-3/cb79d4b49cb2e7af28552c4e2a37cc688e9725fc_ligand_9.pdbqt
 14 15 0 0 0
SMALL
GASTEIGER

@<TRIPOS>ATOM
      1  C          5.4130    0.0480    2.0670 C.3     1  UNL1        0.0800
      2  C          4.4870    1.1890    1.9480 C.2     1  UNL1        0.1300
      3  C          4.7820    2.1490    0.8090 C.3     1  UNL1        0.0870
      4  O          3.5400    1.4420    2.6370 O.2     1  UNL1       -0.3000
      5  C          6.8390    0.3370    1.8060 C.3     1  UNL1        0.0430
      6  C          7.3510    0.0310    0.4680 C.2     1  UNL1       -0.0440
      7  C          7.8580    1.0190   -0.3780 C.2     1  UNL1        0.0080
      8  C          7.3690   -1.2680    0.0170 C.2     1  UNL1        0.0540
      9  C          8.3450    0.6580   -1.6080 C.2     1  UNL1        0.0510
     10  C          7.8740   -1.6100   -1.2460 C.2     1  UNL1        0.1660
     11  C          8.3740   -0.6350   -2.0810 C.2     1  UNL1        0.1650
     12  O          8.0160   -2.8020   -1.9460 O.2     1  UNL1       -0.4540
     13  O          8.8100   -1.2390   -3.2680 O.2     1  UNL1       -0.4540
     14  C          9.0060   -2.6000   -2.9440 C.3     1  UNL1        0.4680
@<TRIPOS>BOND
     1    13    14    1
     2    13    11    1
     3    14    12    1
     4    11     9    2
     5    11    10    1
     6    12    10    1
     7     9     7    1
     8    10     8    2
     9     7     6    2
    10     8     6    1
    11     6     5    1
    12     3     2    1
    13     5     1    1
    14     2     1    1
    15     2     4    2
