MODEL 1
REMARK VINA RESULT:      -7.9      0.000      0.000
REMARK SMILES CC(=O)CCc1ccc2c(c1)OCO2
REMARK SMILES IDX 4 1 2 2 1 3 3 4 5 5 6 6 7 7 11 8 8 9 10 10 9 11 12 12 14 13
REMARK SMILES IDX 13 14
REMARK H PARENT
REMARK Flexibility Score: inf
ROOT
ATOM      1  C   UNL     1       5.406   2.150   1.180  1.00  0.00     0.080 C 
ENDROOT
BRANCH   1   2
ATOM      2  C   UNL     1       4.697   1.169   2.021  1.00  0.00     0.130 C 
ATOM      3  C   UNL     1       5.363  -0.192   2.135  1.00  0.00     0.087 C 
ATOM      4  O   UNL     1       3.668   1.318   2.617  1.00  0.00    -0.300 OA
ENDBRANCH   1   2
BRANCH   1   5
ATOM      5  C   UNL     1       5.393   1.891  -0.275  1.00  0.00     0.043 C 
BRANCH   5   6
ATOM      6  C   UNL     1       6.520   1.138  -0.832  1.00  0.00    -0.044 A 
ATOM      7  C   UNL     1       7.847   1.468  -0.552  1.00  0.00     0.008 A 
ATOM      8  C   UNL     1       6.288   0.048  -1.639  1.00  0.00     0.054 A 
ATOM      9  C   UNL     1       8.851   0.703  -1.085  1.00  0.00     0.051 A 
ATOM     10  C   UNL     1       7.336  -0.718  -2.171  1.00  0.00     0.166 A 
ATOM     11  C   UNL     1       8.645  -0.392  -1.895  1.00  0.00     0.165 A 
ATOM     12  O   UNL     1       7.401  -1.838  -2.992  1.00  0.00    -0.454 OA
ATOM     13  O   UNL     1       9.484  -1.308  -2.544  1.00  0.00    -0.454 OA
ATOM     14  C   UNL     1       8.675  -2.436  -2.802  1.00  0.00     0.468 C 
ENDBRANCH   5   6
ENDBRANCH   1   5
TORSDOF 3
ENDMDL
MODEL 2
REMARK VINA RESULT:      -7.4      1.008      1.107
REMARK SMILES CC(=O)CCc1ccc2c(c1)OCO2
REMARK SMILES IDX 4 1 2 2 1 3 3 4 5 5 6 6 7 7 11 8 8 9 10 10 9 11 12 12 14 13
REMARK SMILES IDX 13 14
REMARK H PARENT
REMARK Flexibility Score: inf
ROOT
ATOM      1  C   UNL     1       5.089   1.015   1.502  1.00  0.00     0.080 C 
ENDROOT
BRANCH   1   2
ATOM      2  C   UNL     1       6.077   0.332   2.356  1.00  0.00     0.130 C 
ATOM      3  C   UNL     1       6.207  -1.165   2.131  1.00  0.00     0.087 C 
ATOM      4  O   UNL     1       6.781   0.815   3.197  1.00  0.00    -0.300 OA
ENDBRANCH   1   2
BRANCH   1   5
ATOM      5  C   UNL     1       5.627   1.716   0.317  1.00  0.00     0.043 C 
BRANCH   5   6
ATOM      6  C   UNL     1       6.671   1.031  -0.450  1.00  0.00    -0.044 A 
ATOM      7  C   UNL     1       8.008   1.428  -0.406  1.00  0.00     0.008 A 
ATOM      8  C   UNL     1       6.352  -0.060  -1.225  1.00  0.00     0.054 A 
ATOM      9  C   UNL     1       8.937   0.724  -1.129  1.00  0.00     0.051 A 
ATOM     10  C   UNL     1       7.324  -0.763  -1.955  1.00  0.00     0.166 A 
ATOM     11  C   UNL     1       8.643  -0.370  -1.912  1.00  0.00     0.165 A 
ATOM     12  O   UNL     1       7.296  -1.867  -2.797  1.00  0.00    -0.454 OA
ATOM     13  O   UNL     1       9.396  -1.231  -2.720  1.00  0.00    -0.454 OA
ATOM     14  C   UNL     1       8.612  -2.399  -2.853  1.00  0.00     0.468 C 
ENDBRANCH   5   6
ENDBRANCH   1   5
TORSDOF 3
ENDMDL
MODEL 3
REMARK VINA RESULT:      -6.9      2.054      2.576
REMARK SMILES CC(=O)CCc1ccc2c(c1)OCO2
REMARK SMILES IDX 4 1 2 2 1 3 3 4 5 5 6 6 7 7 11 8 8 9 10 10 9 11 12 12 14 13
REMARK SMILES IDX 13 14
REMARK H PARENT
REMARK Flexibility Score: inf
ROOT
ATOM      1  C   UNL     1       5.620   0.104   2.139  1.00  0.00     0.080 C 
ENDROOT
BRANCH   1   2
ATOM      2  C   UNL     1       4.663   1.199   1.902  1.00  0.00     0.130 C 
ATOM      3  C   UNL     1       4.958   2.070   0.693  1.00  0.00     0.087 C 
ATOM      4  O   UNL     1       3.690   1.478   2.544  1.00  0.00    -0.300 OA
ENDBRANCH   1   2
BRANCH   1   5
ATOM      5  C   UNL     1       6.954   0.260   1.521  1.00  0.00     0.043 C 
BRANCH   5   6
ATOM      6  C   UNL     1       7.327  -0.702   0.480  1.00  0.00    -0.044 A 
ATOM      7  C   UNL     1       7.248  -0.394  -0.879  1.00  0.00     0.008 A 
ATOM      8  C   UNL     1       7.800  -1.945   0.829  1.00  0.00     0.054 A 
ATOM      9  C   UNL     1       7.640  -1.333  -1.799  1.00  0.00     0.051 A 
ATOM     10  C   UNL     1       8.195  -2.887  -0.134  1.00  0.00     0.166 A 
ATOM     11  C   UNL     1       8.116  -2.584  -1.475  1.00  0.00     0.165 A 
ATOM     12  O   UNL     1       8.696  -4.182  -0.078  1.00  0.00    -0.454 OA
ATOM     13  O   UNL     1       8.566  -3.686  -2.213  1.00  0.00    -0.454 OA
ATOM     14  C   UNL     1       9.347  -4.445  -1.313  1.00  0.00     0.468 C 
ENDBRANCH   5   6
ENDBRANCH   1   5
TORSDOF 3
ENDMDL
MODEL 4
REMARK VINA RESULT:      -6.9      1.647      2.019
REMARK SMILES CC(=O)CCc1ccc2c(c1)OCO2
REMARK SMILES IDX 4 1 2 2 1 3 3 4 5 5 6 6 7 7 11 8 8 9 10 10 9 11 12 12 14 13
REMARK SMILES IDX 13 14
REMARK H PARENT
REMARK Flexibility Score: inf
ROOT
ATOM      1  C   UNL     1       5.544   1.565   0.379  1.00  0.00     0.080 C 
ENDROOT
BRANCH   1   2
ATOM      2  C   UNL     1       5.220   1.296   1.792  1.00  0.00     0.130 C 
ATOM      3  C   UNL     1       6.393   0.867   2.657  1.00  0.00     0.087 C 
ATOM      4  O   UNL     1       4.153   1.376   2.330  1.00  0.00    -0.300 OA
ENDBRANCH   1   2
BRANCH   1   5
ATOM      5  C   UNL     1       6.956   1.377  -0.013  1.00  0.00     0.043 C 
BRANCH   5   6
ATOM      6  C   UNL     1       7.294   0.146  -0.733  1.00  0.00    -0.044 A 
ATOM      7  C   UNL     1       7.286   0.073  -2.127  1.00  0.00     0.008 A 
ATOM      8  C   UNL     1       7.661  -0.981  -0.036  1.00  0.00     0.054 A 
ATOM      9  C   UNL     1       7.639  -1.103  -2.735  1.00  0.00     0.051 A 
ATOM     10  C   UNL     1       8.019  -2.173  -0.684  1.00  0.00     0.166 A 
ATOM     11  C   UNL     1       8.010  -2.245  -2.060  1.00  0.00     0.165 A 
ATOM     12  O   UNL     1       8.421  -3.431  -0.253  1.00  0.00    -0.454 OA
ATOM     13  O   UNL     1       8.403  -3.533  -2.446  1.00  0.00    -0.454 OA
ATOM     14  C   UNL     1       9.094  -4.061  -1.333  1.00  0.00     0.468 C 
ENDBRANCH   5   6
ENDBRANCH   1   5
TORSDOF 3
ENDMDL
MODEL 5
REMARK VINA RESULT:      -6.9      1.137      1.634
REMARK SMILES CC(=O)CCc1ccc2c(c1)OCO2
REMARK SMILES IDX 4 1 2 2 1 3 3 4 5 5 6 6 7 7 11 8 8 9 10 10 9 11 12 12 14 13
REMARK SMILES IDX 13 14
REMARK H PARENT
REMARK Flexibility Score: inf
ROOT
ATOM      1  C   UNL     1       5.413   0.048   2.067  1.00  0.00     0.080 C 
ENDROOT
BRANCH   1   2
ATOM      2  C   UNL     1       4.487   1.189   1.948  1.00  0.00     0.130 C 
ATOM      3  C   UNL     1       4.782   2.149   0.809  1.00  0.00     0.087 C 
ATOM      4  O   UNL     1       3.540   1.442   2.637  1.00  0.00    -0.300 OA
ENDBRANCH   1   2
BRANCH   1   5
ATOM      5  C   UNL     1       6.839   0.337   1.806  1.00  0.00     0.043 C 
BRANCH   5   6
ATOM      6  C   UNL     1       7.351   0.031   0.468  1.00  0.00    -0.044 A 
ATOM      7  C   UNL     1       7.858   1.019  -0.378  1.00  0.00     0.008 A 
ATOM      8  C   UNL     1       7.369  -1.268   0.017  1.00  0.00     0.054 A 
ATOM      9  C   UNL     1       8.345   0.658  -1.608  1.00  0.00     0.051 A 
ATOM     10  C   UNL     1       7.874  -1.610  -1.246  1.00  0.00     0.166 A 
ATOM     11  C   UNL     1       8.374  -0.635  -2.081  1.00  0.00     0.165 A 
ATOM     12  O   UNL     1       8.016  -2.802  -1.946  1.00  0.00    -0.454 OA
ATOM     13  O   UNL     1       8.810  -1.239  -3.268  1.00  0.00    -0.454 OA
ATOM     14  C   UNL     1       9.006  -2.600  -2.944  1.00  0.00     0.468 C 
ENDBRANCH   5   6
ENDBRANCH   1   5
TORSDOF 3
ENDMDL
