@<TRIPOS>MOLECULE
/home/cewinharhar/GITHUB/reincatalyze/data/processed/docking_pred/2023-May-31-1727_sub9_nm5_bs15_s42_ex16_mel10_mts10000_k50_ec075_g099_lra3e-4_lrc3e-3/cb79d4b49cb2e7af28552c4e2a37cc688e9725fc_ligand_9.pdbqt
 14 15 0 0 0
SMALL
GASTEIGER

@<TRIPOS>ATOM
      1  C          5.5440    1.5650    0.3790 C.3     1  UNL1        0.0800
      2  C          5.2200    1.2960    1.7920 C.2     1  UNL1        0.1300
      3  C          6.3930    0.8670    2.6570 C.3     1  UNL1        0.0870
      4  O          4.1530    1.3760    2.3300 O.2     1  UNL1       -0.3000
      5  C          6.9560    1.3770   -0.0130 C.3     1  UNL1        0.0430
      6  C          7.2940    0.1460   -0.7330 C.2     1  UNL1       -0.0440
      7  C          7.2860    0.0730   -2.1270 C.2     1  UNL1        0.0080
      8  C          7.6610   -0.9810   -0.0360 C.2     1  UNL1        0.0540
      9  C          7.6390   -1.1030   -2.7350 C.2     1  UNL1        0.0510
     10  C          8.0190   -2.1730   -0.6840 C.2     1  UNL1        0.1660
     11  C          8.0100   -2.2450   -2.0600 C.2     1  UNL1        0.1650
     12  O          8.4210   -3.4310   -0.2530 O.2     1  UNL1       -0.4540
     13  O          8.4030   -3.5330   -2.4460 O.2     1  UNL1       -0.4540
     14  C          9.0940   -4.0610   -1.3330 C.3     1  UNL1        0.4680
@<TRIPOS>BOND
     1     9     7    1
     2     9    11    2
     3    13    11    1
     4    13    14    1
     5     7     6    2
     6    11    10    1
     7    14    12    1
     8     6     8    1
     9     6     5    1
    10    10    12    1
    11    10     8    2
    12     5     1    1
    13     1     2    1
    14     2     4    2
    15     2     3    1
