@<TRIPOS>MOLECULE
/home/cewinharhar/GITHUB/reincatalyze/data/processed/docking_pred/2023-May-31-1727_sub9_nm5_bs15_s42_ex16_mel10_mts10000_k50_ec075_g099_lra3e-4_lrc3e-3/cb79d4b49cb2e7af28552c4e2a37cc688e9725fc_ligand_9.pdbqt
 14 15 0 0 0
SMALL
GASTEIGER

@<TRIPOS>ATOM
      1  C          5.6200    0.1040    2.1390 C.3     1  UNL1        0.0800
      2  C          4.6630    1.1990    1.9020 C.2     1  UNL1        0.1300
      3  C          4.9580    2.0700    0.6930 C.3     1  UNL1        0.0870
      4  O          3.6900    1.4780    2.5440 O.2     1  UNL1       -0.3000
      5  C          6.9540    0.2600    1.5210 C.3     1  UNL1        0.0430
      6  C          7.3270   -0.7020    0.4800 C.2     1  UNL1       -0.0440
      7  C          7.2480   -0.3940   -0.8790 C.2     1  UNL1        0.0080
      8  C          7.8000   -1.9450    0.8290 C.2     1  UNL1        0.0540
      9  C          7.6400   -1.3330   -1.7990 C.2     1  UNL1        0.0510
     10  C          8.1950   -2.8870   -0.1340 C.2     1  UNL1        0.1660
     11  C          8.1160   -2.5840   -1.4750 C.2     1  UNL1        0.1650
     12  O          8.6960   -4.1820   -0.0780 O.2     1  UNL1       -0.4540
     13  O          8.5660   -3.6860   -2.2130 O.2     1  UNL1       -0.4540
     14  C          9.3470   -4.4450   -1.3130 C.3     1  UNL1        0.4680
@<TRIPOS>BOND
     1    13    11    1
     2    13    14    1
     3     9    11    2
     4     9     7    1
     5    11    10    1
     6    14    12    1
     7     7     6    2
     8    10    12    1
     9    10     8    2
    10     6     8    1
    11     6     5    1
    12     3     2    1
    13     5     1    1
    14     2     1    1
    15     2     4    2
