@<TRIPOS>MOLECULE
/home/cewinharhar/GITHUB/reincatalyze/data/processed/docking_pred/2023-May-31-1727_sub9_nm5_bs15_s42_ex16_mel10_mts10000_k50_ec075_g099_lra3e-4_lrc3e-3/cb79d4b49cb2e7af28552c4e2a37cc688e9725fc_ligand_9.pdbqt
 14 15 0 0 0
SMALL
GASTEIGER

@<TRIPOS>ATOM
      1  C          5.4060    2.1500    1.1800 C.3     1  UNL1        0.0800
      2  C          4.6970    1.1690    2.0210 C.2     1  UNL1        0.1300
      3  C          5.3630   -0.1920    2.1350 C.3     1  UNL1        0.0870
      4  O          3.6680    1.3180    2.6170 O.2     1  UNL1       -0.3000
      5  C          5.3930    1.8910   -0.2750 C.3     1  UNL1        0.0430
      6  C          6.5200    1.1380   -0.8320 C.2     1  UNL1       -0.0440
      7  C          7.8470    1.4680   -0.5520 C.2     1  UNL1        0.0080
      8  C          6.2880    0.0480   -1.6390 C.2     1  UNL1        0.0540
      9  C          8.8510    0.7030   -1.0850 C.2     1  UNL1        0.0510
     10  C          7.3360   -0.7180   -2.1710 C.2     1  UNL1        0.1660
     11  C          8.6450   -0.3920   -1.8950 C.2     1  UNL1        0.1650
     12  O          7.4010   -1.8380   -2.9920 O.2     1  UNL1       -0.4540
     13  O          9.4840   -1.3080   -2.5440 O.2     1  UNL1       -0.4540
     14  C          8.6750   -2.4360   -2.8020 C.3     1  UNL1        0.4680
@<TRIPOS>BOND
     1    12    14    1
     2    12    10    1
     3    14    13    1
     4    13    11    1
     5    10    11    2
     6    10     8    1
     7    11     9    1
     8     8     6    2
     9     9     7    2
    10     6     7    1
    11     6     5    1
    12     5     1    1
    13     1     2    1
    14     2     3    1
    15     2     4    2
