@<TRIPOS>MOLECULE
/home/cewinharhar/GITHUB/reincatalyze/data/processed/docking_pred/2023-May-31-1727_sub9_nm5_bs15_s42_ex16_mel10_mts10000_k50_ec075_g099_lra3e-4_lrc3e-3/cc4a81c85f0f72a0e9860fd8246284f5ccc1e781_ligand_9.pdbqt
 14 15 0 0 0
SMALL
GASTEIGER

@<TRIPOS>ATOM
      1  C          5.5550    1.8980    1.2110 C.3     1  UNL1        0.0800
      2  C          5.0290    0.7680    1.9970 C.2     1  UNL1        0.1300
      3  C          5.9870   -0.3950    2.1860 C.3     1  UNL1        0.0870
      4  O          3.9460    0.6630    2.4990 O.2     1  UNL1       -0.3000
      5  C          5.5360    1.7340   -0.2580 C.3     1  UNL1        0.0430
      6  C          6.6410    0.9850   -0.8630 C.2     1  UNL1       -0.0440
      7  C          7.9750    1.3560   -0.6890 C.2     1  UNL1        0.0080
      8  C          6.3810   -0.1410   -1.6100 C.2     1  UNL1        0.0540
      9  C          8.9590    0.5920   -1.2620 C.2     1  UNL1        0.0510
     10  C          7.4090   -0.9040   -2.1850 C.2     1  UNL1        0.1660
     11  C          8.7250   -0.5380   -2.0130 C.2     1  UNL1        0.1650
     12  O          7.4450   -2.0540   -2.9640 O.2     1  UNL1       -0.4540
     13  O          9.5400   -1.4600   -2.6830 O.2     1  UNL1       -0.4540
     14  C          8.7440   -2.6160   -2.8420 C.3     1  UNL1        0.4680
@<TRIPOS>BOND
     1    12    14    1
     2    12    10    1
     3    14    13    1
     4    13    11    1
     5    10    11    2
     6    10     8    1
     7    11     9    1
     8     8     6    2
     9     9     7    2
    10     6     7    1
    11     6     5    1
    12     5     1    1
    13     1     2    1
    14     2     3    1
    15     2     4    2
