@<TRIPOS>MOLECULE
/home/cewinharhar/GITHUB/reincatalyze/data/processed/docking_pred/2023-May-31-1727_sub9_nm5_bs15_s42_ex16_mel10_mts10000_k50_ec075_g099_lra3e-4_lrc3e-3/cc4a81c85f0f72a0e9860fd8246284f5ccc1e781_ligand_9.pdbqt
 14 15 0 0 0
SMALL
GASTEIGER

@<TRIPOS>ATOM
      1  C          6.7230    1.7740    1.1160 C.3     1  UNL1        0.0800
      2  C          5.2780    1.8930    0.8470 C.2     1  UNL1        0.1300
      3  C          4.9070    2.1490   -0.6040 C.3     1  UNL1        0.0870
      4  O          4.3750    1.8130    1.6300 O.2     1  UNL1       -0.3000
      5  C          7.5970    1.6320   -0.0670 C.3     1  UNL1        0.0430
      6  C          7.7700    0.2840   -0.6160 C.2     1  UNL1       -0.0440
      7  C          7.7650    0.0330   -1.9890 C.2     1  UNL1        0.0080
      8  C          7.9730   -0.7820    0.2290 C.2     1  UNL1        0.0540
      9  C          7.9600   -1.2490   -2.4330 C.2     1  UNL1        0.0510
     10  C          8.1710   -2.0850   -0.2530 C.2     1  UNL1        0.1660
     11  C          8.1650   -2.3320   -1.6080 C.2     1  UNL1        0.1650
     12  O          8.3930   -3.3190    0.3460 O.2     1  UNL1       -0.4540
     13  O          8.3820   -3.7000   -1.8160 O.2     1  UNL1       -0.4540
     14  C          8.9840   -4.1680   -0.6270 C.3     1  UNL1        0.4680
@<TRIPOS>BOND
     1     9     7    1
     2     9    11    2
     3     7     6    2
     4    13    11    1
     5    13    14    1
     6    11    10    1
     7    14    12    1
     8     6     5    1
     9     6     8    1
    10     3     2    1
    11    10     8    2
    12    10    12    1
    13     5     1    1
    14     2     1    1
    15     2     4    2
