MODEL 1
REMARK VINA RESULT:      -7.6      0.000      0.000
REMARK SMILES CC(=O)CCc1ccc2c(c1)OCO2
REMARK SMILES IDX 4 1 2 2 1 3 3 4 5 5 6 6 7 7 11 8 8 9 10 10 9 11 12 12 14 13
REMARK SMILES IDX 13 14
REMARK H PARENT
REMARK Flexibility Score: inf
ROOT
ATOM      1  C   UNL     1       5.555   1.898   1.211  1.00  0.00     0.080 C 
ENDROOT
BRANCH   1   2
ATOM      2  C   UNL     1       5.029   0.768   1.997  1.00  0.00     0.130 C 
ATOM      3  C   UNL     1       5.987  -0.395   2.186  1.00  0.00     0.087 C 
ATOM      4  O   UNL     1       3.946   0.663   2.499  1.00  0.00    -0.300 OA
ENDBRANCH   1   2
BRANCH   1   5
ATOM      5  C   UNL     1       5.536   1.734  -0.258  1.00  0.00     0.043 C 
BRANCH   5   6
ATOM      6  C   UNL     1       6.641   0.985  -0.863  1.00  0.00    -0.044 A 
ATOM      7  C   UNL     1       7.975   1.356  -0.689  1.00  0.00     0.008 A 
ATOM      8  C   UNL     1       6.381  -0.141  -1.610  1.00  0.00     0.054 A 
ATOM      9  C   UNL     1       8.959   0.592  -1.262  1.00  0.00     0.051 A 
ATOM     10  C   UNL     1       7.409  -0.904  -2.185  1.00  0.00     0.166 A 
ATOM     11  C   UNL     1       8.725  -0.538  -2.013  1.00  0.00     0.165 A 
ATOM     12  O   UNL     1       7.445  -2.054  -2.964  1.00  0.00    -0.454 OA
ATOM     13  O   UNL     1       9.540  -1.460  -2.683  1.00  0.00    -0.454 OA
ATOM     14  C   UNL     1       8.744  -2.616  -2.842  1.00  0.00     0.468 C 
ENDBRANCH   5   6
ENDBRANCH   1   5
TORSDOF 3
ENDMDL
MODEL 2
REMARK VINA RESULT:      -7.0      1.855      2.331
REMARK SMILES CC(=O)CCc1ccc2c(c1)OCO2
REMARK SMILES IDX 4 1 2 2 1 3 3 4 5 5 6 6 7 7 11 8 8 9 10 10 9 11 12 12 14 13
REMARK SMILES IDX 13 14
REMARK H PARENT
REMARK Flexibility Score: inf
ROOT
ATOM      1  C   UNL     1       5.884   1.376  -0.264  1.00  0.00     0.080 C 
ENDROOT
BRANCH   1   2
ATOM      2  C   UNL     1       5.209   1.324   1.045  1.00  0.00     0.130 C 
ATOM      3  C   UNL     1       5.459   0.063   1.855  1.00  0.00     0.087 C 
ATOM      4  O   UNL     1       4.494   2.150   1.538  1.00  0.00    -0.300 OA
ENDBRANCH   1   2
BRANCH   1   5
ATOM      5  C   UNL     1       7.309   0.984  -0.279  1.00  0.00     0.043 C 
BRANCH   5   6
ATOM      6  C   UNL     1       7.641  -0.315  -0.870  1.00  0.00    -0.044 A 
ATOM      7  C   UNL     1       7.710  -0.508  -2.250  1.00  0.00     0.008 A 
ATOM      8  C   UNL     1       7.925  -1.388  -0.058  1.00  0.00     0.054 A 
ATOM      9  C   UNL     1       8.053  -1.744  -2.734  1.00  0.00     0.051 A 
ATOM     10  C   UNL     1       8.274  -2.643  -0.580  1.00  0.00     0.166 A 
ATOM     11  C   UNL     1       8.341  -2.834  -1.943  1.00  0.00     0.165 A 
ATOM     12  O   UNL     1       8.603  -3.871  -0.020  1.00  0.00    -0.454 OA
ATOM     13  O   UNL     1       8.707  -4.163  -2.193  1.00  0.00    -0.454 OA
ATOM     14  C   UNL     1       9.312  -4.615  -1.000  1.00  0.00     0.468 C 
ENDBRANCH   5   6
ENDBRANCH   1   5
TORSDOF 3
ENDMDL
MODEL 3
REMARK VINA RESULT:      -6.9      0.957      1.033
REMARK SMILES CC(=O)CCc1ccc2c(c1)OCO2
REMARK SMILES IDX 4 1 2 2 1 3 3 4 5 5 6 6 7 7 11 8 8 9 10 10 9 11 12 12 14 13
REMARK SMILES IDX 13 14
REMARK H PARENT
REMARK Flexibility Score: inf
ROOT
ATOM      1  C   UNL     1       6.206   1.294   0.895  1.00  0.00     0.080 C 
ENDROOT
BRANCH   1   2
ATOM      2  C   UNL     1       5.545   0.439   1.898  1.00  0.00     0.130 C 
ATOM      3  C   UNL     1       6.318  -0.805   2.303  1.00  0.00     0.087 C 
ATOM      4  O   UNL     1       4.483   0.611   2.424  1.00  0.00    -0.300 OA
ENDBRANCH   1   2
BRANCH   1   5
ATOM      5  C   UNL     1       5.931   0.969  -0.520  1.00  0.00     0.043 C 
BRANCH   5   6
ATOM      6  C   UNL     1       6.951   0.205  -1.243  1.00  0.00    -0.044 A 
ATOM      7  C   UNL     1       8.071   0.812  -1.814  1.00  0.00     0.008 A 
ATOM      8  C   UNL     1       6.839  -1.162  -1.353  1.00  0.00     0.054 A 
ATOM      9  C   UNL     1       9.000   0.032  -2.453  1.00  0.00     0.051 A 
ATOM     10  C   UNL     1       7.805  -1.936  -2.012  1.00  0.00     0.166 A 
ATOM     11  C   UNL     1       8.909  -1.337  -2.576  1.00  0.00     0.165 A 
ATOM     12  O   UNL     1       7.951  -3.294  -2.271  1.00  0.00    -0.454 OA
ATOM     13  O   UNL     1       9.707  -2.326  -3.166  1.00  0.00    -0.454 OA
ATOM     14  C   UNL     1       9.324  -3.535  -2.543  1.00  0.00     0.468 C 
ENDBRANCH   5   6
ENDBRANCH   1   5
TORSDOF 3
ENDMDL
MODEL 4
REMARK VINA RESULT:      -6.7      1.099      1.603
REMARK SMILES CC(=O)CCc1ccc2c(c1)OCO2
REMARK SMILES IDX 4 1 2 2 1 3 3 4 5 5 6 6 7 7 11 8 8 9 10 10 9 11 12 12 14 13
REMARK SMILES IDX 13 14
REMARK H PARENT
REMARK Flexibility Score: inf
ROOT
ATOM      1  C   UNL     1       5.335  -0.022   1.989  1.00  0.00     0.080 C 
ENDROOT
BRANCH   1   2
ATOM      2  C   UNL     1       4.388   1.101   1.869  1.00  0.00     0.130 C 
ATOM      3  C   UNL     1       4.733   2.132   0.807  1.00  0.00     0.087 C 
ATOM      4  O   UNL     1       3.390   1.293   2.504  1.00  0.00    -0.300 OA
ENDBRANCH   1   2
BRANCH   1   5
ATOM      5  C   UNL     1       6.760   0.300   1.762  1.00  0.00     0.043 C 
BRANCH   5   6
ATOM      6  C   UNL     1       7.312  -0.000   0.438  1.00  0.00    -0.044 A 
ATOM      7  C   UNL     1       7.870   0.987  -0.377  1.00  0.00     0.008 A 
ATOM      8  C   UNL     1       7.317  -1.294  -0.029  1.00  0.00     0.054 A 
ATOM      9  C   UNL     1       8.393   0.630  -1.592  1.00  0.00     0.051 A 
ATOM     10  C   UNL     1       7.859  -1.631  -1.278  1.00  0.00     0.166 A 
ATOM     11  C   UNL     1       8.410  -0.657  -2.082  1.00  0.00     0.165 A 
ATOM     12  O   UNL     1       7.999  -2.817  -1.989  1.00  0.00    -0.454 OA
ATOM     13  O   UNL     1       8.874  -1.256  -3.261  1.00  0.00    -0.454 OA
ATOM     14  C   UNL     1       9.028  -2.625  -2.948  1.00  0.00     0.468 C 
ENDBRANCH   5   6
ENDBRANCH   1   5
TORSDOF 3
ENDMDL
MODEL 5
REMARK VINA RESULT:      -6.7      1.819      2.402
REMARK SMILES CC(=O)CCc1ccc2c(c1)OCO2
REMARK SMILES IDX 4 1 2 2 1 3 3 4 5 5 6 6 7 7 11 8 8 9 10 10 9 11 12 12 14 13
REMARK SMILES IDX 13 14
REMARK H PARENT
REMARK Flexibility Score: inf
ROOT
ATOM      1  C   UNL     1       6.723   1.774   1.116  1.00  0.00     0.080 C 
ENDROOT
BRANCH   1   2
ATOM      2  C   UNL     1       5.278   1.893   0.847  1.00  0.00     0.130 C 
ATOM      3  C   UNL     1       4.907   2.149  -0.604  1.00  0.00     0.087 C 
ATOM      4  O   UNL     1       4.375   1.813   1.630  1.00  0.00    -0.300 OA
ENDBRANCH   1   2
BRANCH   1   5
ATOM      5  C   UNL     1       7.597   1.632  -0.067  1.00  0.00     0.043 C 
BRANCH   5   6
ATOM      6  C   UNL     1       7.770   0.284  -0.616  1.00  0.00    -0.044 A 
ATOM      7  C   UNL     1       7.765   0.033  -1.989  1.00  0.00     0.008 A 
ATOM      8  C   UNL     1       7.973  -0.782   0.229  1.00  0.00     0.054 A 
ATOM      9  C   UNL     1       7.960  -1.249  -2.433  1.00  0.00     0.051 A 
ATOM     10  C   UNL     1       8.171  -2.085  -0.253  1.00  0.00     0.166 A 
ATOM     11  C   UNL     1       8.165  -2.332  -1.608  1.00  0.00     0.165 A 
ATOM     12  O   UNL     1       8.393  -3.319   0.346  1.00  0.00    -0.454 OA
ATOM     13  O   UNL     1       8.382  -3.700  -1.816  1.00  0.00    -0.454 OA
ATOM     14  C   UNL     1       8.984  -4.168  -0.627  1.00  0.00     0.468 C 
ENDBRANCH   5   6
ENDBRANCH   1   5
TORSDOF 3
ENDMDL
