@<TRIPOS>MOLECULE
/home/cewinharhar/GITHUB/reincatalyze/data/processed/docking_pred/2023-May-31-1727_sub9_nm5_bs15_s42_ex16_mel10_mts10000_k50_ec075_g099_lra3e-4_lrc3e-3/cdc825ac9d1cfd0e1f917a20457d8153cb4f8d56_ligand_9.pdbqt
 14 15 0 0 0
SMALL
GASTEIGER

@<TRIPOS>ATOM
      1  C          5.8710    1.4900   -0.2120 C.3     1  UNL1        0.0800
      2  C          5.2130    1.4040    1.1040 C.2     1  UNL1        0.1300
      3  C          5.7400    0.3160    2.0250 C.3     1  UNL1        0.0870
      4  O          4.3220    2.0850    1.5270 O.2     1  UNL1       -0.3000
      5  C          7.2890    1.0740   -0.2600 C.3     1  UNL1        0.0430
      6  C          7.5840   -0.2320   -0.8550 C.2     1  UNL1       -0.0440
      7  C          7.5880   -0.4360   -2.2360 C.2     1  UNL1        0.0080
      8  C          7.8980   -1.3010   -0.0490 C.2     1  UNL1        0.0540
      9  C          7.9000   -1.6780   -2.7250 C.2     1  UNL1        0.0510
     10  C          8.2140   -2.5620   -0.5770 C.2     1  UNL1        0.1660
     11  C          8.2170   -2.7640   -1.9400 C.2     1  UNL1        0.1650
     12  O          8.5600   -3.7890   -0.0230 O.2     1  UNL1       -0.4540
     13  O          8.5620   -4.0970   -2.1970 O.2     1  UNL1       -0.4540
     14  C          9.2180   -4.5450   -1.0290 C.3     1  UNL1        0.4680
@<TRIPOS>BOND
     1     9     7    1
     2     9    11    2
     3     7     6    2
     4    13    11    1
     5    13    14    1
     6    11    10    1
     7    14    12    1
     8     6     5    1
     9     6     8    1
    10    10     8    2
    11    10    12    1
    12     5     1    1
    13     1     2    1
    14     2     4    2
    15     2     3    1
