@<TRIPOS>MOLECULE
/home/cewinharhar/GITHUB/reincatalyze/data/processed/docking_pred/2023-May-31-1727_sub9_nm5_bs15_s42_ex16_mel10_mts10000_k50_ec075_g099_lra3e-4_lrc3e-3/cf36f354a35629e8f67fe5763b2daf9f978d0e2b_ligand_9.pdbqt
 14 15 0 0 0
SMALL
GASTEIGER

@<TRIPOS>ATOM
      1  C          6.6500    1.4400    1.1590 C.3     1  UNL1        0.0800
      2  C          5.2630    1.8250    0.8400 C.2     1  UNL1        0.1300
      3  C          4.9970    2.1500   -0.6200 C.3     1  UNL1        0.0870
      4  O          4.3320    1.9090    1.5910 O.2     1  UNL1       -0.3000
      5  C          7.6100    1.4780    0.0360 C.3     1  UNL1        0.0430
      6  C          7.7970    0.2410   -0.7280 C.2     1  UNL1       -0.0440
      7  C          7.8370    0.2270   -2.1230 C.2     1  UNL1        0.0080
      8  C          7.9690   -0.9550   -0.0710 C.2     1  UNL1        0.0540
      9  C          8.0420   -0.9620   -2.7720 C.2     1  UNL1        0.0510
     10  C          8.1790   -2.1590   -0.7600 C.2     1  UNL1        0.1660
     11  C          8.2170   -2.1720   -2.1370 C.2     1  UNL1        0.1650
     12  O          8.3770   -3.4780   -0.3740 O.2     1  UNL1       -0.4540
     13  O          8.4370   -3.4870   -2.5690 O.2     1  UNL1       -0.4540
     14  C          8.9970   -4.1550   -1.4580 C.3     1  UNL1        0.4680
@<TRIPOS>BOND
     1     9    11    2
     2     9     7    1
     3    13    11    1
     4    13    14    1
     5    11    10    1
     6     7     6    2
     7    14    12    1
     8    10    12    1
     9    10     8    2
    10     6     8    1
    11     6     5    1
    12     3     2    1
    13     5     1    1
    14     2     1    1
    15     2     4    2
