@<TRIPOS>MOLECULE
/home/cewinharhar/GITHUB/reincatalyze/data/processed/docking_pred/2023-May-31-1727_sub9_nm5_bs15_s42_ex16_mel10_mts10000_k50_ec075_g099_lra3e-4_lrc3e-3/cf36f354a35629e8f67fe5763b2daf9f978d0e2b_ligand_9.pdbqt
 14 15 0 0 0
SMALL
GASTEIGER

@<TRIPOS>ATOM
      1  C          5.3990    1.6770    0.1520 C.3     1  UNL1        0.0800
      2  C          4.7420    1.2710    1.4080 C.2     1  UNL1        0.1300
      3  C          5.3570    0.0690    2.1040 C.3     1  UNL1        0.0870
      4  O          3.7900    1.7730    1.9360 O.2     1  UNL1       -0.3000
      5  C          6.8370    1.3560    0.0370 C.3     1  UNL1        0.0430
      6  C          7.1970    0.1530   -0.7180 C.2     1  UNL1       -0.0440
      7  C          7.1460    0.1050   -2.1120 C.2     1  UNL1        0.0080
      8  C          7.6280   -0.9720   -0.0550 C.2     1  UNL1        0.0540
      9  C          7.5220   -1.0460   -2.7540 C.2     1  UNL1        0.0510
     10  C          8.0080   -2.1380   -0.7370 C.2     1  UNL1        0.1660
     11  C          7.9570   -2.1840   -2.1130 C.2     1  UNL1        0.1650
     12  O          8.4710   -3.3880   -0.3440 O.2     1  UNL1       -0.4540
     13  O          8.3860   -3.4490   -2.5370 O.2     1  UNL1       -0.4540
     14  C          9.1310   -3.9720   -1.4570 C.3     1  UNL1        0.4680
@<TRIPOS>BOND
     1     9    11    2
     2     9     7    1
     3    13    11    1
     4    13    14    1
     5    11    10    1
     6     7     6    2
     7    14    12    1
     8    10    12    1
     9    10     8    2
    10     6     8    1
    11     6     5    1
    12     5     1    1
    13     1     2    1
    14     2     4    2
    15     2     3    1
