MODEL 1
REMARK VINA RESULT:      -7.7      0.000      0.000
REMARK SMILES CC(=O)CCc1ccc2c(c1)OCO2
REMARK SMILES IDX 4 1 2 2 1 3 3 4 5 5 6 6 7 7 11 8 8 9 10 10 9 11 12 12 14 13
REMARK SMILES IDX 13 14
REMARK H PARENT
REMARK Flexibility Score: inf
ROOT
ATOM      1  C   UNL     1       5.581   1.906   1.214  1.00  0.00     0.080 C 
ENDROOT
BRANCH   1   2
ATOM      2  C   UNL     1       5.093   0.761   2.004  1.00  0.00     0.130 C 
ATOM      3  C   UNL     1       6.085  -0.375   2.182  1.00  0.00     0.087 C 
ATOM      4  O   UNL     1       4.018   0.625   2.515  1.00  0.00    -0.300 OA
ENDBRANCH   1   2
BRANCH   1   5
ATOM      5  C   UNL     1       5.558   1.742  -0.254  1.00  0.00     0.043 C 
BRANCH   5   6
ATOM      6  C   UNL     1       6.660   0.993  -0.863  1.00  0.00    -0.044 A 
ATOM      7  C   UNL     1       7.996   1.356  -0.682  1.00  0.00     0.008 A 
ATOM      8  C   UNL     1       6.398  -0.126  -1.620  1.00  0.00     0.054 A 
ATOM      9  C   UNL     1       8.978   0.593  -1.258  1.00  0.00     0.051 A 
ATOM     10  C   UNL     1       7.423  -0.889  -2.198  1.00  0.00     0.166 A 
ATOM     11  C   UNL     1       8.741  -0.530  -2.020  1.00  0.00     0.165 A 
ATOM     12  O   UNL     1       7.456  -2.032  -2.987  1.00  0.00    -0.454 OA
ATOM     13  O   UNL     1       9.553  -1.450  -2.696  1.00  0.00    -0.454 OA
ATOM     14  C   UNL     1       8.752  -2.601  -2.866  1.00  0.00     0.468 C 
ENDBRANCH   5   6
ENDBRANCH   1   5
TORSDOF 3
ENDMDL
MODEL 2
REMARK VINA RESULT:      -7.0      1.089      1.179
REMARK SMILES CC(=O)CCc1ccc2c(c1)OCO2
REMARK SMILES IDX 4 1 2 2 1 3 3 4 5 5 6 6 7 7 11 8 8 9 10 10 9 11 12 12 14 13
REMARK SMILES IDX 13 14
REMARK H PARENT
REMARK Flexibility Score: inf
ROOT
ATOM      1  C   UNL     1       6.204   1.204   0.887  1.00  0.00     0.080 C 
ENDROOT
BRANCH   1   2
ATOM      2  C   UNL     1       5.539   0.383   1.916  1.00  0.00     0.130 C 
ATOM      3  C   UNL     1       6.329  -0.821   2.398  1.00  0.00     0.087 C 
ATOM      4  O   UNL     1       4.461   0.556   2.410  1.00  0.00    -0.300 OA
ENDBRANCH   1   2
BRANCH   1   5
ATOM      5  C   UNL     1       5.868   0.886  -0.516  1.00  0.00     0.043 C 
BRANCH   5   6
ATOM      6  C   UNL     1       6.851   0.117  -1.284  1.00  0.00    -0.044 A 
ATOM      7  C   UNL     1       7.802   0.730  -2.101  1.00  0.00     0.008 A 
ATOM      8  C   UNL     1       6.876  -1.255  -1.191  1.00  0.00     0.054 A 
ATOM      9  C   UNL     1       8.710  -0.050  -2.769  1.00  0.00     0.051 A 
ATOM     10  C   UNL     1       7.817  -2.030  -1.887  1.00  0.00     0.166 A 
ATOM     11  C   UNL     1       8.755  -1.425  -2.694  1.00  0.00     0.165 A 
ATOM     12  O   UNL     1       8.073  -3.392  -1.982  1.00  0.00    -0.454 OA
ATOM     13  O   UNL     1       9.564  -2.415  -3.265  1.00  0.00    -0.454 OA
ATOM     14  C   UNL     1       9.411  -3.547  -2.434  1.00  0.00     0.468 C 
ENDBRANCH   5   6
ENDBRANCH   1   5
TORSDOF 3
ENDMDL
MODEL 3
REMARK VINA RESULT:      -6.8      1.174      1.669
REMARK SMILES CC(=O)CCc1ccc2c(c1)OCO2
REMARK SMILES IDX 4 1 2 2 1 3 3 4 5 5 6 6 7 7 11 8 8 9 10 10 9 11 12 12 14 13
REMARK SMILES IDX 13 14
REMARK H PARENT
REMARK Flexibility Score: inf
ROOT
ATOM      1  C   UNL     1       5.360  -0.071   1.998  1.00  0.00     0.080 C 
ENDROOT
BRANCH   1   2
ATOM      2  C   UNL     1       4.424   1.060   1.866  1.00  0.00     0.130 C 
ATOM      3  C   UNL     1       4.773   2.070   0.786  1.00  0.00     0.087 C 
ATOM      4  O   UNL     1       3.432   1.272   2.503  1.00  0.00    -0.300 OA
ENDBRANCH   1   2
BRANCH   1   5
ATOM      5  C   UNL     1       6.786   0.231   1.753  1.00  0.00     0.043 C 
BRANCH   5   6
ATOM      6  C   UNL     1       7.319  -0.086   0.425  1.00  0.00    -0.044 A 
ATOM      7  C   UNL     1       7.732   0.906  -0.467  1.00  0.00     0.008 A 
ATOM      8  C   UNL     1       7.454  -1.397   0.032  1.00  0.00     0.054 A 
ATOM      9  C   UNL     1       8.247   0.536  -1.683  1.00  0.00     0.051 A 
ATOM     10  C   UNL     1       7.985  -1.747  -1.219  1.00  0.00     0.166 A 
ATOM     11  C   UNL     1       8.391  -0.769  -2.099  1.00  0.00     0.165 A 
ATOM     12  O   UNL     1       8.232  -2.951  -1.867  1.00  0.00    -0.454 OA
ATOM     13  O   UNL     1       8.877  -1.383  -3.261  1.00  0.00    -0.454 OA
ATOM     14  C   UNL     1       9.197  -2.704  -2.879  1.00  0.00     0.468 C 
ENDBRANCH   5   6
ENDBRANCH   1   5
TORSDOF 3
ENDMDL
MODEL 4
REMARK VINA RESULT:      -6.7      1.544      1.889
REMARK SMILES CC(=O)CCc1ccc2c(c1)OCO2
REMARK SMILES IDX 4 1 2 2 1 3 3 4 5 5 6 6 7 7 11 8 8 9 10 10 9 11 12 12 14 13
REMARK SMILES IDX 13 14
REMARK H PARENT
REMARK Flexibility Score: inf
ROOT
ATOM      1  C   UNL     1       5.399   1.677   0.152  1.00  0.00     0.080 C 
ENDROOT
BRANCH   1   2
ATOM      2  C   UNL     1       4.742   1.271   1.408  1.00  0.00     0.130 C 
ATOM      3  C   UNL     1       5.357   0.069   2.104  1.00  0.00     0.087 C 
ATOM      4  O   UNL     1       3.790   1.773   1.936  1.00  0.00    -0.300 OA
ENDBRANCH   1   2
BRANCH   1   5
ATOM      5  C   UNL     1       6.837   1.356   0.037  1.00  0.00     0.043 C 
BRANCH   5   6
ATOM      6  C   UNL     1       7.197   0.153  -0.718  1.00  0.00    -0.044 A 
ATOM      7  C   UNL     1       7.146   0.105  -2.112  1.00  0.00     0.008 A 
ATOM      8  C   UNL     1       7.628  -0.972  -0.055  1.00  0.00     0.054 A 
ATOM      9  C   UNL     1       7.522  -1.046  -2.754  1.00  0.00     0.051 A 
ATOM     10  C   UNL     1       8.008  -2.138  -0.737  1.00  0.00     0.166 A 
ATOM     11  C   UNL     1       7.957  -2.184  -2.113  1.00  0.00     0.165 A 
ATOM     12  O   UNL     1       8.471  -3.388  -0.344  1.00  0.00    -0.454 OA
ATOM     13  O   UNL     1       8.386  -3.449  -2.537  1.00  0.00    -0.454 OA
ATOM     14  C   UNL     1       9.131  -3.972  -1.457  1.00  0.00     0.468 C 
ENDBRANCH   5   6
ENDBRANCH   1   5
TORSDOF 3
ENDMDL
MODEL 5
REMARK VINA RESULT:      -6.6      1.608      2.229
REMARK SMILES CC(=O)CCc1ccc2c(c1)OCO2
REMARK SMILES IDX 4 1 2 2 1 3 3 4 5 5 6 6 7 7 11 8 8 9 10 10 9 11 12 12 14 13
REMARK SMILES IDX 13 14
REMARK H PARENT
REMARK Flexibility Score: inf
ROOT
ATOM      1  C   UNL     1       6.650   1.440   1.159  1.00  0.00     0.080 C 
ENDROOT
BRANCH   1   2
ATOM      2  C   UNL     1       5.263   1.825   0.840  1.00  0.00     0.130 C 
ATOM      3  C   UNL     1       4.997   2.150  -0.620  1.00  0.00     0.087 C 
ATOM      4  O   UNL     1       4.332   1.909   1.591  1.00  0.00    -0.300 OA
ENDBRANCH   1   2
BRANCH   1   5
ATOM      5  C   UNL     1       7.610   1.478   0.036  1.00  0.00     0.043 C 
BRANCH   5   6
ATOM      6  C   UNL     1       7.797   0.241  -0.728  1.00  0.00    -0.044 A 
ATOM      7  C   UNL     1       7.837   0.227  -2.123  1.00  0.00     0.008 A 
ATOM      8  C   UNL     1       7.969  -0.955  -0.071  1.00  0.00     0.054 A 
ATOM      9  C   UNL     1       8.042  -0.962  -2.772  1.00  0.00     0.051 A 
ATOM     10  C   UNL     1       8.179  -2.159  -0.760  1.00  0.00     0.166 A 
ATOM     11  C   UNL     1       8.217  -2.172  -2.137  1.00  0.00     0.165 A 
ATOM     12  O   UNL     1       8.377  -3.478  -0.374  1.00  0.00    -0.454 OA
ATOM     13  O   UNL     1       8.437  -3.487  -2.569  1.00  0.00    -0.454 OA
ATOM     14  C   UNL     1       8.997  -4.155  -1.458  1.00  0.00     0.468 C 
ENDBRANCH   5   6
ENDBRANCH   1   5
TORSDOF 3
ENDMDL
