MODEL 1
REMARK VINA RESULT:      -7.6      0.000      0.000
REMARK SMILES CC(=O)CCc1ccc2c(c1)OCO2
REMARK SMILES IDX 4 1 2 2 1 3 3 4 5 5 6 6 7 7 11 8 8 9 10 10 9 11 12 12 14 13
REMARK SMILES IDX 13 14
REMARK H PARENT
REMARK Flexibility Score: inf
ROOT
ATOM      1  C   UNL     1       5.561   1.887   1.244  1.00  0.00     0.080 C 
ENDROOT
BRANCH   1   2
ATOM      2  C   UNL     1       4.994   0.755   1.997  1.00  0.00     0.130 C 
ATOM      3  C   UNL     1       5.909  -0.448   2.150  1.00  0.00     0.087 C 
ATOM      4  O   UNL     1       3.908   0.674   2.498  1.00  0.00    -0.300 OA
ENDBRANCH   1   2
BRANCH   1   5
ATOM      5  C   UNL     1       5.553   1.759  -0.229  1.00  0.00     0.043 C 
BRANCH   5   6
ATOM      6  C   UNL     1       6.647   1.001  -0.842  1.00  0.00    -0.044 A 
ATOM      7  C   UNL     1       7.984   1.372  -0.693  1.00  0.00     0.008 A 
ATOM      8  C   UNL     1       6.375  -0.135  -1.569  1.00  0.00     0.054 A 
ATOM      9  C   UNL     1       8.958   0.600  -1.272  1.00  0.00     0.051 A 
ATOM     10  C   UNL     1       7.392  -0.906  -2.151  1.00  0.00     0.166 A 
ATOM     11  C   UNL     1       8.712  -0.539  -2.005  1.00  0.00     0.165 A 
ATOM     12  O   UNL     1       7.415  -2.066  -2.916  1.00  0.00    -0.454 OA
ATOM     13  O   UNL     1       9.515  -1.471  -2.676  1.00  0.00    -0.454 OA
ATOM     14  C   UNL     1       8.715  -2.628  -2.807  1.00  0.00     0.468 C 
ENDBRANCH   5   6
ENDBRANCH   1   5
TORSDOF 3
ENDMDL
MODEL 2
REMARK VINA RESULT:      -7.0      1.774      2.221
REMARK SMILES CC(=O)CCc1ccc2c(c1)OCO2
REMARK SMILES IDX 4 1 2 2 1 3 3 4 5 5 6 6 7 7 11 8 8 9 10 10 9 11 12 12 14 13
REMARK SMILES IDX 13 14
REMARK H PARENT
REMARK Flexibility Score: inf
ROOT
ATOM      1  C   UNL     1       5.898   1.615  -0.221  1.00  0.00     0.080 C 
ENDROOT
BRANCH   1   2
ATOM      2  C   UNL     1       5.113   1.444   1.015  1.00  0.00     0.130 C 
ATOM      3  C   UNL     1       5.570   0.315   1.924  1.00  0.00     0.087 C 
ATOM      4  O   UNL     1       4.169   2.084   1.381  1.00  0.00    -0.300 OA
ENDBRANCH   1   2
BRANCH   1   5
ATOM      5  C   UNL     1       7.297   1.141  -0.174  1.00  0.00     0.043 C 
BRANCH   5   6
ATOM      6  C   UNL     1       7.588  -0.151  -0.802  1.00  0.00    -0.044 A 
ATOM      7  C   UNL     1       7.606  -0.318  -2.188  1.00  0.00     0.008 A 
ATOM      8  C   UNL     1       7.884  -1.245  -0.022  1.00  0.00     0.054 A 
ATOM      9  C   UNL     1       7.913  -1.549  -2.708  1.00  0.00     0.051 A 
ATOM     10  C   UNL     1       8.195  -2.494  -0.581  1.00  0.00     0.166 A 
ATOM     11  C   UNL     1       8.212  -2.658  -1.948  1.00  0.00     0.165 A 
ATOM     12  O   UNL     1       8.525  -3.738  -0.057  1.00  0.00    -0.454 OA
ATOM     13  O   UNL     1       8.549  -3.987  -2.238  1.00  0.00    -0.454 OA
ATOM     14  C   UNL     1       9.188  -4.472  -1.076  1.00  0.00     0.468 C 
ENDBRANCH   5   6
ENDBRANCH   1   5
TORSDOF 3
ENDMDL
MODEL 3
REMARK VINA RESULT:      -6.9      1.028      1.106
REMARK SMILES CC(=O)CCc1ccc2c(c1)OCO2
REMARK SMILES IDX 4 1 2 2 1 3 3 4 5 5 6 6 7 7 11 8 8 9 10 10 9 11 12 12 14 13
REMARK SMILES IDX 13 14
REMARK H PARENT
REMARK Flexibility Score: inf
ROOT
ATOM      1  C   UNL     1       6.173   1.217   0.929  1.00  0.00     0.080 C 
ENDROOT
BRANCH   1   2
ATOM      2  C   UNL     1       5.503   0.383   1.943  1.00  0.00     0.130 C 
ATOM      3  C   UNL     1       6.282  -0.839   2.398  1.00  0.00     0.087 C 
ATOM      4  O   UNL     1       4.428   0.556   2.444  1.00  0.00    -0.300 OA
ENDBRANCH   1   2
BRANCH   1   5
ATOM      5  C   UNL     1       5.859   0.906  -0.481  1.00  0.00     0.043 C 
BRANCH   5   6
ATOM      6  C   UNL     1       6.860   0.150  -1.240  1.00  0.00    -0.044 A 
ATOM      7  C   UNL     1       7.872   0.778  -1.967  1.00  0.00     0.008 A 
ATOM      8  C   UNL     1       6.838  -1.225  -1.228  1.00  0.00     0.054 A 
ATOM      9  C   UNL     1       8.792   0.008  -2.631  1.00  0.00     0.051 A 
ATOM     10  C   UNL     1       7.793  -1.989  -1.917  1.00  0.00     0.166 A 
ATOM     11  C   UNL     1       8.791  -1.370  -2.635  1.00  0.00     0.165 A 
ATOM     12  O   UNL     1       8.013  -3.352  -2.079  1.00  0.00    -0.454 OA
ATOM     13  O   UNL     1       9.601  -2.352  -3.220  1.00  0.00    -0.454 OA
ATOM     14  C   UNL     1       9.369  -3.524  -2.467  1.00  0.00     0.468 C 
ENDBRANCH   5   6
ENDBRANCH   1   5
TORSDOF 3
ENDMDL
MODEL 4
REMARK VINA RESULT:      -6.7      1.089      1.592
REMARK SMILES CC(=O)CCc1ccc2c(c1)OCO2
REMARK SMILES IDX 4 1 2 2 1 3 3 4 5 5 6 6 7 7 11 8 8 9 10 10 9 11 12 12 14 13
REMARK SMILES IDX 13 14
REMARK H PARENT
REMARK Flexibility Score: inf
ROOT
ATOM      1  C   UNL     1       5.347  -0.034   1.999  1.00  0.00     0.080 C 
ENDROOT
BRANCH   1   2
ATOM      2  C   UNL     1       4.400   1.090   1.882  1.00  0.00     0.130 C 
ATOM      3  C   UNL     1       4.743   2.121   0.821  1.00  0.00     0.087 C 
ATOM      4  O   UNL     1       3.404   1.282   2.520  1.00  0.00    -0.300 OA
ENDBRANCH   1   2
BRANCH   1   5
ATOM      5  C   UNL     1       6.772   0.290   1.777  1.00  0.00     0.043 C 
BRANCH   5   6
ATOM      6  C   UNL     1       7.328  -0.006   0.453  1.00  0.00    -0.044 A 
ATOM      7  C   UNL     1       7.902   0.981  -0.350  1.00  0.00     0.008 A 
ATOM      8  C   UNL     1       7.321  -1.296  -0.024  1.00  0.00     0.054 A 
ATOM      9  C   UNL     1       8.428   0.628  -1.566  1.00  0.00     0.051 A 
ATOM     10  C   UNL     1       7.866  -1.629  -1.273  1.00  0.00     0.166 A 
ATOM     11  C   UNL     1       8.432  -0.655  -2.066  1.00  0.00     0.165 A 
ATOM     12  O   UNL     1       7.996  -2.811  -1.993  1.00  0.00    -0.454 OA
ATOM     13  O   UNL     1       8.896  -1.249  -3.247  1.00  0.00    -0.454 OA
ATOM     14  C   UNL     1       9.032  -2.622  -2.945  1.00  0.00     0.468 C 
ENDBRANCH   5   6
ENDBRANCH   1   5
TORSDOF 3
ENDMDL
MODEL 5
REMARK VINA RESULT:      -6.7      1.999      2.523
REMARK SMILES CC(=O)CCc1ccc2c(c1)OCO2
REMARK SMILES IDX 4 1 2 2 1 3 3 4 5 5 6 6 7 7 11 8 8 9 10 10 9 11 12 12 14 13
REMARK SMILES IDX 13 14
REMARK H PARENT
REMARK Flexibility Score: inf
ROOT
ATOM      1  C   UNL     1       5.744   0.341   1.609  1.00  0.00     0.080 C 
ENDROOT
BRANCH   1   2
ATOM      2  C   UNL     1       4.828   1.441   1.257  1.00  0.00     0.130 C 
ATOM      3  C   UNL     1       5.134   2.149  -0.052  1.00  0.00     0.087 C 
ATOM      4  O   UNL     1       3.880   1.835   1.876  1.00  0.00    -0.300 OA
ENDBRANCH   1   2
BRANCH   1   5
ATOM      5  C   UNL     1       7.097   0.406   1.016  1.00  0.00     0.043 C 
BRANCH   5   6
ATOM      6  C   UNL     1       7.471  -0.660   0.082  1.00  0.00    -0.044 A 
ATOM      7  C   UNL     1       7.474  -0.470  -1.301  1.00  0.00     0.008 A 
ATOM      8  C   UNL     1       7.861  -1.889   0.560  1.00  0.00     0.054 A 
ATOM      9  C   UNL     1       7.861  -1.503  -2.115  1.00  0.00     0.051 A 
ATOM     10  C   UNL     1       8.254  -2.929  -0.296  1.00  0.00     0.166 A 
ATOM     11  C   UNL     1       8.256  -2.742  -1.661  1.00  0.00     0.165 A 
ATOM     12  O   UNL     1       8.684  -4.236  -0.103  1.00  0.00    -0.454 OA
ATOM     13  O   UNL     1       8.685  -3.924  -2.277  1.00  0.00    -0.454 OA
ATOM     14  C   UNL     1       9.381  -4.636  -1.275  1.00  0.00     0.468 C 
ENDBRANCH   5   6
ENDBRANCH   1   5
TORSDOF 3
ENDMDL
