@<TRIPOS>MOLECULE
/home/cewinharhar/GITHUB/reincatalyze/data/processed/docking_pred/2023-May-31-1727_sub9_nm5_bs15_s42_ex16_mel10_mts10000_k50_ec075_g099_lra3e-4_lrc3e-3/d0b377ce7413ba2d0a06352180e6db5bf746794c_ligand_9.pdbqt
 14 15 0 0 0
SMALL
GASTEIGER

@<TRIPOS>ATOM
      1  C          5.5610    1.8870    1.2440 C.3     1  UNL1        0.0800
      2  C          4.9940    0.7550    1.9970 C.2     1  UNL1        0.1300
      3  C          5.9090   -0.4480    2.1500 C.3     1  UNL1        0.0870
      4  O          3.9080    0.6740    2.4980 O.2     1  UNL1       -0.3000
      5  C          5.5530    1.7590   -0.2290 C.3     1  UNL1        0.0430
      6  C          6.6470    1.0010   -0.8420 C.2     1  UNL1       -0.0440
      7  C          7.9840    1.3720   -0.6930 C.2     1  UNL1        0.0080
      8  C          6.3750   -0.1350   -1.5690 C.2     1  UNL1        0.0540
      9  C          8.9580    0.6000   -1.2720 C.2     1  UNL1        0.0510
     10  C          7.3920   -0.9060   -2.1510 C.2     1  UNL1        0.1660
     11  C          8.7120   -0.5390   -2.0050 C.2     1  UNL1        0.1650
     12  O          7.4150   -2.0660   -2.9160 O.2     1  UNL1       -0.4540
     13  O          9.5150   -1.4710   -2.6760 O.2     1  UNL1       -0.4540
     14  C          8.7150   -2.6280   -2.8070 C.3     1  UNL1        0.4680
@<TRIPOS>BOND
     1    12    14    1
     2    12    10    1
     3    14    13    1
     4    13    11    1
     5    10    11    2
     6    10     8    1
     7    11     9    1
     8     8     6    2
     9     9     7    2
    10     6     7    1
    11     6     5    1
    12     5     1    1
    13     1     2    1
    14     2     3    1
    15     2     4    2
