@<TRIPOS>MOLECULE
/home/cewinharhar/GITHUB/reincatalyze/data/processed/docking_pred/2023-May-31-1727_sub9_nm5_bs15_s42_ex16_mel10_mts10000_k50_ec075_g099_lra3e-4_lrc3e-3/d0b377ce7413ba2d0a06352180e6db5bf746794c_ligand_9.pdbqt
 14 15 0 0 0
SMALL
GASTEIGER

@<TRIPOS>ATOM
      1  C          5.8980    1.6150   -0.2210 C.3     1  UNL1        0.0800
      2  C          5.1130    1.4440    1.0150 C.2     1  UNL1        0.1300
      3  C          5.5700    0.3150    1.9240 C.3     1  UNL1        0.0870
      4  O          4.1690    2.0840    1.3810 O.2     1  UNL1       -0.3000
      5  C          7.2970    1.1410   -0.1740 C.3     1  UNL1        0.0430
      6  C          7.5880   -0.1510   -0.8020 C.2     1  UNL1       -0.0440
      7  C          7.6060   -0.3180   -2.1880 C.2     1  UNL1        0.0080
      8  C          7.8840   -1.2450   -0.0220 C.2     1  UNL1        0.0540
      9  C          7.9130   -1.5490   -2.7080 C.2     1  UNL1        0.0510
     10  C          8.1950   -2.4940   -0.5810 C.2     1  UNL1        0.1660
     11  C          8.2120   -2.6580   -1.9480 C.2     1  UNL1        0.1650
     12  O          8.5250   -3.7380   -0.0570 O.2     1  UNL1       -0.4540
     13  O          8.5490   -3.9870   -2.2380 O.2     1  UNL1       -0.4540
     14  C          9.1880   -4.4720   -1.0760 C.3     1  UNL1        0.4680
@<TRIPOS>BOND
     1     9     7    1
     2     9    11    2
     3    13    11    1
     4    13    14    1
     5     7     6    2
     6    11    10    1
     7    14    12    1
     8     6     5    1
     9     6     8    1
    10    10    12    1
    11    10     8    2
    12     1     5    1
    13     1     2    1
    14     2     4    2
    15     2     3    1
