@<TRIPOS>MOLECULE
/home/cewinharhar/GITHUB/reincatalyze/data/processed/docking_pred/2023-May-31-1727_sub9_nm5_bs15_s42_ex16_mel10_mts10000_k50_ec075_g099_lra3e-4_lrc3e-3/d18fc177cce43baae8a65556dd45e7572e61ad5e_ligand_9.pdbqt
 14 15 0 0 0
SMALL
GASTEIGER

@<TRIPOS>ATOM
      1  C          6.2210    1.2440    0.8860 C.3     1  UNL1        0.0800
      2  C          5.5440    0.4380    1.9190 C.2     1  UNL1        0.1300
      3  C          6.3220   -0.7690    2.4150 C.3     1  UNL1        0.0870
      4  O          4.4660    0.6240    2.4070 O.2     1  UNL1       -0.3000
      5  C          5.8770    0.9260   -0.5160 C.3     1  UNL1        0.0430
      6  C          6.8530    0.1490   -1.2850 C.2     1  UNL1       -0.0440
      7  C          7.8020    0.7550   -2.1110 C.2     1  UNL1        0.0080
      8  C          6.8740   -1.2220   -1.1870 C.2     1  UNL1        0.0540
      9  C          8.7020   -0.0310   -2.7810 C.2     1  UNL1        0.0510
     10  C          7.8080   -2.0040   -1.8840 C.2     1  UNL1        0.1660
     11  C          8.7430   -1.4060   -2.6990 C.2     1  UNL1        0.1650
     12  O          8.0590   -3.3680   -1.9740 O.2     1  UNL1       -0.4540
     13  O          9.5450   -2.4020   -3.2700 O.2     1  UNL1       -0.4540
     14  C          9.3930   -3.5290   -2.4330 C.3     1  UNL1        0.4680
@<TRIPOS>BOND
     1    13    11    1
     2    13    14    1
     3     9    11    2
     4     9     7    1
     5    11    10    1
     6    14    12    1
     7     7     6    2
     8    12    10    1
     9    10     8    2
    10     6     8    1
    11     6     5    1
    12     5     1    1
    13     1     2    1
    14     2     4    2
    15     2     3    1
