@<TRIPOS>MOLECULE
/home/cewinharhar/GITHUB/reincatalyze/data/processed/docking_pred/2023-May-31-1727_sub9_nm5_bs15_s42_ex16_mel10_mts10000_k50_ec075_g099_lra3e-4_lrc3e-3/d18fc177cce43baae8a65556dd45e7572e61ad5e_ligand_9.pdbqt
 14 15 0 0 0
SMALL
GASTEIGER

@<TRIPOS>ATOM
      1  C          6.8320    1.2530    1.3110 C.3     1  UNL1        0.0800
      2  C          5.3630    1.2760    1.4390 C.2     1  UNL1        0.1300
      3  C          4.6360    2.1480    0.4300 C.3     1  UNL1        0.0870
      4  O          4.6860    0.6930    2.2370 O.2     1  UNL1       -0.3000
      5  C          7.3650    1.2870   -0.0670 C.3     1  UNL1        0.0430
      6  C          7.6500   -0.0010   -0.7070 C.2     1  UNL1       -0.0440
      7  C          7.7520   -0.1360   -2.0930 C.2     1  UNL1        0.0080
      8  C          7.8560   -1.1220    0.0620 C.2     1  UNL1        0.0540
      9  C          8.0480   -1.3660   -2.6220 C.2     1  UNL1        0.0510
     10  C          8.1580   -2.3690   -0.5060 C.2     1  UNL1        0.1660
     11  C          8.2570   -2.5030   -1.8740 C.2     1  UNL1        0.1650
     12  O          8.4090   -3.6350    0.0070 O.2     1  UNL1       -0.4540
     13  O          8.5640   -3.8360   -2.1740 O.2     1  UNL1       -0.4540
     14  C          9.1100   -4.3700   -0.9860 C.3     1  UNL1        0.4680
@<TRIPOS>BOND
     1     9     7    1
     2     9    11    2
     3    13    11    1
     4    13    14    1
     5     7     6    2
     6    11    10    1
     7    14    12    1
     8     6     5    1
     9     6     8    1
    10    10    12    1
    11    10     8    2
    12     5     1    1
    13     3     2    1
    14     1     2    1
    15     2     4    2
