MODEL 1
REMARK VINA RESULT:      -7.6      0.000      0.000
REMARK SMILES CC(=O)CCc1ccc2c(c1)OCO2
REMARK SMILES IDX 4 1 2 2 1 3 3 4 5 5 6 6 7 7 11 8 8 9 10 10 9 11 12 12 14 13
REMARK SMILES IDX 13 14
REMARK H PARENT
REMARK Flexibility Score: inf
ROOT
ATOM      1  C   UNL     1       5.569   1.897   1.219  1.00  0.00     0.080 C 
ENDROOT
BRANCH   1   2
ATOM      2  C   UNL     1       5.070   0.752   2.002  1.00  0.00     0.130 C 
ATOM      3  C   UNL     1       6.049  -0.397   2.170  1.00  0.00     0.087 C 
ATOM      4  O   UNL     1       3.994   0.625   2.514  1.00  0.00    -0.300 OA
ENDBRANCH   1   2
BRANCH   1   5
ATOM      5  C   UNL     1       5.550   1.740  -0.250  1.00  0.00     0.043 C 
BRANCH   5   6
ATOM      6  C   UNL     1       6.653   0.990  -0.858  1.00  0.00    -0.044 A 
ATOM      7  C   UNL     1       7.989   1.347  -0.671  1.00  0.00     0.008 A 
ATOM      8  C   UNL     1       6.389  -0.125  -1.621  1.00  0.00     0.054 A 
ATOM      9  C   UNL     1       8.970   0.583  -1.247  1.00  0.00     0.051 A 
ATOM     10  C   UNL     1       7.414  -0.889  -2.199  1.00  0.00     0.166 A 
ATOM     11  C   UNL     1       8.732  -0.535  -2.015  1.00  0.00     0.165 A 
ATOM     12  O   UNL     1       7.446  -2.029  -2.993  1.00  0.00    -0.454 OA
ATOM     13  O   UNL     1       9.544  -1.455  -2.691  1.00  0.00    -0.454 OA
ATOM     14  C   UNL     1       8.739  -2.602  -2.870  1.00  0.00     0.468 C 
ENDBRANCH   5   6
ENDBRANCH   1   5
TORSDOF 3
ENDMDL
MODEL 2
REMARK VINA RESULT:      -6.9      1.817      2.275
REMARK SMILES CC(=O)CCc1ccc2c(c1)OCO2
REMARK SMILES IDX 4 1 2 2 1 3 3 4 5 5 6 6 7 7 11 8 8 9 10 10 9 11 12 12 14 13
REMARK SMILES IDX 13 14
REMARK H PARENT
REMARK Flexibility Score: inf
ROOT
ATOM      1  C   UNL     1       5.804   1.481  -0.290  1.00  0.00     0.080 C 
ENDROOT
BRANCH   1   2
ATOM      2  C   UNL     1       5.121   1.412   1.015  1.00  0.00     0.130 C 
ATOM      3  C   UNL     1       5.630   0.334   1.958  1.00  0.00     0.087 C 
ATOM      4  O   UNL     1       4.223   2.098   1.413  1.00  0.00    -0.300 OA
ENDBRANCH   1   2
BRANCH   1   5
ATOM      5  C   UNL     1       7.228   1.084  -0.302  1.00  0.00     0.043 C 
BRANCH   5   6
ATOM      6  C   UNL     1       7.555  -0.216  -0.894  1.00  0.00    -0.044 A 
ATOM      7  C   UNL     1       7.643  -0.405  -2.274  1.00  0.00     0.008 A 
ATOM      8  C   UNL     1       7.817  -1.296  -0.082  1.00  0.00     0.054 A 
ATOM      9  C   UNL     1       7.981  -1.642  -2.758  1.00  0.00     0.051 A 
ATOM     10  C   UNL     1       8.162  -2.552  -0.604  1.00  0.00     0.166 A 
ATOM     11  C   UNL     1       8.247  -2.738  -1.967  1.00  0.00     0.165 A 
ATOM     12  O   UNL     1       8.470  -3.785  -0.045  1.00  0.00    -0.454 OA
ATOM     13  O   UNL     1       8.604  -4.069  -2.218  1.00  0.00    -0.454 OA
ATOM     14  C   UNL     1       9.187  -4.532  -1.017  1.00  0.00     0.468 C 
ENDBRANCH   5   6
ENDBRANCH   1   5
TORSDOF 3
ENDMDL
MODEL 3
REMARK VINA RESULT:      -6.9      1.087      1.168
REMARK SMILES CC(=O)CCc1ccc2c(c1)OCO2
REMARK SMILES IDX 4 1 2 2 1 3 3 4 5 5 6 6 7 7 11 8 8 9 10 10 9 11 12 12 14 13
REMARK SMILES IDX 13 14
REMARK H PARENT
REMARK Flexibility Score: inf
ROOT
ATOM      1  C   UNL     1       6.221   1.244   0.886  1.00  0.00     0.080 C 
ENDROOT
BRANCH   1   2
ATOM      2  C   UNL     1       5.544   0.438   1.919  1.00  0.00     0.130 C 
ATOM      3  C   UNL     1       6.322  -0.769   2.415  1.00  0.00     0.087 C 
ATOM      4  O   UNL     1       4.466   0.624   2.407  1.00  0.00    -0.300 OA
ENDBRANCH   1   2
BRANCH   1   5
ATOM      5  C   UNL     1       5.877   0.926  -0.516  1.00  0.00     0.043 C 
BRANCH   5   6
ATOM      6  C   UNL     1       6.853   0.149  -1.285  1.00  0.00    -0.044 A 
ATOM      7  C   UNL     1       7.802   0.755  -2.111  1.00  0.00     0.008 A 
ATOM      8  C   UNL     1       6.874  -1.222  -1.187  1.00  0.00     0.054 A 
ATOM      9  C   UNL     1       8.702  -0.031  -2.781  1.00  0.00     0.051 A 
ATOM     10  C   UNL     1       7.808  -2.004  -1.884  1.00  0.00     0.166 A 
ATOM     11  C   UNL     1       8.743  -1.406  -2.699  1.00  0.00     0.165 A 
ATOM     12  O   UNL     1       8.059  -3.368  -1.974  1.00  0.00    -0.454 OA
ATOM     13  O   UNL     1       9.545  -2.402  -3.270  1.00  0.00    -0.454 OA
ATOM     14  C   UNL     1       9.393  -3.529  -2.433  1.00  0.00     0.468 C 
ENDBRANCH   5   6
ENDBRANCH   1   5
TORSDOF 3
ENDMDL
MODEL 4
REMARK VINA RESULT:      -6.7      1.182      1.661
REMARK SMILES CC(=O)CCc1ccc2c(c1)OCO2
REMARK SMILES IDX 4 1 2 2 1 3 3 4 5 5 6 6 7 7 11 8 8 9 10 10 9 11 12 12 14 13
REMARK SMILES IDX 13 14
REMARK H PARENT
REMARK Flexibility Score: inf
ROOT
ATOM      1  C   UNL     1       5.376  -0.015   1.958  1.00  0.00     0.080 C 
ENDROOT
BRANCH   1   2
ATOM      2  C   UNL     1       4.426   1.107   1.852  1.00  0.00     0.130 C 
ATOM      3  C   UNL     1       4.751   2.136   0.783  1.00  0.00     0.087 C 
ATOM      4  O   UNL     1       3.438   1.297   2.503  1.00  0.00    -0.300 OA
ENDBRANCH   1   2
BRANCH   1   5
ATOM      5  C   UNL     1       6.794   0.306   1.692  1.00  0.00     0.043 C 
BRANCH   5   6
ATOM      6  C   UNL     1       7.327  -0.050   0.374  1.00  0.00    -0.044 A 
ATOM      7  C   UNL     1       7.738   0.915  -0.547  1.00  0.00     0.008 A 
ATOM      8  C   UNL     1       7.462  -1.372   0.020  1.00  0.00     0.054 A 
ATOM      9  C   UNL     1       8.252   0.510  -1.752  1.00  0.00     0.051 A 
ATOM     10  C   UNL     1       7.992  -1.759  -1.220  1.00  0.00     0.166 A 
ATOM     11  C   UNL     1       8.397  -0.807  -2.130  1.00  0.00     0.165 A 
ATOM     12  O   UNL     1       8.240  -2.981  -1.833  1.00  0.00    -0.454 OA
ATOM     13  O   UNL     1       8.882  -1.454  -3.274  1.00  0.00    -0.454 OA
ATOM     14  C   UNL     1       9.204  -2.764  -2.853  1.00  0.00     0.468 C 
ENDBRANCH   5   6
ENDBRANCH   1   5
TORSDOF 3
ENDMDL
MODEL 5
REMARK VINA RESULT:      -6.7      1.801      2.284
REMARK SMILES CC(=O)CCc1ccc2c(c1)OCO2
REMARK SMILES IDX 4 1 2 2 1 3 3 4 5 5 6 6 7 7 11 8 8 9 10 10 9 11 12 12 14 13
REMARK SMILES IDX 13 14
REMARK H PARENT
REMARK Flexibility Score: inf
ROOT
ATOM      1  C   UNL     1       6.832   1.253   1.311  1.00  0.00     0.080 C 
ENDROOT
BRANCH   1   2
ATOM      2  C   UNL     1       5.363   1.276   1.439  1.00  0.00     0.130 C 
ATOM      3  C   UNL     1       4.636   2.148   0.430  1.00  0.00     0.087 C 
ATOM      4  O   UNL     1       4.686   0.693   2.237  1.00  0.00    -0.300 OA
ENDBRANCH   1   2
BRANCH   1   5
ATOM      5  C   UNL     1       7.365   1.287  -0.067  1.00  0.00     0.043 C 
BRANCH   5   6
ATOM      6  C   UNL     1       7.650  -0.001  -0.707  1.00  0.00    -0.044 A 
ATOM      7  C   UNL     1       7.752  -0.136  -2.093  1.00  0.00     0.008 A 
ATOM      8  C   UNL     1       7.856  -1.122   0.062  1.00  0.00     0.054 A 
ATOM      9  C   UNL     1       8.048  -1.366  -2.622  1.00  0.00     0.051 A 
ATOM     10  C   UNL     1       8.158  -2.369  -0.506  1.00  0.00     0.166 A 
ATOM     11  C   UNL     1       8.257  -2.503  -1.874  1.00  0.00     0.165 A 
ATOM     12  O   UNL     1       8.409  -3.635   0.007  1.00  0.00    -0.454 OA
ATOM     13  O   UNL     1       8.564  -3.836  -2.174  1.00  0.00    -0.454 OA
ATOM     14  C   UNL     1       9.110  -4.370  -0.986  1.00  0.00     0.468 C 
ENDBRANCH   5   6
ENDBRANCH   1   5
TORSDOF 3
ENDMDL
