@<TRIPOS>MOLECULE
/home/cewinharhar/GITHUB/reincatalyze/data/processed/docking_pred/2023-May-31-1727_sub9_nm5_bs15_s42_ex16_mel10_mts10000_k50_ec075_g099_lra3e-4_lrc3e-3/d18fc177cce43baae8a65556dd45e7572e61ad5e_ligand_9.pdbqt
 14 15 0 0 0
SMALL
GASTEIGER

@<TRIPOS>ATOM
      1  C          5.3760   -0.0150    1.9580 C.3     1  UNL1        0.0800
      2  C          4.4260    1.1070    1.8520 C.2     1  UNL1        0.1300
      3  C          4.7510    2.1360    0.7830 C.3     1  UNL1        0.0870
      4  O          3.4380    1.2970    2.5030 O.2     1  UNL1       -0.3000
      5  C          6.7940    0.3060    1.6920 C.3     1  UNL1        0.0430
      6  C          7.3270   -0.0500    0.3740 C.2     1  UNL1       -0.0440
      7  C          7.7380    0.9150   -0.5470 C.2     1  UNL1        0.0080
      8  C          7.4620   -1.3720    0.0200 C.2     1  UNL1        0.0540
      9  C          8.2520    0.5100   -1.7520 C.2     1  UNL1        0.0510
     10  C          7.9920   -1.7590   -1.2200 C.2     1  UNL1        0.1660
     11  C          8.3970   -0.8070   -2.1300 C.2     1  UNL1        0.1650
     12  O          8.2400   -2.9810   -1.8330 O.2     1  UNL1       -0.4540
     13  O          8.8820   -1.4540   -3.2740 O.2     1  UNL1       -0.4540
     14  C          9.2040   -2.7640   -2.8530 C.3     1  UNL1        0.4680
@<TRIPOS>BOND
     1    13    14    1
     2    13    11    1
     3    14    12    1
     4    11     9    2
     5    11    10    1
     6    12    10    1
     7     9     7    1
     8    10     8    2
     9     7     6    2
    10     8     6    1
    11     6     5    1
    12     3     2    1
    13     5     1    1
    14     2     1    1
    15     2     4    2
