@<TRIPOS>MOLECULE
/home/cewinharhar/GITHUB/reincatalyze/data/processed/docking_pred/2023-May-31-1727_sub9_nm5_bs15_s42_ex16_mel10_mts10000_k50_ec075_g099_lra3e-4_lrc3e-3/d32515ef85c53a65d829162c3cbbbf13c46f52f9_ligand_9.pdbqt
 14 15 0 0 0
SMALL
GASTEIGER

@<TRIPOS>ATOM
      1  C          5.6170    0.1270    2.1180 C.3     1  UNL1        0.0800
      2  C          4.5670    1.1280    1.8570 C.2     1  UNL1        0.1300
      3  C          4.8550    2.0880    0.7140 C.3     1  UNL1        0.0870
      4  O          3.5270    1.2710    2.4330 O.2     1  UNL1       -0.3000
      5  C          6.9070    0.3400    1.4290 C.3     1  UNL1        0.0430
      6  C          7.2450   -0.5810    0.3400 C.2     1  UNL1       -0.0440
      7  C          7.0470   -0.2510   -1.0020 C.2     1  UNL1        0.0080
      8  C          7.8030   -1.8060    0.6220 C.2     1  UNL1        0.0540
      9  C          7.4120   -1.1500   -1.9700 C.2     1  UNL1        0.0510
     10  C          8.1670   -2.7080   -0.3890 C.2     1  UNL1        0.1660
     11  C          7.9710   -2.3830   -1.7130 C.2     1  UNL1        0.1650
     12  O          8.7330   -3.9770   -0.4020 O.2     1  UNL1       -0.4540
     13  O          8.4160   -3.4460   -2.5090 O.2     1  UNL1       -0.4540
     14  C          9.2990   -4.1820   -1.6880 C.3     1  UNL1        0.4680
@<TRIPOS>BOND
     1    13    11    1
     2    13    14    1
     3     9    11    2
     4     9     7    1
     5    11    10    1
     6    14    12    1
     7     7     6    2
     8    12    10    1
     9    10     8    2
    10     6     8    1
    11     6     5    1
    12     3     2    1
    13     5     1    1
    14     2     1    1
    15     2     4    2
