@<TRIPOS>MOLECULE
/home/cewinharhar/GITHUB/reincatalyze/data/processed/docking_pred/2023-May-31-1727_sub9_nm5_bs15_s42_ex16_mel10_mts10000_k50_ec075_g099_lra3e-4_lrc3e-3/d32515ef85c53a65d829162c3cbbbf13c46f52f9_ligand_9.pdbqt
 14 15 0 0 0
SMALL
GASTEIGER

@<TRIPOS>ATOM
      1  C          5.5840    1.8840    1.2310 C.3     1  UNL1        0.0800
      2  C          5.0590    0.7450    2.0060 C.2     1  UNL1        0.1300
      3  C          6.0170   -0.4220    2.1780 C.3     1  UNL1        0.0870
      4  O          3.9780    0.6350    2.5110 O.2     1  UNL1       -0.3000
      5  C          5.5640    1.7350   -0.2390 C.3     1  UNL1        0.0430
      6  C          6.6640    0.9860   -0.8520 C.2     1  UNL1       -0.0440
      7  C          8.0010    1.3490   -0.6770 C.2     1  UNL1        0.0080
      8  C          6.3980   -0.1340   -1.6060 C.2     1  UNL1        0.0540
      9  C          8.9800    0.5860   -1.2580 C.2     1  UNL1        0.0510
     10  C          7.4210   -0.8970   -2.1890 C.2     1  UNL1        0.1660
     11  C          8.7400   -0.5380   -2.0170 C.2     1  UNL1        0.1650
     12  O          7.4510   -2.0420   -2.9770 O.2     1  UNL1       -0.4540
     13  O          9.5490   -1.4590   -2.6950 O.2     1  UNL1       -0.4540
     14  C          8.7480   -2.6100   -2.8610 C.3     1  UNL1        0.4680
@<TRIPOS>BOND
     1    12    14    1
     2    12    10    1
     3    14    13    1
     4    13    11    1
     5    10    11    2
     6    10     8    1
     7    11     9    1
     8     8     6    2
     9     9     7    2
    10     6     7    1
    11     6     5    1
    12     5     1    1
    13     1     2    1
    14     2     3    1
    15     2     4    2
