MODEL 1
REMARK VINA RESULT:      -7.6      0.000      0.000
REMARK SMILES CC(=O)CCc1ccc2c(c1)OCO2
REMARK SMILES IDX 4 1 2 2 1 3 3 4 5 5 6 6 7 7 11 8 8 9 10 10 9 11 12 12 14 13
REMARK SMILES IDX 13 14
REMARK H PARENT
REMARK Flexibility Score: inf
ROOT
ATOM      1  C   UNL     1       5.584   1.884   1.231  1.00  0.00     0.080 C 
ENDROOT
BRANCH   1   2
ATOM      2  C   UNL     1       5.059   0.745   2.006  1.00  0.00     0.130 C 
ATOM      3  C   UNL     1       6.017  -0.422   2.178  1.00  0.00     0.087 C 
ATOM      4  O   UNL     1       3.978   0.635   2.511  1.00  0.00    -0.300 OA
ENDBRANCH   1   2
BRANCH   1   5
ATOM      5  C   UNL     1       5.564   1.735  -0.239  1.00  0.00     0.043 C 
BRANCH   5   6
ATOM      6  C   UNL     1       6.664   0.986  -0.852  1.00  0.00    -0.044 A 
ATOM      7  C   UNL     1       8.001   1.349  -0.677  1.00  0.00     0.008 A 
ATOM      8  C   UNL     1       6.398  -0.134  -1.606  1.00  0.00     0.054 A 
ATOM      9  C   UNL     1       8.980   0.586  -1.258  1.00  0.00     0.051 A 
ATOM     10  C   UNL     1       7.421  -0.897  -2.189  1.00  0.00     0.166 A 
ATOM     11  C   UNL     1       8.740  -0.538  -2.017  1.00  0.00     0.165 A 
ATOM     12  O   UNL     1       7.451  -2.042  -2.977  1.00  0.00    -0.454 OA
ATOM     13  O   UNL     1       9.549  -1.459  -2.695  1.00  0.00    -0.454 OA
ATOM     14  C   UNL     1       8.748  -2.610  -2.861  1.00  0.00     0.468 C 
ENDBRANCH   5   6
ENDBRANCH   1   5
TORSDOF 3
ENDMDL
MODEL 2
REMARK VINA RESULT:      -7.0      1.811      2.272
REMARK SMILES CC(=O)CCc1ccc2c(c1)OCO2
REMARK SMILES IDX 4 1 2 2 1 3 3 4 5 5 6 6 7 7 11 8 8 9 10 10 9 11 12 12 14 13
REMARK SMILES IDX 13 14
REMARK H PARENT
REMARK Flexibility Score: inf
ROOT
ATOM      1  C   UNL     1       5.823   1.490  -0.300  1.00  0.00     0.080 C 
ENDROOT
BRANCH   1   2
ATOM      2  C   UNL     1       5.153   1.405   1.010  1.00  0.00     0.130 C 
ATOM      3  C   UNL     1       5.627   0.277   1.911  1.00  0.00     0.087 C 
ATOM      4  O   UNL     1       4.288   2.114   1.441  1.00  0.00    -0.300 OA
ENDBRANCH   1   2
BRANCH   1   5
ATOM      5  C   UNL     1       7.247   1.097  -0.330  1.00  0.00     0.043 C 
BRANCH   5   6
ATOM      6  C   UNL     1       7.570  -0.209  -0.911  1.00  0.00    -0.044 A 
ATOM      7  C   UNL     1       7.658  -0.408  -2.290  1.00  0.00     0.008 A 
ATOM      8  C   UNL     1       7.827  -1.283  -0.091  1.00  0.00     0.054 A 
ATOM      9  C   UNL     1       7.992  -1.651  -2.764  1.00  0.00     0.051 A 
ATOM     10  C   UNL     1       8.167  -2.544  -0.604  1.00  0.00     0.166 A 
ATOM     11  C   UNL     1       8.253  -2.741  -1.964  1.00  0.00     0.165 A 
ATOM     12  O   UNL     1       8.471  -3.775  -0.034  1.00  0.00    -0.454 OA
ATOM     13  O   UNL     1       8.604  -4.076  -2.205  1.00  0.00    -0.454 OA
ATOM     14  C   UNL     1       9.185  -4.532  -1.000  1.00  0.00     0.468 C 
ENDBRANCH   5   6
ENDBRANCH   1   5
TORSDOF 3
ENDMDL
MODEL 3
REMARK VINA RESULT:      -7.0      1.104      1.195
REMARK SMILES CC(=O)CCc1ccc2c(c1)OCO2
REMARK SMILES IDX 4 1 2 2 1 3 3 4 5 5 6 6 7 7 11 8 8 9 10 10 9 11 12 12 14 13
REMARK SMILES IDX 13 14
REMARK H PARENT
REMARK Flexibility Score: inf
ROOT
ATOM      1  C   UNL     1       6.233   1.185   0.908  1.00  0.00     0.080 C 
ENDROOT
BRANCH   1   2
ATOM      2  C   UNL     1       5.557   0.365   1.930  1.00  0.00     0.130 C 
ATOM      3  C   UNL     1       6.335  -0.849   2.407  1.00  0.00     0.087 C 
ATOM      4  O   UNL     1       4.480   0.545   2.422  1.00  0.00    -0.300 OA
ENDBRANCH   1   2
BRANCH   1   5
ATOM      5  C   UNL     1       5.887   0.888  -0.498  1.00  0.00     0.043 C 
BRANCH   5   6
ATOM      6  C   UNL     1       6.857   0.113  -1.278  1.00  0.00    -0.044 A 
ATOM      7  C   UNL     1       7.783   0.720  -2.128  1.00  0.00     0.008 A 
ATOM      8  C   UNL     1       6.894  -1.257  -1.164  1.00  0.00     0.054 A 
ATOM      9  C   UNL     1       8.679  -0.065  -2.806  1.00  0.00     0.051 A 
ATOM     10  C   UNL     1       7.823  -2.037  -1.870  1.00  0.00     0.166 A 
ATOM     11  C   UNL     1       8.736  -1.438  -2.710  1.00  0.00     0.165 A 
ATOM     12  O   UNL     1       8.087  -3.398  -1.951  1.00  0.00    -0.454 OA
ATOM     13  O   UNL     1       9.538  -2.432  -3.285  1.00  0.00    -0.454 OA
ATOM     14  C   UNL     1       9.414  -3.551  -2.433  1.00  0.00     0.468 C 
ENDBRANCH   5   6
ENDBRANCH   1   5
TORSDOF 3
ENDMDL
MODEL 4
REMARK VINA RESULT:      -6.8      1.160      1.651
REMARK SMILES CC(=O)CCc1ccc2c(c1)OCO2
REMARK SMILES IDX 4 1 2 2 1 3 3 4 5 5 6 6 7 7 11 8 8 9 10 10 9 11 12 12 14 13
REMARK SMILES IDX 13 14
REMARK H PARENT
REMARK Flexibility Score: inf
ROOT
ATOM      1  C   UNL     1       5.366  -0.076   1.952  1.00  0.00     0.080 C 
ENDROOT
BRANCH   1   2
ATOM      2  C   UNL     1       4.433   1.062   1.870  1.00  0.00     0.130 C 
ATOM      3  C   UNL     1       4.776   2.109   0.823  1.00  0.00     0.087 C 
ATOM      4  O   UNL     1       3.448   1.255   2.524  1.00  0.00    -0.300 OA
ENDBRANCH   1   2
BRANCH   1   5
ATOM      5  C   UNL     1       6.792   0.231   1.713  1.00  0.00     0.043 C 
BRANCH   5   6
ATOM      6  C   UNL     1       7.333  -0.087   0.389  1.00  0.00    -0.044 A 
ATOM      7  C   UNL     1       7.753   0.904  -0.500  1.00  0.00     0.008 A 
ATOM      8  C   UNL     1       7.469  -1.399  -0.002  1.00  0.00     0.054 A 
ATOM      9  C   UNL     1       8.275   0.533  -1.712  1.00  0.00     0.051 A 
ATOM     10  C   UNL     1       8.007  -1.750  -1.249  1.00  0.00     0.166 A 
ATOM     11  C   UNL     1       8.421  -0.772  -2.128  1.00  0.00     0.165 A 
ATOM     12  O   UNL     1       8.258  -2.954  -1.895  1.00  0.00    -0.454 OA
ATOM     13  O   UNL     1       8.913  -1.387  -3.286  1.00  0.00    -0.454 OA
ATOM     14  C   UNL     1       9.229  -2.709  -2.902  1.00  0.00     0.468 C 
ENDBRANCH   5   6
ENDBRANCH   1   5
TORSDOF 3
ENDMDL
MODEL 5
REMARK VINA RESULT:      -6.8      1.786      2.350
REMARK SMILES CC(=O)CCc1ccc2c(c1)OCO2
REMARK SMILES IDX 4 1 2 2 1 3 3 4 5 5 6 6 7 7 11 8 8 9 10 10 9 11 12 12 14 13
REMARK SMILES IDX 13 14
REMARK H PARENT
REMARK Flexibility Score: inf
ROOT
ATOM      1  C   UNL     1       5.617   0.127   2.118  1.00  0.00     0.080 C 
ENDROOT
BRANCH   1   2
ATOM      2  C   UNL     1       4.567   1.128   1.857  1.00  0.00     0.130 C 
ATOM      3  C   UNL     1       4.855   2.088   0.714  1.00  0.00     0.087 C 
ATOM      4  O   UNL     1       3.527   1.271   2.433  1.00  0.00    -0.300 OA
ENDBRANCH   1   2
BRANCH   1   5
ATOM      5  C   UNL     1       6.907   0.340   1.429  1.00  0.00     0.043 C 
BRANCH   5   6
ATOM      6  C   UNL     1       7.245  -0.581   0.340  1.00  0.00    -0.044 A 
ATOM      7  C   UNL     1       7.047  -0.251  -1.002  1.00  0.00     0.008 A 
ATOM      8  C   UNL     1       7.803  -1.806   0.622  1.00  0.00     0.054 A 
ATOM      9  C   UNL     1       7.412  -1.150  -1.970  1.00  0.00     0.051 A 
ATOM     10  C   UNL     1       8.167  -2.708  -0.389  1.00  0.00     0.166 A 
ATOM     11  C   UNL     1       7.971  -2.383  -1.713  1.00  0.00     0.165 A 
ATOM     12  O   UNL     1       8.733  -3.977  -0.402  1.00  0.00    -0.454 OA
ATOM     13  O   UNL     1       8.416  -3.446  -2.509  1.00  0.00    -0.454 OA
ATOM     14  C   UNL     1       9.299  -4.182  -1.688  1.00  0.00     0.468 C 
ENDBRANCH   5   6
ENDBRANCH   1   5
TORSDOF 3
ENDMDL
