@<TRIPOS>MOLECULE
/home/cewinharhar/GITHUB/reincatalyze/data/processed/docking_pred/2023-May-31-1727_sub9_nm5_bs15_s42_ex16_mel10_mts10000_k50_ec075_g099_lra3e-4_lrc3e-3/d32515ef85c53a65d829162c3cbbbf13c46f52f9_ligand_9.pdbqt
 14 15 0 0 0
SMALL
GASTEIGER

@<TRIPOS>ATOM
      1  C          5.8230    1.4900   -0.3000 C.3     1  UNL1        0.0800
      2  C          5.1530    1.4050    1.0100 C.2     1  UNL1        0.1300
      3  C          5.6270    0.2770    1.9110 C.3     1  UNL1        0.0870
      4  O          4.2880    2.1140    1.4410 O.2     1  UNL1       -0.3000
      5  C          7.2470    1.0970   -0.3300 C.3     1  UNL1        0.0430
      6  C          7.5700   -0.2090   -0.9110 C.2     1  UNL1       -0.0440
      7  C          7.6580   -0.4080   -2.2900 C.2     1  UNL1        0.0080
      8  C          7.8270   -1.2830   -0.0910 C.2     1  UNL1        0.0540
      9  C          7.9920   -1.6510   -2.7640 C.2     1  UNL1        0.0510
     10  C          8.1670   -2.5440   -0.6040 C.2     1  UNL1        0.1660
     11  C          8.2530   -2.7410   -1.9640 C.2     1  UNL1        0.1650
     12  O          8.4710   -3.7750   -0.0340 O.2     1  UNL1       -0.4540
     13  O          8.6040   -4.0760   -2.2050 O.2     1  UNL1       -0.4540
     14  C          9.1850   -4.5320   -1.0000 C.3     1  UNL1        0.4680
@<TRIPOS>BOND
     1     9     7    1
     2     9    11    2
     3     7     6    2
     4    13    11    1
     5    13    14    1
     6    11    10    1
     7    14    12    1
     8     6     5    1
     9     6     8    1
    10    10     8    2
    11    10    12    1
    12     5     1    1
    13     1     2    1
    14     2     4    2
    15     2     3    1
