@<TRIPOS>MOLECULE
/home/cewinharhar/GITHUB/reincatalyze/data/processed/docking_pred/2023-May-31-1727_sub9_nm5_bs15_s42_ex16_mel10_mts10000_k50_ec075_g099_lra3e-4_lrc3e-3/d32515ef85c53a65d829162c3cbbbf13c46f52f9_ligand_9.pdbqt
 14 15 0 0 0
SMALL
GASTEIGER

@<TRIPOS>ATOM
      1  C          6.2330    1.1850    0.9080 C.3     1  UNL1        0.0800
      2  C          5.5570    0.3650    1.9300 C.2     1  UNL1        0.1300
      3  C          6.3350   -0.8490    2.4070 C.3     1  UNL1        0.0870
      4  O          4.4800    0.5450    2.4220 O.2     1  UNL1       -0.3000
      5  C          5.8870    0.8880   -0.4980 C.3     1  UNL1        0.0430
      6  C          6.8570    0.1130   -1.2780 C.2     1  UNL1       -0.0440
      7  C          7.7830    0.7200   -2.1280 C.2     1  UNL1        0.0080
      8  C          6.8940   -1.2570   -1.1640 C.2     1  UNL1        0.0540
      9  C          8.6790   -0.0650   -2.8060 C.2     1  UNL1        0.0510
     10  C          7.8230   -2.0370   -1.8700 C.2     1  UNL1        0.1660
     11  C          8.7360   -1.4380   -2.7100 C.2     1  UNL1        0.1650
     12  O          8.0870   -3.3980   -1.9510 O.2     1  UNL1       -0.4540
     13  O          9.5380   -2.4320   -3.2850 O.2     1  UNL1       -0.4540
     14  C          9.4140   -3.5510   -2.4330 C.3     1  UNL1        0.4680
@<TRIPOS>BOND
     1    13    11    1
     2    13    14    1
     3     9    11    2
     4     9     7    1
     5    11    10    1
     6    14    12    1
     7     7     6    2
     8    12    10    1
     9    10     8    2
    10     6     8    1
    11     6     5    1
    12     5     1    1
    13     1     2    1
    14     2     3    1
    15     2     4    2
