@<TRIPOS>MOLECULE
/home/cewinharhar/GITHUB/reincatalyze/data/processed/docking_pred/2023-May-31-1727_sub9_nm5_bs15_s42_ex16_mel10_mts10000_k50_ec075_g099_lra3e-4_lrc3e-3/d32515ef85c53a65d829162c3cbbbf13c46f52f9_ligand_9.pdbqt
 14 15 0 0 0
SMALL
GASTEIGER

@<TRIPOS>ATOM
      1  C          5.3660   -0.0760    1.9520 C.3     1  UNL1        0.0800
      2  C          4.4330    1.0620    1.8700 C.2     1  UNL1        0.1300
      3  C          4.7760    2.1090    0.8230 C.3     1  UNL1        0.0870
      4  O          3.4480    1.2550    2.5240 O.2     1  UNL1       -0.3000
      5  C          6.7920    0.2310    1.7130 C.3     1  UNL1        0.0430
      6  C          7.3330   -0.0870    0.3890 C.2     1  UNL1       -0.0440
      7  C          7.7530    0.9040   -0.5000 C.2     1  UNL1        0.0080
      8  C          7.4690   -1.3990   -0.0020 C.2     1  UNL1        0.0540
      9  C          8.2750    0.5330   -1.7120 C.2     1  UNL1        0.0510
     10  C          8.0070   -1.7500   -1.2490 C.2     1  UNL1        0.1660
     11  C          8.4210   -0.7720   -2.1280 C.2     1  UNL1        0.1650
     12  O          8.2580   -2.9540   -1.8950 O.2     1  UNL1       -0.4540
     13  O          8.9130   -1.3870   -3.2860 O.2     1  UNL1       -0.4540
     14  C          9.2290   -2.7090   -2.9020 C.3     1  UNL1        0.4680
@<TRIPOS>BOND
     1    13    14    1
     2    13    11    1
     3    14    12    1
     4    11     9    2
     5    11    10    1
     6    12    10    1
     7     9     7    1
     8    10     8    2
     9     7     6    2
    10     8     6    1
    11     6     5    1
    12     3     2    1
    13     5     1    1
    14     2     1    1
    15     2     4    2
