@<TRIPOS>MOLECULE
/home/cewinharhar/GITHUB/reincatalyze/data/processed/docking_pred/2023-May-31-1727_sub9_nm5_bs15_s42_ex16_mel10_mts10000_k50_ec075_g099_lra3e-4_lrc3e-3/d3a7bace4d7284fd134c29c8ba069397c7215f06_ligand_9.pdbqt
 14 15 0 0 0
SMALL
GASTEIGER

@<TRIPOS>ATOM
      1  C          5.7860    1.5780    0.8780 C.3     1  UNL1        0.0800
      2  C          5.2660    0.6210    1.8710 C.2     1  UNL1        0.1300
      3  C          6.1870   -0.5420    2.1980 C.3     1  UNL1        0.0870
      4  O          4.2140    0.6540    2.4440 O.2     1  UNL1       -0.3000
      5  C          5.8130    1.1120   -0.5240 C.3     1  UNL1        0.0430
      6  C          7.0230    0.4200   -0.9780 C.2     1  UNL1       -0.0440
      7  C          8.2950    0.9790   -0.8410 C.2     1  UNL1        0.0080
      8  C          6.9310   -0.8340   -1.5350 C.2     1  UNL1        0.0540
      9  C          9.3860    0.2640   -1.2620 C.2     1  UNL1        0.0510
     10  C          8.0650   -1.5440   -1.9580 C.2     1  UNL1        0.1660
     11  C          9.3200   -0.9920   -1.8240 C.2     1  UNL1        0.1650
     12  O          8.2710   -2.7890   -2.5390 O.2     1  UNL1       -0.4540
     13  O         10.2660   -1.8990   -2.3190 O.2     1  UNL1       -0.4540
     14  C          9.6230   -3.1560   -2.3020 C.3     1  UNL1        0.4680
@<TRIPOS>BOND
     1    12    14    1
     2    12    10    1
     3    13    14    1
     4    13    11    1
     5    10    11    2
     6    10     8    1
     7    11     9    1
     8     8     6    2
     9     9     7    2
    10     6     7    1
    11     6     5    1
    12     5     1    1
    13     1     2    1
    14     2     3    1
    15     2     4    2
