@<TRIPOS>MOLECULE
/home/cewinharhar/GITHUB/reincatalyze/data/processed/docking_pred/2023-May-31-1727_sub9_nm5_bs15_s42_ex16_mel10_mts10000_k50_ec075_g099_lra3e-4_lrc3e-3/d3a7bace4d7284fd134c29c8ba069397c7215f06_ligand_9.pdbqt
 14 15 0 0 0
SMALL
GASTEIGER

@<TRIPOS>ATOM
      1  C          6.4710    1.5190    0.2380 C.3     1  UNL1        0.0800
      2  C          5.3450    1.2300    1.1440 C.2     1  UNL1        0.1300
      3  C          5.4590   -0.0650    1.9300 C.3     1  UNL1        0.0870
      4  O          4.3630    1.8910    1.3300 O.2     1  UNL1       -0.3000
      5  C          6.6020    0.6370   -0.9410 C.3     1  UNL1        0.0430
      6  C          7.8380   -0.1410   -1.0620 C.2     1  UNL1       -0.0440
      7  C          8.8580   -0.0690   -0.1130 C.2     1  UNL1        0.0080
      8  C          8.0100   -0.9990   -2.1240 C.2     1  UNL1        0.0540
      9  C          9.9760   -0.8460   -0.2760 C.2     1  UNL1        0.0510
     10  C          9.1650   -1.7830   -2.2660 C.2     1  UNL1        0.1660
     11  C         10.1720   -1.7120   -1.3290 C.2     1  UNL1        0.1650
     12  O          9.6010   -2.7100   -3.2050 O.2     1  UNL1       -0.4540
     13  O         11.1990   -2.5870   -1.7050 O.2     1  UNL1       -0.4540
     14  C         10.5980   -3.5110   -2.5880 C.3     1  UNL1        0.4680
@<TRIPOS>BOND
     1    12    14    1
     2    12    10    1
     3    14    13    1
     4    10     8    1
     5    10    11    2
     6     8     6    2
     7    13    11    1
     8    11     9    1
     9     6     5    1
    10     6     7    1
    11     5     1    1
    12     9     7    2
    13     1     2    1
    14     2     4    2
    15     2     3    1
