@<TRIPOS>MOLECULE
/home/cewinharhar/GITHUB/reincatalyze/data/processed/docking_pred/2023-May-31-1727_sub9_nm5_bs15_s42_ex16_mel10_mts10000_k50_ec075_g099_lra3e-4_lrc3e-3/d3a7bace4d7284fd134c29c8ba069397c7215f06_ligand_9.pdbqt
 14 15 0 0 0
SMALL
GASTEIGER

@<TRIPOS>ATOM
      1  C          6.4320    0.9540    0.8950 C.3     1  UNL1        0.0800
      2  C          5.6280    0.2960    1.9410 C.2     1  UNL1        0.1300
      3  C          6.2620   -0.9320    2.5710 C.3     1  UNL1        0.0870
      4  O          4.5460    0.6140    2.3460 O.2     1  UNL1       -0.3000
      5  C          6.0810    0.6230   -0.5020 C.3     1  UNL1        0.0430
      6  C          7.0300   -0.2040   -1.2530 C.2     1  UNL1       -0.0440
      7  C          7.6580    0.2520   -2.4140 C.2     1  UNL1        0.0080
      8  C          7.3500   -1.4650   -0.8050 C.2     1  UNL1        0.0540
      9  C          8.5550   -0.5650   -3.0510 C.2     1  UNL1        0.0510
     10  C          8.2730   -2.2800   -1.4770 C.2     1  UNL1        0.1660
     11  C          8.8920   -1.8300   -2.6230 C.2     1  UNL1        0.1650
     12  O          8.7760   -3.5580   -1.2640 O.2     1  UNL1       -0.4540
     13  O          9.7560   -2.8290   -3.0890 O.2     1  UNL1       -0.4540
     14  C         10.0020   -3.6610   -1.9740 C.3     1  UNL1        0.4680
@<TRIPOS>BOND
     1    13    11    1
     2    13    14    1
     3     9    11    2
     4     9     7    1
     5    11    10    1
     6     7     6    2
     7    14    12    1
     8    10    12    1
     9    10     8    2
    10     6     8    1
    11     6     5    1
    12     5     1    1
    13     1     2    1
    14     2     4    2
    15     2     3    1
