@<TRIPOS>MOLECULE
/home/cewinharhar/GITHUB/reincatalyze/data/processed/docking_pred/2023-May-31-1727_sub9_nm5_bs15_s42_ex16_mel10_mts10000_k50_ec075_g099_lra3e-4_lrc3e-3/d3a7bace4d7284fd134c29c8ba069397c7215f06_ligand_9.pdbqt
 14 15 0 0 0
SMALL
GASTEIGER

@<TRIPOS>ATOM
      1  C          5.9000    1.2980   -0.2720 C.3     1  UNL1        0.0800
      2  C          5.2320    1.2240    1.0400 C.2     1  UNL1        0.1300
      3  C          5.6000    0.0200    1.8890 C.3     1  UNL1        0.0870
      4  O          4.4430    1.9950    1.5080 O.2     1  UNL1       -0.3000
      5  C          7.3740    1.1880   -0.2600 C.3     1  UNL1        0.0430
      6  C          7.9730    0.1120   -1.0540 C.2     1  UNL1       -0.0440
      7  C          7.7090   -0.0420   -2.4160 C.2     1  UNL1        0.0080
      8  C          8.8490   -0.7710   -0.4680 C.2     1  UNL1        0.0540
      9  C          8.3250   -1.0550   -3.1040 C.2     1  UNL1        0.0510
     10  C          9.4660   -1.8000   -1.1960 C.2     1  UNL1        0.1660
     11  C          9.2050   -1.9530   -2.5400 C.2     1  UNL1        0.1650
     12  O         10.3660   -2.8100   -0.8790 O.2     1  UNL1       -0.4540
     13  O          9.9420   -3.0420   -3.0210 O.2     1  UNL1       -0.4540
     14  C         10.9850   -3.2290   -2.0860 C.3     1  UNL1        0.4680
@<TRIPOS>BOND
     1     9    11    2
     2     9     7    1
     3    13    11    1
     4    13    14    1
     5    11    10    1
     6     7     6    2
     7    14    12    1
     8    10    12    1
     9    10     8    2
    10     6     8    1
    11     6     5    1
    12     1     5    1
    13     1     2    1
    14     2     4    2
    15     2     3    1
