MODEL 1
REMARK VINA RESULT:      -8.3      0.000      0.000
REMARK SMILES CC(=O)CCc1ccc2c(c1)OCO2
REMARK SMILES IDX 4 1 2 2 1 3 3 4 5 5 6 6 7 7 11 8 8 9 10 10 9 11 12 12 14 13
REMARK SMILES IDX 13 14
REMARK H PARENT
REMARK Flexibility Score: inf
ROOT
ATOM      1  C   UNL     1       5.786   1.578   0.878  1.00  0.00     0.080 C 
ENDROOT
BRANCH   1   2
ATOM      2  C   UNL     1       5.266   0.621   1.871  1.00  0.00     0.130 C 
ATOM      3  C   UNL     1       6.187  -0.542   2.198  1.00  0.00     0.087 C 
ATOM      4  O   UNL     1       4.214   0.654   2.444  1.00  0.00    -0.300 OA
ENDBRANCH   1   2
BRANCH   1   5
ATOM      5  C   UNL     1       5.813   1.112  -0.524  1.00  0.00     0.043 C 
BRANCH   5   6
ATOM      6  C   UNL     1       7.023   0.420  -0.978  1.00  0.00    -0.044 A 
ATOM      7  C   UNL     1       8.295   0.979  -0.841  1.00  0.00     0.008 A 
ATOM      8  C   UNL     1       6.931  -0.834  -1.535  1.00  0.00     0.054 A 
ATOM      9  C   UNL     1       9.386   0.264  -1.262  1.00  0.00     0.051 A 
ATOM     10  C   UNL     1       8.065  -1.544  -1.958  1.00  0.00     0.166 A 
ATOM     11  C   UNL     1       9.320  -0.992  -1.824  1.00  0.00     0.165 A 
ATOM     12  O   UNL     1       8.271  -2.789  -2.539  1.00  0.00    -0.454 OA
ATOM     13  O   UNL     1      10.266  -1.899  -2.319  1.00  0.00    -0.454 OA
ATOM     14  C   UNL     1       9.623  -3.156  -2.302  1.00  0.00     0.468 C 
ENDBRANCH   5   6
ENDBRANCH   1   5
TORSDOF 3
ENDMDL
MODEL 2
REMARK VINA RESULT:      -7.6      1.218      1.678
REMARK SMILES CC(=O)CCc1ccc2c(c1)OCO2
REMARK SMILES IDX 4 1 2 2 1 3 3 4 5 5 6 6 7 7 11 8 8 9 10 10 9 11 12 12 14 13
REMARK SMILES IDX 13 14
REMARK H PARENT
REMARK Flexibility Score: inf
ROOT
ATOM      1  C   UNL     1       5.900   1.298  -0.272  1.00  0.00     0.080 C 
ENDROOT
BRANCH   1   2
ATOM      2  C   UNL     1       5.232   1.224   1.040  1.00  0.00     0.130 C 
ATOM      3  C   UNL     1       5.600   0.020   1.889  1.00  0.00     0.087 C 
ATOM      4  O   UNL     1       4.443   1.995   1.508  1.00  0.00    -0.300 OA
ENDBRANCH   1   2
BRANCH   1   5
ATOM      5  C   UNL     1       7.374   1.188  -0.260  1.00  0.00     0.043 C 
BRANCH   5   6
ATOM      6  C   UNL     1       7.973   0.112  -1.054  1.00  0.00    -0.044 A 
ATOM      7  C   UNL     1       7.709  -0.042  -2.416  1.00  0.00     0.008 A 
ATOM      8  C   UNL     1       8.849  -0.771  -0.468  1.00  0.00     0.054 A 
ATOM      9  C   UNL     1       8.325  -1.055  -3.104  1.00  0.00     0.051 A 
ATOM     10  C   UNL     1       9.466  -1.800  -1.196  1.00  0.00     0.166 A 
ATOM     11  C   UNL     1       9.205  -1.953  -2.540  1.00  0.00     0.165 A 
ATOM     12  O   UNL     1      10.366  -2.810  -0.879  1.00  0.00    -0.454 OA
ATOM     13  O   UNL     1       9.942  -3.042  -3.021  1.00  0.00    -0.454 OA
ATOM     14  C   UNL     1      10.985  -3.229  -2.086  1.00  0.00     0.468 C 
ENDBRANCH   5   6
ENDBRANCH   1   5
TORSDOF 3
ENDMDL
MODEL 3
REMARK VINA RESULT:      -7.5      1.110      1.146
REMARK SMILES CC(=O)CCc1ccc2c(c1)OCO2
REMARK SMILES IDX 4 1 2 2 1 3 3 4 5 5 6 6 7 7 11 8 8 9 10 10 9 11 12 12 14 13
REMARK SMILES IDX 13 14
REMARK H PARENT
REMARK Flexibility Score: inf
ROOT
ATOM      1  C   UNL     1       6.432   0.954   0.895  1.00  0.00     0.080 C 
ENDROOT
BRANCH   1   2
ATOM      2  C   UNL     1       5.628   0.296   1.941  1.00  0.00     0.130 C 
ATOM      3  C   UNL     1       6.262  -0.932   2.571  1.00  0.00     0.087 C 
ATOM      4  O   UNL     1       4.546   0.614   2.346  1.00  0.00    -0.300 OA
ENDBRANCH   1   2
BRANCH   1   5
ATOM      5  C   UNL     1       6.081   0.623  -0.502  1.00  0.00     0.043 C 
BRANCH   5   6
ATOM      6  C   UNL     1       7.030  -0.204  -1.253  1.00  0.00    -0.044 A 
ATOM      7  C   UNL     1       7.658   0.252  -2.414  1.00  0.00     0.008 A 
ATOM      8  C   UNL     1       7.350  -1.465  -0.805  1.00  0.00     0.054 A 
ATOM      9  C   UNL     1       8.555  -0.565  -3.051  1.00  0.00     0.051 A 
ATOM     10  C   UNL     1       8.273  -2.280  -1.477  1.00  0.00     0.166 A 
ATOM     11  C   UNL     1       8.892  -1.830  -2.623  1.00  0.00     0.165 A 
ATOM     12  O   UNL     1       8.776  -3.558  -1.264  1.00  0.00    -0.454 OA
ATOM     13  O   UNL     1       9.756  -2.829  -3.089  1.00  0.00    -0.454 OA
ATOM     14  C   UNL     1      10.002  -3.661  -1.974  1.00  0.00     0.468 C 
ENDBRANCH   5   6
ENDBRANCH   1   5
TORSDOF 3
ENDMDL
MODEL 4
REMARK VINA RESULT:      -7.4      1.381      2.219
REMARK SMILES CC(=O)CCc1ccc2c(c1)OCO2
REMARK SMILES IDX 4 1 2 2 1 3 3 4 5 5 6 6 7 7 11 8 8 9 10 10 9 11 12 12 14 13
REMARK SMILES IDX 13 14
REMARK H PARENT
REMARK Flexibility Score: inf
ROOT
ATOM      1  C   UNL     1       6.656   0.045   1.935  1.00  0.00     0.080 C 
ENDROOT
BRANCH   1   2
ATOM      2  C   UNL     1       5.359   0.722   1.757  1.00  0.00     0.130 C 
ATOM      3  C   UNL     1       5.276   1.666   0.570  1.00  0.00     0.087 C 
ATOM      4  O   UNL     1       4.374   0.614   2.431  1.00  0.00    -0.300 OA
ENDBRANCH   1   2
BRANCH   1   5
ATOM      5  C   UNL     1       6.702  -1.384   1.561  1.00  0.00     0.043 C 
BRANCH   5   6
ATOM      6  C   UNL     1       7.384  -1.728   0.310  1.00  0.00    -0.044 A 
ATOM      7  C   UNL     1       7.008  -1.179  -0.917  1.00  0.00     0.008 A 
ATOM      8  C   UNL     1       8.451  -2.596   0.323  1.00  0.00     0.054 A 
ATOM      9  C   UNL     1       7.708  -1.524  -2.044  1.00  0.00     0.051 A 
ATOM     10  C   UNL     1       9.150  -2.932  -0.846  1.00  0.00     0.166 A 
ATOM     11  C   UNL     1       8.779  -2.391  -2.057  1.00  0.00     0.165 A 
ATOM     12  O   UNL     1      10.233  -3.756  -1.127  1.00  0.00    -0.454 OA
ATOM     13  O   UNL     1       9.632  -2.886  -3.052  1.00  0.00    -0.454 OA
ATOM     14  C   UNL     1      10.783  -3.334  -2.367  1.00  0.00     0.468 C 
ENDBRANCH   5   6
ENDBRANCH   1   5
TORSDOF 3
ENDMDL
MODEL 5
REMARK VINA RESULT:      -7.3      1.117      1.236
REMARK SMILES CC(=O)CCc1ccc2c(c1)OCO2
REMARK SMILES IDX 4 1 2 2 1 3 3 4 5 5 6 6 7 7 11 8 8 9 10 10 9 11 12 12 14 13
REMARK SMILES IDX 13 14
REMARK H PARENT
REMARK Flexibility Score: inf
ROOT
ATOM      1  C   UNL     1       6.471   1.519   0.238  1.00  0.00     0.080 C 
ENDROOT
BRANCH   1   2
ATOM      2  C   UNL     1       5.345   1.230   1.144  1.00  0.00     0.130 C 
ATOM      3  C   UNL     1       5.459  -0.065   1.930  1.00  0.00     0.087 C 
ATOM      4  O   UNL     1       4.363   1.891   1.330  1.00  0.00    -0.300 OA
ENDBRANCH   1   2
BRANCH   1   5
ATOM      5  C   UNL     1       6.602   0.637  -0.941  1.00  0.00     0.043 C 
BRANCH   5   6
ATOM      6  C   UNL     1       7.838  -0.141  -1.062  1.00  0.00    -0.044 A 
ATOM      7  C   UNL     1       8.858  -0.069  -0.113  1.00  0.00     0.008 A 
ATOM      8  C   UNL     1       8.010  -0.999  -2.124  1.00  0.00     0.054 A 
ATOM      9  C   UNL     1       9.976  -0.846  -0.276  1.00  0.00     0.051 A 
ATOM     10  C   UNL     1       9.165  -1.783  -2.266  1.00  0.00     0.166 A 
ATOM     11  C   UNL     1      10.172  -1.712  -1.329  1.00  0.00     0.165 A 
ATOM     12  O   UNL     1       9.601  -2.710  -3.205  1.00  0.00    -0.454 OA
ATOM     13  O   UNL     1      11.199  -2.587  -1.705  1.00  0.00    -0.454 OA
ATOM     14  C   UNL     1      10.598  -3.511  -2.588  1.00  0.00     0.468 C 
ENDBRANCH   5   6
ENDBRANCH   1   5
TORSDOF 3
ENDMDL
