@<TRIPOS>MOLECULE
/home/cewinharhar/GITHUB/reincatalyze/data/processed/docking_pred/2023-May-31-1727_sub9_nm5_bs15_s42_ex16_mel10_mts10000_k50_ec075_g099_lra3e-4_lrc3e-3/d4292dbdc665c4d20b6271b363b9823f318ec372_ligand_9.pdbqt
 14 15 0 0 0
SMALL
GASTEIGER

@<TRIPOS>ATOM
      1  C          5.4980    1.9240    1.2030 C.3     1  UNL1        0.0800
      2  C          5.0070    0.7830    1.9980 C.2     1  UNL1        0.1300
      3  C          5.9780   -0.3770    2.1370 C.3     1  UNL1        0.0870
      4  O          3.9450    0.6670    2.5410 O.2     1  UNL1       -0.3000
      5  C          5.4840    1.7480   -0.2650 C.3     1  UNL1        0.0430
      6  C          6.5980    1.0040   -0.8610 C.2     1  UNL1       -0.0440
      7  C          7.9280    1.3850   -0.6800 C.2     1  UNL1        0.0080
      8  C          6.3510   -0.1260   -1.6050 C.2     1  UNL1        0.0540
      9  C          8.9210    0.6270   -1.2440 C.2     1  UNL1        0.0510
     10  C          7.3870   -0.8840   -2.1710 C.2     1  UNL1        0.1660
     11  C          8.7000   -0.5080   -1.9930 C.2     1  UNL1        0.1650
     12  O          7.4360   -2.0360   -2.9460 O.2     1  UNL1       -0.4540
     13  O          9.5250   -1.4260   -2.6550 O.2     1  UNL1       -0.4540
     14  C          8.7370   -2.5880   -2.8140 C.3     1  UNL1        0.4680
@<TRIPOS>BOND
     1    12    14    1
     2    12    10    1
     3    14    13    1
     4    13    11    1
     5    10    11    2
     6    10     8    1
     7    11     9    1
     8     8     6    2
     9     9     7    2
    10     6     7    1
    11     6     5    1
    12     5     1    1
    13     1     2    1
    14     2     3    1
    15     2     4    2
