@<TRIPOS>MOLECULE
/home/cewinharhar/GITHUB/reincatalyze/data/processed/docking_pred/2023-May-31-1727_sub9_nm5_bs15_s42_ex16_mel10_mts10000_k50_ec075_g099_lra3e-4_lrc3e-3/d4292dbdc665c4d20b6271b363b9823f318ec372_ligand_9.pdbqt
 14 15 0 0 0
SMALL
GASTEIGER

@<TRIPOS>ATOM
      1  C          5.3670   -0.0570    1.9540 C.3     1  UNL1        0.0800
      2  C          4.4230    1.0720    1.8750 C.2     1  UNL1        0.1300
      3  C          4.7440    2.1150    0.8180 C.3     1  UNL1        0.0870
      4  O          3.4430    1.2590    2.5390 O.2     1  UNL1       -0.3000
      5  C          6.7880    0.2630    1.7020 C.3     1  UNL1        0.0430
      6  C          7.3250   -0.0660    0.3790 C.2     1  UNL1       -0.0440
      7  C          7.7410    0.9170   -0.5210 C.2     1  UNL1        0.0080
      8  C          7.4590   -1.3810   -0.0020 C.2     1  UNL1        0.0540
      9  C          8.2590    0.5360   -1.7310 C.2     1  UNL1        0.0510
     10  C          7.9940   -1.7430   -1.2480 C.2     1  UNL1        0.1660
     11  C          8.4030   -0.7730   -2.1360 C.2     1  UNL1        0.1650
     12  O          8.2420   -2.9530   -1.8850 O.2     1  UNL1       -0.4540
     13  O          8.8920   -1.3970   -3.2910 O.2     1  UNL1       -0.4540
     14  C          9.2090   -2.7160   -2.8970 C.3     1  UNL1        0.4680
@<TRIPOS>BOND
     1    13    14    1
     2    13    11    1
     3    14    12    1
     4    11     9    2
     5    11    10    1
     6    12    10    1
     7     9     7    1
     8    10     8    2
     9     7     6    2
    10     8     6    1
    11     6     5    1
    12     3     2    1
    13     5     1    1
    14     2     1    1
    15     2     4    2
