@<TRIPOS>MOLECULE
/home/cewinharhar/GITHUB/reincatalyze/data/processed/docking_pred/2023-May-31-1727_sub9_nm5_bs15_s42_ex16_mel10_mts10000_k50_ec075_g099_lra3e-4_lrc3e-3/d4292dbdc665c4d20b6271b363b9823f318ec372_ligand_9.pdbqt
 14 15 0 0 0
SMALL
GASTEIGER

@<TRIPOS>ATOM
      1  C          6.1890    1.2010    0.9450 C.3     1  UNL1        0.0800
      2  C          5.5200    0.3510    1.9470 C.2     1  UNL1        0.1300
      3  C          6.2960   -0.8820    2.3760 C.3     1  UNL1        0.0870
      4  O          4.4490    0.5200    2.4570 O.2     1  UNL1       -0.3000
      5  C          5.8720    0.9120   -0.4690 C.3     1  UNL1        0.0430
      6  C          6.8620    0.1500   -1.2360 C.2     1  UNL1       -0.0440
      7  C          7.8560    0.7730   -1.9930 C.2     1  UNL1        0.0080
      8  C          6.8500   -1.2250   -1.2040 C.2     1  UNL1        0.0540
      9  C          8.7670   -0.0010   -2.6640 C.2     1  UNL1        0.0510
     10  C          7.7950   -1.9930   -1.9000 C.2     1  UNL1        0.1660
     11  C          8.7750   -1.3780   -2.6470 C.2     1  UNL1        0.1650
     12  O          8.0210   -3.3560   -2.0470 O.2     1  UNL1       -0.4540
     13  O          9.5790   -2.3640   -3.2340 O.2     1  UNL1       -0.4540
     14  C          9.3690   -3.5270   -2.4590 C.3     1  UNL1        0.4680
@<TRIPOS>BOND
     1    13    11    1
     2    13    14    1
     3     9    11    2
     4     9     7    1
     5    11    10    1
     6    14    12    1
     7    12    10    1
     8     7     6    2
     9    10     8    2
    10     6     8    1
    11     6     5    1
    12     5     1    1
    13     1     2    1
    14     2     3    1
    15     2     4    2
