MODEL 1
REMARK VINA RESULT:      -7.6      0.000      0.000
REMARK SMILES CC(=O)CCc1ccc2c(c1)OCO2
REMARK SMILES IDX 4 1 2 2 1 3 3 4 5 5 6 6 7 7 11 8 8 9 10 10 9 11 12 12 14 13
REMARK SMILES IDX 13 14
REMARK H PARENT
REMARK Flexibility Score: inf
ROOT
ATOM      1  C   UNL     1       5.498   1.924   1.203  1.00  0.00     0.080 C 
ENDROOT
BRANCH   1   2
ATOM      2  C   UNL     1       5.007   0.783   1.998  1.00  0.00     0.130 C 
ATOM      3  C   UNL     1       5.978  -0.377   2.137  1.00  0.00     0.087 C 
ATOM      4  O   UNL     1       3.945   0.667   2.541  1.00  0.00    -0.300 OA
ENDBRANCH   1   2
BRANCH   1   5
ATOM      5  C   UNL     1       5.484   1.748  -0.265  1.00  0.00     0.043 C 
BRANCH   5   6
ATOM      6  C   UNL     1       6.598   1.004  -0.861  1.00  0.00    -0.044 A 
ATOM      7  C   UNL     1       7.928   1.385  -0.680  1.00  0.00     0.008 A 
ATOM      8  C   UNL     1       6.351  -0.126  -1.605  1.00  0.00     0.054 A 
ATOM      9  C   UNL     1       8.921   0.627  -1.244  1.00  0.00     0.051 A 
ATOM     10  C   UNL     1       7.387  -0.884  -2.171  1.00  0.00     0.166 A 
ATOM     11  C   UNL     1       8.700  -0.508  -1.993  1.00  0.00     0.165 A 
ATOM     12  O   UNL     1       7.436  -2.036  -2.946  1.00  0.00    -0.454 OA
ATOM     13  O   UNL     1       9.525  -1.426  -2.655  1.00  0.00    -0.454 OA
ATOM     14  C   UNL     1       8.737  -2.588  -2.814  1.00  0.00     0.468 C 
ENDBRANCH   5   6
ENDBRANCH   1   5
TORSDOF 3
ENDMDL
MODEL 2
REMARK VINA RESULT:      -7.0      1.831      2.318
REMARK SMILES CC(=O)CCc1ccc2c(c1)OCO2
REMARK SMILES IDX 4 1 2 2 1 3 3 4 5 5 6 6 7 7 11 8 8 9 10 10 9 11 12 12 14 13
REMARK SMILES IDX 13 14
REMARK H PARENT
REMARK Flexibility Score: inf
ROOT
ATOM      1  C   UNL     1       5.787   1.401  -0.308  1.00  0.00     0.080 C 
ENDROOT
BRANCH   1   2
ATOM      2  C   UNL     1       5.140   1.377   1.016  1.00  0.00     0.130 C 
ATOM      3  C   UNL     1       5.556   0.231   1.922  1.00  0.00     0.087 C 
ATOM      4  O   UNL     1       4.335   2.149   1.455  1.00  0.00    -0.300 OA
ENDBRANCH   1   2
BRANCH   1   5
ATOM      5  C   UNL     1       7.218   1.033  -0.340  1.00  0.00     0.043 C 
BRANCH   5   6
ATOM      6  C   UNL     1       7.562  -0.271  -0.913  1.00  0.00    -0.044 A 
ATOM      7  C   UNL     1       7.655  -0.478  -2.290  1.00  0.00     0.008 A 
ATOM      8  C   UNL     1       7.834  -1.336  -0.086  1.00  0.00     0.054 A 
ATOM      9  C   UNL     1       8.008  -1.718  -2.756  1.00  0.00     0.051 A 
ATOM     10  C   UNL     1       8.194  -2.596  -0.590  1.00  0.00     0.166 A 
ATOM     11  C   UNL     1       8.285  -2.800  -1.949  1.00  0.00     0.165 A 
ATOM     12  O   UNL     1       8.515  -3.818  -0.012  1.00  0.00    -0.454 OA
ATOM     13  O   UNL     1       8.657  -4.130  -2.181  1.00  0.00    -0.454 OA
ATOM     14  C   UNL     1       9.242  -4.570  -0.973  1.00  0.00     0.468 C 
ENDBRANCH   5   6
ENDBRANCH   1   5
TORSDOF 3
ENDMDL
MODEL 3
REMARK VINA RESULT:      -6.9      1.058      1.146
REMARK SMILES CC(=O)CCc1ccc2c(c1)OCO2
REMARK SMILES IDX 4 1 2 2 1 3 3 4 5 5 6 6 7 7 11 8 8 9 10 10 9 11 12 12 14 13
REMARK SMILES IDX 13 14
REMARK H PARENT
REMARK Flexibility Score: inf
ROOT
ATOM      1  C   UNL     1       6.189   1.201   0.945  1.00  0.00     0.080 C 
ENDROOT
BRANCH   1   2
ATOM      2  C   UNL     1       5.520   0.351   1.947  1.00  0.00     0.130 C 
ATOM      3  C   UNL     1       6.296  -0.882   2.376  1.00  0.00     0.087 C 
ATOM      4  O   UNL     1       4.449   0.520   2.457  1.00  0.00    -0.300 OA
ENDBRANCH   1   2
BRANCH   1   5
ATOM      5  C   UNL     1       5.872   0.912  -0.469  1.00  0.00     0.043 C 
BRANCH   5   6
ATOM      6  C   UNL     1       6.862   0.150  -1.236  1.00  0.00    -0.044 A 
ATOM      7  C   UNL     1       7.856   0.773  -1.993  1.00  0.00     0.008 A 
ATOM      8  C   UNL     1       6.850  -1.225  -1.204  1.00  0.00     0.054 A 
ATOM      9  C   UNL     1       8.767  -0.001  -2.664  1.00  0.00     0.051 A 
ATOM     10  C   UNL     1       7.795  -1.993  -1.900  1.00  0.00     0.166 A 
ATOM     11  C   UNL     1       8.775  -1.378  -2.647  1.00  0.00     0.165 A 
ATOM     12  O   UNL     1       8.021  -3.356  -2.047  1.00  0.00    -0.454 OA
ATOM     13  O   UNL     1       9.579  -2.364  -3.234  1.00  0.00    -0.454 OA
ATOM     14  C   UNL     1       9.369  -3.527  -2.459  1.00  0.00     0.468 C 
ENDBRANCH   5   6
ENDBRANCH   1   5
TORSDOF 3
ENDMDL
MODEL 4
REMARK VINA RESULT:      -6.8      1.895      2.447
REMARK SMILES CC(=O)CCc1ccc2c(c1)OCO2
REMARK SMILES IDX 4 1 2 2 1 3 3 4 5 5 6 6 7 7 11 8 8 9 10 10 9 11 12 12 14 13
REMARK SMILES IDX 13 14
REMARK H PARENT
REMARK Flexibility Score: inf
ROOT
ATOM      1  C   UNL     1       6.727   0.832   1.462  1.00  0.00     0.080 C 
ENDROOT
BRANCH   1   2
ATOM      2  C   UNL     1       5.287   1.144   1.492  1.00  0.00     0.130 C 
ATOM      3  C   UNL     1       4.804   2.092   0.408  1.00  0.00     0.087 C 
ATOM      4  O   UNL     1       4.463   0.741   2.264  1.00  0.00    -0.300 OA
ENDBRANCH   1   2
BRANCH   1   5
ATOM      5  C   UNL     1       7.384   0.917   0.141  1.00  0.00     0.043 C 
BRANCH   5   6
ATOM      6  C   UNL     1       7.654  -0.344  -0.555  1.00  0.00    -0.044 A 
ATOM      7  C   UNL     1       7.659  -0.439  -1.948  1.00  0.00     0.008 A 
ATOM      8  C   UNL     1       7.941  -1.481   0.165  1.00  0.00     0.054 A 
ATOM      9  C   UNL     1       7.946  -1.645  -2.533  1.00  0.00     0.051 A 
ATOM     10  C   UNL     1       8.232  -2.703  -0.460  1.00  0.00     0.166 A 
ATOM     11  C   UNL     1       8.237  -2.796  -1.835  1.00  0.00     0.165 A 
ATOM     12  O   UNL     1       8.549  -3.976  -0.004  1.00  0.00    -0.454 OA
ATOM     13  O   UNL     1       8.554  -4.112  -2.195  1.00  0.00    -0.454 OA
ATOM     14  C   UNL     1       9.195  -4.665  -1.065  1.00  0.00     0.468 C 
ENDBRANCH   5   6
ENDBRANCH   1   5
TORSDOF 3
ENDMDL
MODEL 5
REMARK VINA RESULT:      -6.7      1.149      1.651
REMARK SMILES CC(=O)CCc1ccc2c(c1)OCO2
REMARK SMILES IDX 4 1 2 2 1 3 3 4 5 5 6 6 7 7 11 8 8 9 10 10 9 11 12 12 14 13
REMARK SMILES IDX 13 14
REMARK H PARENT
REMARK Flexibility Score: inf
ROOT
ATOM      1  C   UNL     1       5.367  -0.057   1.954  1.00  0.00     0.080 C 
ENDROOT
BRANCH   1   2
ATOM      2  C   UNL     1       4.423   1.072   1.875  1.00  0.00     0.130 C 
ATOM      3  C   UNL     1       4.744   2.115   0.818  1.00  0.00     0.087 C 
ATOM      4  O   UNL     1       3.443   1.259   2.539  1.00  0.00    -0.300 OA
ENDBRANCH   1   2
BRANCH   1   5
ATOM      5  C   UNL     1       6.788   0.263   1.702  1.00  0.00     0.043 C 
BRANCH   5   6
ATOM      6  C   UNL     1       7.325  -0.066   0.379  1.00  0.00    -0.044 A 
ATOM      7  C   UNL     1       7.741   0.917  -0.521  1.00  0.00     0.008 A 
ATOM      8  C   UNL     1       7.459  -1.381  -0.002  1.00  0.00     0.054 A 
ATOM      9  C   UNL     1       8.259   0.536  -1.731  1.00  0.00     0.051 A 
ATOM     10  C   UNL     1       7.994  -1.743  -1.248  1.00  0.00     0.166 A 
ATOM     11  C   UNL     1       8.403  -0.773  -2.136  1.00  0.00     0.165 A 
ATOM     12  O   UNL     1       8.242  -2.953  -1.885  1.00  0.00    -0.454 OA
ATOM     13  O   UNL     1       8.892  -1.397  -3.291  1.00  0.00    -0.454 OA
ATOM     14  C   UNL     1       9.209  -2.716  -2.897  1.00  0.00     0.468 C 
ENDBRANCH   5   6
ENDBRANCH   1   5
TORSDOF 3
ENDMDL
