@<TRIPOS>MOLECULE
/home/cewinharhar/GITHUB/reincatalyze/data/processed/docking_pred/2023-May-31-1727_sub9_nm5_bs15_s42_ex16_mel10_mts10000_k50_ec075_g099_lra3e-4_lrc3e-3/d4292dbdc665c4d20b6271b363b9823f318ec372_ligand_9.pdbqt
 14 15 0 0 0
SMALL
GASTEIGER

@<TRIPOS>ATOM
      1  C          6.7270    0.8320    1.4620 C.3     1  UNL1        0.0800
      2  C          5.2870    1.1440    1.4920 C.2     1  UNL1        0.1300
      3  C          4.8040    2.0920    0.4080 C.3     1  UNL1        0.0870
      4  O          4.4630    0.7410    2.2640 O.2     1  UNL1       -0.3000
      5  C          7.3840    0.9170    0.1410 C.3     1  UNL1        0.0430
      6  C          7.6540   -0.3440   -0.5550 C.2     1  UNL1       -0.0440
      7  C          7.6590   -0.4390   -1.9480 C.2     1  UNL1        0.0080
      8  C          7.9410   -1.4810    0.1650 C.2     1  UNL1        0.0540
      9  C          7.9460   -1.6450   -2.5330 C.2     1  UNL1        0.0510
     10  C          8.2320   -2.7030   -0.4600 C.2     1  UNL1        0.1660
     11  C          8.2370   -2.7960   -1.8350 C.2     1  UNL1        0.1650
     12  O          8.5490   -3.9760   -0.0040 O.2     1  UNL1       -0.4540
     13  O          8.5540   -4.1120   -2.1950 O.2     1  UNL1       -0.4540
     14  C          9.1950   -4.6650   -1.0650 C.3     1  UNL1        0.4680
@<TRIPOS>BOND
     1     9     7    1
     2     9    11    2
     3    13    11    1
     4    13    14    1
     5     7     6    2
     6    11    10    1
     7    14    12    1
     8     6     5    1
     9     6     8    1
    10    10    12    1
    11    10     8    2
    12     5     1    1
    13     3     2    1
    14     1     2    1
    15     2     4    2
