@<TRIPOS>MOLECULE
/home/cewinharhar/GITHUB/reincatalyze/data/processed/docking_pred/2023-May-31-1727_sub9_nm5_bs15_s42_ex16_mel10_mts10000_k50_ec075_g099_lra3e-4_lrc3e-3/d4c602a3745b48528a2ec664cc6a2c0711254731_ligand_9.pdbqt
 14 15 0 0 0
SMALL
GASTEIGER

@<TRIPOS>ATOM
      1  C          6.2190    1.2020    0.8550 C.3     1  UNL1        0.0800
      2  C          5.5750    0.3750    1.8930 C.2     1  UNL1        0.1300
      3  C          6.3720   -0.8370    2.3460 C.3     1  UNL1        0.0870
      4  O          4.5100    0.5480    2.4140 O.2     1  UNL1       -0.3000
      5  C          5.8970    0.8560   -0.5450 C.3     1  UNL1        0.0430
      6  C          6.9060    0.1070   -1.3000 C.2     1  UNL1       -0.0440
      7  C          7.9130    0.7420   -2.0280 C.2     1  UNL1        0.0080
      8  C          6.8970   -1.2680   -1.2840 C.2     1  UNL1        0.0540
      9  C          8.8400   -0.0210   -2.6890 C.2     1  UNL1        0.0510
     10  C          7.8590   -2.0250   -1.9690 C.2     1  UNL1        0.1660
     11  C          8.8530   -1.3980   -2.6880 C.2     1  UNL1        0.1650
     12  O          8.0930   -3.3860   -2.1270 O.2     1  UNL1       -0.4540
     13  O          9.6720   -2.3750   -3.2690 O.2     1  UNL1       -0.4540
     14  C          9.4500   -3.5470   -2.5130 C.3     1  UNL1        0.4680
@<TRIPOS>BOND
     1    13    11    1
     2    13    14    1
     3     9    11    2
     4     9     7    1
     5    11    10    1
     6    14    12    1
     7    12    10    1
     8     7     6    2
     9    10     8    2
    10     6     8    1
    11     6     5    1
    12     5     1    1
    13     1     2    1
    14     2     3    1
    15     2     4    2
