MODEL 1
REMARK VINA RESULT:      -7.7      0.000      0.000
REMARK SMILES CC(=O)CCc1ccc2c(c1)OCO2
REMARK SMILES IDX 4 1 2 2 1 3 3 4 5 5 6 6 7 7 11 8 8 9 10 10 9 11 12 12 14 13
REMARK SMILES IDX 13 14
REMARK H PARENT
REMARK Flexibility Score: inf
ROOT
ATOM      1  C   UNL     1       5.491   1.912   1.165  1.00  0.00     0.080 C 
ENDROOT
BRANCH   1   2
ATOM      2  C   UNL     1       5.026   0.774   1.977  1.00  0.00     0.130 C 
ATOM      3  C   UNL     1       6.022  -0.363   2.135  1.00  0.00     0.087 C 
ATOM      4  O   UNL     1       3.966   0.643   2.521  1.00  0.00    -0.300 OA
ENDBRANCH   1   2
BRANCH   1   5
ATOM      5  C   UNL     1       5.479   1.716  -0.300  1.00  0.00     0.043 C 
BRANCH   5   6
ATOM      6  C   UNL     1       6.604   0.983  -0.888  1.00  0.00    -0.044 A 
ATOM      7  C   UNL     1       7.931   1.348  -0.656  1.00  0.00     0.008 A 
ATOM      8  C   UNL     1       6.371  -0.120  -1.675  1.00  0.00     0.054 A 
ATOM      9  C   UNL     1       8.935   0.601  -1.216  1.00  0.00     0.051 A 
ATOM     10  C   UNL     1       7.418  -0.867  -2.236  1.00  0.00     0.166 A 
ATOM     11  C   UNL     1       8.728  -0.507  -2.008  1.00  0.00     0.165 A 
ATOM     12  O   UNL     1       7.483  -1.994  -3.047  1.00  0.00    -0.454 OA
ATOM     13  O   UNL     1       9.566  -1.409  -2.675  1.00  0.00    -0.454 OA
ATOM     14  C   UNL     1       8.777  -2.559  -2.895  1.00  0.00     0.468 C 
ENDBRANCH   5   6
ENDBRANCH   1   5
TORSDOF 3
ENDMDL
MODEL 2
REMARK VINA RESULT:      -7.0      1.893      2.349
REMARK SMILES CC(=O)CCc1ccc2c(c1)OCO2
REMARK SMILES IDX 4 1 2 2 1 3 3 4 5 5 6 6 7 7 11 8 8 9 10 10 9 11 12 12 14 13
REMARK SMILES IDX 13 14
REMARK H PARENT
REMARK Flexibility Score: inf
ROOT
ATOM      1  C   UNL     1       5.975   1.528  -0.169  1.00  0.00     0.080 C 
ENDROOT
BRANCH   1   2
ATOM      2  C   UNL     1       5.161   1.391   1.053  1.00  0.00     0.130 C 
ATOM      3  C   UNL     1       5.474   0.176   1.909  1.00  0.00     0.087 C 
ATOM      4  O   UNL     1       4.293   2.118   1.443  1.00  0.00    -0.300 OA
ENDBRANCH   1   2
BRANCH   1   5
ATOM      5  C   UNL     1       7.359   1.015  -0.090  1.00  0.00     0.043 C 
BRANCH   5   6
ATOM      6  C   UNL     1       7.633  -0.276  -0.727  1.00  0.00    -0.044 A 
ATOM      7  C   UNL     1       7.623  -0.438  -2.114  1.00  0.00     0.008 A 
ATOM      8  C   UNL     1       7.939  -1.373   0.044  1.00  0.00     0.054 A 
ATOM      9  C   UNL     1       7.915  -1.669  -2.643  1.00  0.00     0.051 A 
ATOM     10  C   UNL     1       8.234  -2.622  -0.525  1.00  0.00     0.166 A 
ATOM     11  C   UNL     1       8.224  -2.782  -1.893  1.00  0.00     0.165 A 
ATOM     12  O   UNL     1       8.568  -3.869  -0.011  1.00  0.00    -0.454 OA
ATOM     13  O   UNL     1       8.549  -4.111  -2.193  1.00  0.00    -0.454 OA
ATOM     14  C   UNL     1       9.209  -4.602  -1.044  1.00  0.00     0.468 C 
ENDBRANCH   5   6
ENDBRANCH   1   5
TORSDOF 3
ENDMDL
MODEL 3
REMARK VINA RESULT:      -7.0      1.078      1.189
REMARK SMILES CC(=O)CCc1ccc2c(c1)OCO2
REMARK SMILES IDX 4 1 2 2 1 3 3 4 5 5 6 6 7 7 11 8 8 9 10 10 9 11 12 12 14 13
REMARK SMILES IDX 13 14
REMARK H PARENT
REMARK Flexibility Score: inf
ROOT
ATOM      1  C   UNL     1       6.219   1.202   0.855  1.00  0.00     0.080 C 
ENDROOT
BRANCH   1   2
ATOM      2  C   UNL     1       5.575   0.375   1.893  1.00  0.00     0.130 C 
ATOM      3  C   UNL     1       6.372  -0.837   2.346  1.00  0.00     0.087 C 
ATOM      4  O   UNL     1       4.510   0.548   2.414  1.00  0.00    -0.300 OA
ENDBRANCH   1   2
BRANCH   1   5
ATOM      5  C   UNL     1       5.897   0.856  -0.545  1.00  0.00     0.043 C 
BRANCH   5   6
ATOM      6  C   UNL     1       6.906   0.107  -1.300  1.00  0.00    -0.044 A 
ATOM      7  C   UNL     1       7.913   0.742  -2.028  1.00  0.00     0.008 A 
ATOM      8  C   UNL     1       6.897  -1.268  -1.284  1.00  0.00     0.054 A 
ATOM      9  C   UNL     1       8.840  -0.021  -2.689  1.00  0.00     0.051 A 
ATOM     10  C   UNL     1       7.859  -2.025  -1.969  1.00  0.00     0.166 A 
ATOM     11  C   UNL     1       8.853  -1.398  -2.688  1.00  0.00     0.165 A 
ATOM     12  O   UNL     1       8.093  -3.386  -2.127  1.00  0.00    -0.454 OA
ATOM     13  O   UNL     1       9.672  -2.375  -3.269  1.00  0.00    -0.454 OA
ATOM     14  C   UNL     1       9.450  -3.547  -2.513  1.00  0.00     0.468 C 
ENDBRANCH   5   6
ENDBRANCH   1   5
TORSDOF 3
ENDMDL
MODEL 4
REMARK VINA RESULT:      -6.8      1.174      1.667
REMARK SMILES CC(=O)CCc1ccc2c(c1)OCO2
REMARK SMILES IDX 4 1 2 2 1 3 3 4 5 5 6 6 7 7 11 8 8 9 10 10 9 11 12 12 14 13
REMARK SMILES IDX 13 14
REMARK H PARENT
REMARK Flexibility Score: inf
ROOT
ATOM      1  C   UNL     1       5.362  -0.050   1.958  1.00  0.00     0.080 C 
ENDROOT
BRANCH   1   2
ATOM      2  C   UNL     1       4.409   1.070   1.859  1.00  0.00     0.130 C 
ATOM      3  C   UNL     1       4.737   2.111   0.802  1.00  0.00     0.087 C 
ATOM      4  O   UNL     1       3.418   1.252   2.507  1.00  0.00    -0.300 OA
ENDBRANCH   1   2
BRANCH   1   5
ATOM      5  C   UNL     1       6.781   0.277   1.703  1.00  0.00     0.043 C 
BRANCH   5   6
ATOM      6  C   UNL     1       7.318  -0.058   0.381  1.00  0.00    -0.044 A 
ATOM      7  C   UNL     1       7.735   0.920  -0.523  1.00  0.00     0.008 A 
ATOM      8  C   UNL     1       7.453  -1.375   0.006  1.00  0.00     0.054 A 
ATOM      9  C   UNL     1       8.254   0.534  -1.731  1.00  0.00     0.051 A 
ATOM     10  C   UNL     1       7.987  -1.743  -1.238  1.00  0.00     0.166 A 
ATOM     11  C   UNL     1       8.398  -0.777  -2.130  1.00  0.00     0.165 A 
ATOM     12  O   UNL     1       8.236  -2.956  -1.868  1.00  0.00    -0.454 OA
ATOM     13  O   UNL     1       8.887  -1.407  -3.282  1.00  0.00    -0.454 OA
ATOM     14  C   UNL     1       9.204  -2.723  -2.881  1.00  0.00     0.468 C 
ENDBRANCH   5   6
ENDBRANCH   1   5
TORSDOF 3
ENDMDL
MODEL 5
REMARK VINA RESULT:      -6.7      2.028      2.562
REMARK SMILES CC(=O)CCc1ccc2c(c1)OCO2
REMARK SMILES IDX 4 1 2 2 1 3 3 4 5 5 6 6 7 7 11 8 8 9 10 10 9 11 12 12 14 13
REMARK SMILES IDX 13 14
REMARK H PARENT
REMARK Flexibility Score: inf
ROOT
ATOM      1  C   UNL     1       5.750   0.250   1.892  1.00  0.00     0.080 C 
ENDROOT
BRANCH   1   2
ATOM      2  C   UNL     1       4.787   1.303   1.522  1.00  0.00     0.130 C 
ATOM      3  C   UNL     1       5.158   2.121   0.297  1.00  0.00     0.087 C 
ATOM      4  O   UNL     1       3.759   1.585   2.069  1.00  0.00    -0.300 OA
ENDBRANCH   1   2
BRANCH   1   5
ATOM      5  C   UNL     1       7.088   0.343   1.272  1.00  0.00     0.043 C 
BRANCH   5   6
ATOM      6  C   UNL     1       7.445  -0.683   0.288  1.00  0.00    -0.044 A 
ATOM      7  C   UNL     1       7.378  -0.450  -1.086  1.00  0.00     0.008 A 
ATOM      8  C   UNL     1       7.889  -1.915   0.709  1.00  0.00     0.054 A 
ATOM      9  C   UNL     1       7.753  -1.447  -1.950  1.00  0.00     0.051 A 
ATOM     10  C   UNL     1       8.267  -2.917  -0.197  1.00  0.00     0.166 A 
ATOM     11  C   UNL     1       8.200  -2.688  -1.554  1.00  0.00     0.165 A 
ATOM     12  O   UNL     1       8.739  -4.218  -0.067  1.00  0.00    -0.454 OA
ATOM     13  O   UNL     1       8.629  -3.840  -2.227  1.00  0.00    -0.454 OA
ATOM     14  C   UNL     1       9.389  -4.563  -1.281  1.00  0.00     0.468 C 
ENDBRANCH   5   6
ENDBRANCH   1   5
TORSDOF 3
ENDMDL
