@<TRIPOS>MOLECULE
/home/cewinharhar/GITHUB/reincatalyze/data/processed/docking_pred/2023-May-31-1727_sub9_nm5_bs15_s42_ex16_mel10_mts10000_k50_ec075_g099_lra3e-4_lrc3e-3/d4c602a3745b48528a2ec664cc6a2c0711254731_ligand_9.pdbqt
 14 15 0 0 0
SMALL
GASTEIGER

@<TRIPOS>ATOM
      1  C          5.4910    1.9120    1.1650 C.3     1  UNL1        0.0800
      2  C          5.0260    0.7740    1.9770 C.2     1  UNL1        0.1300
      3  C          6.0220   -0.3630    2.1350 C.3     1  UNL1        0.0870
      4  O          3.9660    0.6430    2.5210 O.2     1  UNL1       -0.3000
      5  C          5.4790    1.7160   -0.3000 C.3     1  UNL1        0.0430
      6  C          6.6040    0.9830   -0.8880 C.2     1  UNL1       -0.0440
      7  C          7.9310    1.3480   -0.6560 C.2     1  UNL1        0.0080
      8  C          6.3710   -0.1200   -1.6750 C.2     1  UNL1        0.0540
      9  C          8.9350    0.6010   -1.2160 C.2     1  UNL1        0.0510
     10  C          7.4180   -0.8670   -2.2360 C.2     1  UNL1        0.1660
     11  C          8.7280   -0.5070   -2.0080 C.2     1  UNL1        0.1650
     12  O          7.4830   -1.9940   -3.0470 O.2     1  UNL1       -0.4540
     13  O          9.5660   -1.4090   -2.6750 O.2     1  UNL1       -0.4540
     14  C          8.7770   -2.5590   -2.8950 C.3     1  UNL1        0.4680
@<TRIPOS>BOND
     1    12    14    1
     2    12    10    1
     3    14    13    1
     4    13    11    1
     5    10    11    2
     6    10     8    1
     7    11     9    1
     8     8     6    2
     9     9     7    2
    10     6     7    1
    11     6     5    1
    12     5     1    1
    13     1     2    1
    14     2     3    1
    15     2     4    2
