@<TRIPOS>MOLECULE
/home/cewinharhar/GITHUB/reincatalyze/data/processed/docking_pred/2023-May-31-1727_sub9_nm5_bs15_s42_ex16_mel10_mts10000_k50_ec075_g099_lra3e-4_lrc3e-3/d4c602a3745b48528a2ec664cc6a2c0711254731_ligand_9.pdbqt
 14 15 0 0 0
SMALL
GASTEIGER

@<TRIPOS>ATOM
      1  C          5.7500    0.2500    1.8920 C.3     1  UNL1        0.0800
      2  C          4.7870    1.3030    1.5220 C.2     1  UNL1        0.1300
      3  C          5.1580    2.1210    0.2970 C.3     1  UNL1        0.0870
      4  O          3.7590    1.5850    2.0690 O.2     1  UNL1       -0.3000
      5  C          7.0880    0.3430    1.2720 C.3     1  UNL1        0.0430
      6  C          7.4450   -0.6830    0.2880 C.2     1  UNL1       -0.0440
      7  C          7.3780   -0.4500   -1.0860 C.2     1  UNL1        0.0080
      8  C          7.8890   -1.9150    0.7090 C.2     1  UNL1        0.0540
      9  C          7.7530   -1.4470   -1.9500 C.2     1  UNL1        0.0510
     10  C          8.2670   -2.9170   -0.1970 C.2     1  UNL1        0.1660
     11  C          8.2000   -2.6880   -1.5540 C.2     1  UNL1        0.1650
     12  O          8.7390   -4.2180   -0.0670 O.2     1  UNL1       -0.4540
     13  O          8.6290   -3.8400   -2.2270 O.2     1  UNL1       -0.4540
     14  C          9.3890   -4.5630   -1.2810 C.3     1  UNL1        0.4680
@<TRIPOS>BOND
     1    13    11    1
     2    13    14    1
     3     9    11    2
     4     9     7    1
     5    11    10    1
     6    14    12    1
     7     7     6    2
     8    10    12    1
     9    10     8    2
    10     6     8    1
    11     6     5    1
    12     3     2    1
    13     5     1    1
    14     2     1    1
    15     2     4    2
