MODEL 1
REMARK VINA RESULT:      -7.7      0.000      0.000
REMARK SMILES CC(=O)CCc1ccc2c(c1)OCO2
REMARK SMILES IDX 4 1 2 2 1 3 3 4 5 5 6 6 7 7 11 8 8 9 10 10 9 11 12 12 14 13
REMARK SMILES IDX 13 14
REMARK H PARENT
REMARK Flexibility Score: inf
ROOT
ATOM      1  C   UNL     1       5.499   1.911   1.194  1.00  0.00     0.080 C 
ENDROOT
BRANCH   1   2
ATOM      2  C   UNL     1       5.016   0.770   1.993  1.00  0.00     0.130 C 
ATOM      3  C   UNL     1       6.003  -0.375   2.153  1.00  0.00     0.087 C 
ATOM      4  O   UNL     1       3.950   0.642   2.523  1.00  0.00    -0.300 OA
ENDBRANCH   1   2
BRANCH   1   5
ATOM      5  C   UNL     1       5.486   1.732  -0.273  1.00  0.00     0.043 C 
BRANCH   5   6
ATOM      6  C   UNL     1       6.604   0.994  -0.868  1.00  0.00    -0.044 A 
ATOM      7  C   UNL     1       7.934   1.361  -0.657  1.00  0.00     0.008 A 
ATOM      8  C   UNL     1       6.362  -0.117  -1.641  1.00  0.00     0.054 A 
ATOM      9  C   UNL     1       8.931   0.609  -1.222  1.00  0.00     0.051 A 
ATOM     10  C   UNL     1       7.402  -0.870  -2.208  1.00  0.00     0.166 A 
ATOM     11  C   UNL     1       8.715  -0.507  -2.000  1.00  0.00     0.165 A 
ATOM     12  O   UNL     1       7.456  -2.004  -3.009  1.00  0.00    -0.454 OA
ATOM     13  O   UNL     1       9.544  -1.415  -2.670  1.00  0.00    -0.454 OA
ATOM     14  C   UNL     1       8.752  -2.568  -2.868  1.00  0.00     0.468 C 
ENDBRANCH   5   6
ENDBRANCH   1   5
TORSDOF 3
ENDMDL
MODEL 2
REMARK VINA RESULT:      -7.0      1.842      2.327
REMARK SMILES CC(=O)CCc1ccc2c(c1)OCO2
REMARK SMILES IDX 4 1 2 2 1 3 3 4 5 5 6 6 7 7 11 8 8 9 10 10 9 11 12 12 14 13
REMARK SMILES IDX 13 14
REMARK H PARENT
REMARK Flexibility Score: inf
ROOT
ATOM      1  C   UNL     1       5.750   1.477  -0.345  1.00  0.00     0.080 C 
ENDROOT
BRANCH   1   2
ATOM      2  C   UNL     1       5.019   1.413   0.934  1.00  0.00     0.130 C 
ATOM      3  C   UNL     1       5.416   0.270   1.853  1.00  0.00     0.087 C 
ATOM      4  O   UNL     1       4.160   2.150   1.327  1.00  0.00    -0.300 OA
ENDBRANCH   1   2
BRANCH   1   5
ATOM      5  C   UNL     1       7.168   1.062  -0.306  1.00  0.00     0.043 C 
BRANCH   5   6
ATOM      6  C   UNL     1       7.501  -0.242  -0.887  1.00  0.00    -0.044 A 
ATOM      7  C   UNL     1       7.509  -0.462  -2.265  1.00  0.00     0.008 A 
ATOM      8  C   UNL     1       7.849  -1.292  -0.069  1.00  0.00     0.054 A 
ATOM      9  C   UNL     1       7.857  -1.699  -2.741  1.00  0.00     0.051 A 
ATOM     10  C   UNL     1       8.201  -2.549  -0.583  1.00  0.00     0.166 A 
ATOM     11  C   UNL     1       8.208  -2.766  -1.944  1.00  0.00     0.165 A 
ATOM     12  O   UNL     1       8.585  -3.758  -0.016  1.00  0.00    -0.454 OA
ATOM     13  O   UNL     1       8.592  -4.091  -2.186  1.00  0.00    -0.454 OA
ATOM     14  C   UNL     1       9.264  -4.505  -1.015  1.00  0.00     0.468 C 
ENDBRANCH   5   6
ENDBRANCH   1   5
TORSDOF 3
ENDMDL
MODEL 3
REMARK VINA RESULT:      -7.0      1.222      1.375
REMARK SMILES CC(=O)CCc1ccc2c(c1)OCO2
REMARK SMILES IDX 4 1 2 2 1 3 3 4 5 5 6 6 7 7 11 8 8 9 10 10 9 11 12 12 14 13
REMARK SMILES IDX 13 14
REMARK H PARENT
REMARK Flexibility Score: inf
ROOT
ATOM      1  C   UNL     1       6.338   1.144   0.917  1.00  0.00     0.080 C 
ENDROOT
BRANCH   1   2
ATOM      2  C   UNL     1       5.575   0.395   1.933  1.00  0.00     0.130 C 
ATOM      3  C   UNL     1       6.265  -0.842   2.482  1.00  0.00     0.087 C 
ATOM      4  O   UNL     1       4.488   0.646   2.369  1.00  0.00    -0.300 OA
ENDBRANCH   1   2
BRANCH   1   5
ATOM      5  C   UNL     1       5.963   0.898  -0.491  1.00  0.00     0.043 C 
BRANCH   5   6
ATOM      6  C   UNL     1       6.874   0.078  -1.294  1.00  0.00    -0.044 A 
ATOM      7  C   UNL     1       7.607   0.605  -2.359  1.00  0.00     0.008 A 
ATOM      8  C   UNL     1       7.051  -1.252  -0.991  1.00  0.00     0.054 A 
ATOM      9  C   UNL     1       8.462  -0.215  -3.049  1.00  0.00     0.051 A 
ATOM     10  C   UNL     1       7.933  -2.068  -1.715  1.00  0.00     0.166 A 
ATOM     11  C   UNL     1       8.656  -1.549  -2.766  1.00  0.00     0.165 A 
ATOM     12  O   UNL     1       8.305  -3.405  -1.638  1.00  0.00    -0.454 OA
ATOM     13  O   UNL     1       9.452  -2.564  -3.311  1.00  0.00    -0.454 OA
ATOM     14  C   UNL     1       9.556  -3.542  -2.297  1.00  0.00     0.468 C 
ENDBRANCH   5   6
ENDBRANCH   1   5
TORSDOF 3
ENDMDL
MODEL 4
REMARK VINA RESULT:      -6.8      1.973      2.521
REMARK SMILES CC(=O)CCc1ccc2c(c1)OCO2
REMARK SMILES IDX 4 1 2 2 1 3 3 4 5 5 6 6 7 7 11 8 8 9 10 10 9 11 12 12 14 13
REMARK SMILES IDX 13 14
REMARK H PARENT
REMARK Flexibility Score: inf
ROOT
ATOM      1  C   UNL     1       5.656   0.103   1.979  1.00  0.00     0.080 C 
ENDROOT
BRANCH   1   2
ATOM      2  C   UNL     1       4.664   1.156   1.693  1.00  0.00     0.130 C 
ATOM      3  C   UNL     1       5.007   2.074   0.533  1.00  0.00     0.087 C 
ATOM      4  O   UNL     1       3.631   1.367   2.263  1.00  0.00    -0.300 OA
ENDBRANCH   1   2
BRANCH   1   5
ATOM      5  C   UNL     1       6.981   0.268   1.346  1.00  0.00     0.043 C 
BRANCH   5   6
ATOM      6  C   UNL     1       7.366  -0.717   0.332  1.00  0.00    -0.044 A 
ATOM      7  C   UNL     1       7.314  -0.436  -1.035  1.00  0.00     0.008 A 
ATOM      8  C   UNL     1       7.825  -1.956   0.713  1.00  0.00     0.054 A 
ATOM      9  C   UNL     1       7.716  -1.395  -1.928  1.00  0.00     0.051 A 
ATOM     10  C   UNL     1       8.230  -2.919  -0.223  1.00  0.00     0.166 A 
ATOM     11  C   UNL     1       8.178  -2.643  -1.571  1.00  0.00     0.165 A 
ATOM     12  O   UNL     1       8.721  -4.216  -0.132  1.00  0.00    -0.454 OA
ATOM     13  O   UNL     1       8.634  -3.763  -2.278  1.00  0.00    -0.454 OA
ATOM     14  C   UNL     1       9.393  -4.508  -1.349  1.00  0.00     0.468 C 
ENDBRANCH   5   6
ENDBRANCH   1   5
TORSDOF 3
ENDMDL
MODEL 5
REMARK VINA RESULT:      -6.8      1.184      1.682
REMARK SMILES CC(=O)CCc1ccc2c(c1)OCO2
REMARK SMILES IDX 4 1 2 2 1 3 3 4 5 5 6 6 7 7 11 8 8 9 10 10 9 11 12 12 14 13
REMARK SMILES IDX 13 14
REMARK H PARENT
REMARK Flexibility Score: inf
ROOT
ATOM      1  C   UNL     1       5.367  -0.090   1.922  1.00  0.00     0.080 C 
ENDROOT
BRANCH   1   2
ATOM      2  C   UNL     1       4.448   1.061   1.859  1.00  0.00     0.130 C 
ATOM      3  C   UNL     1       4.798   2.115   0.823  1.00  0.00     0.087 C 
ATOM      4  O   UNL     1       3.469   1.258   2.522  1.00  0.00    -0.300 OA
ENDBRANCH   1   2
BRANCH   1   5
ATOM      5  C   UNL     1       6.795   0.202   1.678  1.00  0.00     0.043 C 
BRANCH   5   6
ATOM      6  C   UNL     1       7.332  -0.135   0.357  1.00  0.00    -0.044 A 
ATOM      7  C   UNL     1       7.728   0.843  -0.557  1.00  0.00     0.008 A 
ATOM      8  C   UNL     1       7.488  -1.452  -0.007  1.00  0.00     0.054 A 
ATOM      9  C   UNL     1       8.247   0.455  -1.765  1.00  0.00     0.051 A 
ATOM     10  C   UNL     1       8.023  -1.821  -1.251  1.00  0.00     0.166 A 
ATOM     11  C   UNL     1       8.412  -0.856  -2.153  1.00  0.00     0.165 A 
ATOM     12  O   UNL     1       8.289  -3.035  -1.873  1.00  0.00    -0.454 OA
ATOM     13  O   UNL     1       8.906  -1.486  -3.302  1.00  0.00    -0.454 OA
ATOM     14  C   UNL     1       9.248  -2.794  -2.892  1.00  0.00     0.468 C 
ENDBRANCH   5   6
ENDBRANCH   1   5
TORSDOF 3
ENDMDL
