@<TRIPOS>MOLECULE
/home/cewinharhar/GITHUB/reincatalyze/data/processed/docking_pred/2023-May-31-1727_sub9_nm5_bs15_s42_ex16_mel10_mts10000_k50_ec075_g099_lra3e-4_lrc3e-3/d6fa7c89c21ca11aa73af88b15ecc664e93337c3_ligand_9.pdbqt
 14 15 0 0 0
SMALL
GASTEIGER

@<TRIPOS>ATOM
      1  C          6.3380    1.1440    0.9170 C.3     1  UNL1        0.0800
      2  C          5.5750    0.3950    1.9330 C.2     1  UNL1        0.1300
      3  C          6.2650   -0.8420    2.4820 C.3     1  UNL1        0.0870
      4  O          4.4880    0.6460    2.3690 O.2     1  UNL1       -0.3000
      5  C          5.9630    0.8980   -0.4910 C.3     1  UNL1        0.0430
      6  C          6.8740    0.0780   -1.2940 C.2     1  UNL1       -0.0440
      7  C          7.6070    0.6050   -2.3590 C.2     1  UNL1        0.0080
      8  C          7.0510   -1.2520   -0.9910 C.2     1  UNL1        0.0540
      9  C          8.4620   -0.2150   -3.0490 C.2     1  UNL1        0.0510
     10  C          7.9330   -2.0680   -1.7150 C.2     1  UNL1        0.1660
     11  C          8.6560   -1.5490   -2.7660 C.2     1  UNL1        0.1650
     12  O          8.3050   -3.4050   -1.6380 O.2     1  UNL1       -0.4540
     13  O          9.4520   -2.5640   -3.3110 O.2     1  UNL1       -0.4540
     14  C          9.5560   -3.5420   -2.2970 C.3     1  UNL1        0.4680
@<TRIPOS>BOND
     1    13    11    1
     2    13    14    1
     3     9    11    2
     4     9     7    1
     5    11    10    1
     6     7     6    2
     7    14    12    1
     8    10    12    1
     9    10     8    2
    10     6     8    1
    11     6     5    1
    12     5     1    1
    13     1     2    1
    14     2     4    2
    15     2     3    1
