@<TRIPOS>MOLECULE
/home/cewinharhar/GITHUB/reincatalyze/data/processed/docking_pred/2023-May-31-1727_sub9_nm5_bs15_s42_ex16_mel10_mts10000_k50_ec075_g099_lra3e-4_lrc3e-3/d6fa7c89c21ca11aa73af88b15ecc664e93337c3_ligand_9.pdbqt
 14 15 0 0 0
SMALL
GASTEIGER

@<TRIPOS>ATOM
      1  C          5.4990    1.9110    1.1940 C.3     1  UNL1        0.0800
      2  C          5.0160    0.7700    1.9930 C.2     1  UNL1        0.1300
      3  C          6.0030   -0.3750    2.1530 C.3     1  UNL1        0.0870
      4  O          3.9500    0.6420    2.5230 O.2     1  UNL1       -0.3000
      5  C          5.4860    1.7320   -0.2730 C.3     1  UNL1        0.0430
      6  C          6.6040    0.9940   -0.8680 C.2     1  UNL1       -0.0440
      7  C          7.9340    1.3610   -0.6570 C.2     1  UNL1        0.0080
      8  C          6.3620   -0.1170   -1.6410 C.2     1  UNL1        0.0540
      9  C          8.9310    0.6090   -1.2220 C.2     1  UNL1        0.0510
     10  C          7.4020   -0.8700   -2.2080 C.2     1  UNL1        0.1660
     11  C          8.7150   -0.5070   -2.0000 C.2     1  UNL1        0.1650
     12  O          7.4560   -2.0040   -3.0090 O.2     1  UNL1       -0.4540
     13  O          9.5440   -1.4150   -2.6700 O.2     1  UNL1       -0.4540
     14  C          8.7520   -2.5680   -2.8680 C.3     1  UNL1        0.4680
@<TRIPOS>BOND
     1    12    14    1
     2    12    10    1
     3    14    13    1
     4    13    11    1
     5    10    11    2
     6    10     8    1
     7    11     9    1
     8     8     6    2
     9     9     7    2
    10     6     7    1
    11     6     5    1
    12     5     1    1
    13     1     2    1
    14     2     3    1
    15     2     4    2
