@<TRIPOS>MOLECULE
/home/cewinharhar/GITHUB/reincatalyze/data/processed/docking_pred/2023-May-31-1727_sub9_nm5_bs15_s42_ex16_mel10_mts10000_k50_ec075_g099_lra3e-4_lrc3e-3/d6fa7c89c21ca11aa73af88b15ecc664e93337c3_ligand_9.pdbqt
 14 15 0 0 0
SMALL
GASTEIGER

@<TRIPOS>ATOM
      1  C          5.7500    1.4770   -0.3450 C.3     1  UNL1        0.0800
      2  C          5.0190    1.4130    0.9340 C.2     1  UNL1        0.1300
      3  C          5.4160    0.2700    1.8530 C.3     1  UNL1        0.0870
      4  O          4.1600    2.1500    1.3270 O.2     1  UNL1       -0.3000
      5  C          7.1680    1.0620   -0.3060 C.3     1  UNL1        0.0430
      6  C          7.5010   -0.2420   -0.8870 C.2     1  UNL1       -0.0440
      7  C          7.5090   -0.4620   -2.2650 C.2     1  UNL1        0.0080
      8  C          7.8490   -1.2920   -0.0690 C.2     1  UNL1        0.0540
      9  C          7.8570   -1.6990   -2.7410 C.2     1  UNL1        0.0510
     10  C          8.2010   -2.5490   -0.5830 C.2     1  UNL1        0.1660
     11  C          8.2080   -2.7660   -1.9440 C.2     1  UNL1        0.1650
     12  O          8.5850   -3.7580   -0.0160 O.2     1  UNL1       -0.4540
     13  O          8.5920   -4.0910   -2.1860 O.2     1  UNL1       -0.4540
     14  C          9.2640   -4.5050   -1.0150 C.3     1  UNL1        0.4680
@<TRIPOS>BOND
     1     9     7    1
     2     9    11    2
     3     7     6    2
     4    13    11    1
     5    13    14    1
     6    11    10    1
     7    14    12    1
     8     6     5    1
     9     6     8    1
    10    10     8    2
    11    10    12    1
    12     1     5    1
    13     1     2    1
    14     2     4    2
    15     2     3    1
