@<TRIPOS>MOLECULE
/home/cewinharhar/GITHUB/reincatalyze/data/processed/docking_pred/2023-May-31-1727_sub9_nm5_bs15_s42_ex16_mel10_mts10000_k50_ec075_g099_lra3e-4_lrc3e-3/d6fa7c89c21ca11aa73af88b15ecc664e93337c3_ligand_9.pdbqt
 14 15 0 0 0
SMALL
GASTEIGER

@<TRIPOS>ATOM
      1  C          5.3670   -0.0900    1.9220 C.3     1  UNL1        0.0800
      2  C          4.4480    1.0610    1.8590 C.2     1  UNL1        0.1300
      3  C          4.7980    2.1150    0.8230 C.3     1  UNL1        0.0870
      4  O          3.4690    1.2580    2.5220 O.2     1  UNL1       -0.3000
      5  C          6.7950    0.2020    1.6780 C.3     1  UNL1        0.0430
      6  C          7.3320   -0.1350    0.3570 C.2     1  UNL1       -0.0440
      7  C          7.7280    0.8430   -0.5570 C.2     1  UNL1        0.0080
      8  C          7.4880   -1.4520   -0.0070 C.2     1  UNL1        0.0540
      9  C          8.2470    0.4550   -1.7650 C.2     1  UNL1        0.0510
     10  C          8.0230   -1.8210   -1.2510 C.2     1  UNL1        0.1660
     11  C          8.4120   -0.8560   -2.1530 C.2     1  UNL1        0.1650
     12  O          8.2890   -3.0350   -1.8730 O.2     1  UNL1       -0.4540
     13  O          8.9060   -1.4860   -3.3020 O.2     1  UNL1       -0.4540
     14  C          9.2480   -2.7940   -2.8920 C.3     1  UNL1        0.4680
@<TRIPOS>BOND
     1    13    14    1
     2    13    11    1
     3    14    12    1
     4    11     9    2
     5    11    10    1
     6    12    10    1
     7     9     7    1
     8    10     8    2
     9     7     6    2
    10     8     6    1
    11     6     5    1
    12     3     2    1
    13     5     1    1
    14     2     1    1
    15     2     4    2
