MODEL 1
REMARK VINA RESULT:      -7.7      0.000      0.000
REMARK SMILES CC(=O)CCc1ccc2c(c1)OCO2
REMARK SMILES IDX 4 1 2 2 1 3 3 4 5 5 6 6 7 7 11 8 8 9 10 10 9 11 12 12 14 13
REMARK SMILES IDX 13 14
REMARK H PARENT
REMARK Flexibility Score: inf
ROOT
ATOM      1  C   UNL     1       5.529   1.886   1.229  1.00  0.00     0.080 C 
ENDROOT
BRANCH   1   2
ATOM      2  C   UNL     1       4.993   0.749   2.000  1.00  0.00     0.130 C 
ATOM      3  C   UNL     1       5.911  -0.458   2.101  1.00  0.00     0.087 C 
ATOM      4  O   UNL     1       3.932   0.667   2.549  1.00  0.00    -0.300 OA
ENDBRANCH   1   2
BRANCH   1   5
ATOM      5  C   UNL     1       5.518   1.738  -0.242  1.00  0.00     0.043 C 
BRANCH   5   6
ATOM      6  C   UNL     1       6.628   0.999  -0.849  1.00  0.00    -0.044 A 
ATOM      7  C   UNL     1       7.959   1.380  -0.676  1.00  0.00     0.008 A 
ATOM      8  C   UNL     1       6.377  -0.127  -1.598  1.00  0.00     0.054 A 
ATOM      9  C   UNL     1       8.949   0.626  -1.251  1.00  0.00     0.051 A 
ATOM     10  C   UNL     1       7.409  -0.881  -2.176  1.00  0.00     0.166 A 
ATOM     11  C   UNL     1       8.723  -0.505  -2.005  1.00  0.00     0.165 A 
ATOM     12  O   UNL     1       7.454  -2.029  -2.957  1.00  0.00    -0.454 OA
ATOM     13  O   UNL     1       9.545  -1.419  -2.677  1.00  0.00    -0.454 OA
ATOM     14  C   UNL     1       8.757  -2.580  -2.837  1.00  0.00     0.468 C 
ENDBRANCH   5   6
ENDBRANCH   1   5
TORSDOF 3
ENDMDL
MODEL 2
REMARK VINA RESULT:      -7.0      1.857      2.348
REMARK SMILES CC(=O)CCc1ccc2c(c1)OCO2
REMARK SMILES IDX 4 1 2 2 1 3 3 4 5 5 6 6 7 7 11 8 8 9 10 10 9 11 12 12 14 13
REMARK SMILES IDX 13 14
REMARK H PARENT
REMARK Flexibility Score: inf
ROOT
ATOM      1  C   UNL     1       5.884   1.376  -0.264  1.00  0.00     0.080 C 
ENDROOT
BRANCH   1   2
ATOM      2  C   UNL     1       5.209   1.324   1.045  1.00  0.00     0.130 C 
ATOM      3  C   UNL     1       5.459   0.063   1.855  1.00  0.00     0.087 C 
ATOM      4  O   UNL     1       4.494   2.150   1.538  1.00  0.00    -0.300 OA
ENDBRANCH   1   2
BRANCH   1   5
ATOM      5  C   UNL     1       7.309   0.984  -0.279  1.00  0.00     0.043 C 
BRANCH   5   6
ATOM      6  C   UNL     1       7.641  -0.315  -0.870  1.00  0.00    -0.044 A 
ATOM      7  C   UNL     1       7.710  -0.508  -2.250  1.00  0.00     0.008 A 
ATOM      8  C   UNL     1       7.925  -1.388  -0.058  1.00  0.00     0.054 A 
ATOM      9  C   UNL     1       8.053  -1.744  -2.734  1.00  0.00     0.051 A 
ATOM     10  C   UNL     1       8.274  -2.643  -0.580  1.00  0.00     0.166 A 
ATOM     11  C   UNL     1       8.341  -2.834  -1.943  1.00  0.00     0.165 A 
ATOM     12  O   UNL     1       8.603  -3.871  -0.020  1.00  0.00    -0.454 OA
ATOM     13  O   UNL     1       8.707  -4.163  -2.193  1.00  0.00    -0.454 OA
ATOM     14  C   UNL     1       9.312  -4.615  -1.000  1.00  0.00     0.468 C 
ENDBRANCH   5   6
ENDBRANCH   1   5
TORSDOF 3
ENDMDL
MODEL 3
REMARK VINA RESULT:      -6.8      1.159      1.641
REMARK SMILES CC(=O)CCc1ccc2c(c1)OCO2
REMARK SMILES IDX 4 1 2 2 1 3 3 4 5 5 6 6 7 7 11 8 8 9 10 10 9 11 12 12 14 13
REMARK SMILES IDX 13 14
REMARK H PARENT
REMARK Flexibility Score: inf
ROOT
ATOM      1  C   UNL     1       5.394  -0.048   1.944  1.00  0.00     0.080 C 
ENDROOT
BRANCH   1   2
ATOM      2  C   UNL     1       4.436   1.068   1.850  1.00  0.00     0.130 C 
ATOM      3  C   UNL     1       4.747   2.105   0.784  1.00  0.00     0.087 C 
ATOM      4  O   UNL     1       3.452   1.250   2.509  1.00  0.00    -0.300 OA
ENDBRANCH   1   2
BRANCH   1   5
ATOM      5  C   UNL     1       6.810   0.286   1.684  1.00  0.00     0.043 C 
BRANCH   5   6
ATOM      6  C   UNL     1       7.350  -0.062   0.367  1.00  0.00    -0.044 A 
ATOM      7  C   UNL     1       7.786   0.908  -0.538  1.00  0.00     0.008 A 
ATOM      8  C   UNL     1       7.468  -1.381  -0.002  1.00  0.00     0.054 A 
ATOM      9  C   UNL     1       8.306   0.509  -1.743  1.00  0.00     0.051 A 
ATOM     10  C   UNL     1       8.004  -1.761  -1.242  1.00  0.00     0.166 A 
ATOM     11  C   UNL     1       8.433  -0.805  -2.136  1.00  0.00     0.165 A 
ATOM     12  O   UNL     1       8.238  -2.980  -1.867  1.00  0.00    -0.454 OA
ATOM     13  O   UNL     1       8.919  -1.446  -3.283  1.00  0.00    -0.454 OA
ATOM     14  C   UNL     1       9.215  -2.766  -2.875  1.00  0.00     0.468 C 
ENDBRANCH   5   6
ENDBRANCH   1   5
TORSDOF 3
ENDMDL
MODEL 4
REMARK VINA RESULT:      -6.7      1.968      2.461
REMARK SMILES CC(=O)CCc1ccc2c(c1)OCO2
REMARK SMILES IDX 4 1 2 2 1 3 3 4 5 5 6 6 7 7 11 8 8 9 10 10 9 11 12 12 14 13
REMARK SMILES IDX 13 14
REMARK H PARENT
REMARK Flexibility Score: inf
ROOT
ATOM      1  C   UNL     1       5.972   0.302   1.840  1.00  0.00     0.080 C 
ENDROOT
BRANCH   1   2
ATOM      2  C   UNL     1       4.826   1.198   1.605  1.00  0.00     0.130 C 
ATOM      3  C   UNL     1       4.960   2.126   0.409  1.00  0.00     0.087 C 
ATOM      4  O   UNL     1       3.812   1.278   2.239  1.00  0.00    -0.300 OA
ENDBRANCH   1   2
BRANCH   1   5
ATOM      5  C   UNL     1       7.150   0.510   0.972  1.00  0.00     0.043 C 
BRANCH   5   6
ATOM      6  C   UNL     1       7.500  -0.571   0.046  1.00  0.00    -0.044 A 
ATOM      7  C   UNL     1       7.490  -0.396  -1.339  1.00  0.00     0.008 A 
ATOM      8  C   UNL     1       7.880  -1.799   0.534  1.00  0.00     0.054 A 
ATOM      9  C   UNL     1       7.855  -1.443  -2.145  1.00  0.00     0.051 A 
ATOM     10  C   UNL     1       8.249  -2.854  -0.315  1.00  0.00     0.166 A 
ATOM     11  C   UNL     1       8.239  -2.681  -1.682  1.00  0.00     0.165 A 
ATOM     12  O   UNL     1       8.666  -4.164  -0.113  1.00  0.00    -0.454 OA
ATOM     13  O   UNL     1       8.646  -3.876  -2.289  1.00  0.00    -0.454 OA
ATOM     14  C   UNL     1       9.343  -4.586  -1.287  1.00  0.00     0.468 C 
ENDBRANCH   5   6
ENDBRANCH   1   5
TORSDOF 3
ENDMDL
MODEL 5
REMARK VINA RESULT:      -6.7      2.137      2.506
REMARK SMILES CC(=O)CCc1ccc2c(c1)OCO2
REMARK SMILES IDX 4 1 2 2 1 3 3 4 5 5 6 6 7 7 11 8 8 9 10 10 9 11 12 12 14 13
REMARK SMILES IDX 13 14
REMARK H PARENT
REMARK Flexibility Score: inf
ROOT
ATOM      1  C   UNL     1       6.418   1.375   0.243  1.00  0.00     0.080 C 
ENDROOT
BRANCH   1   2
ATOM      2  C   UNL     1       5.218   1.352   1.100  1.00  0.00     0.130 C 
ATOM      3  C   UNL     1       5.118   0.169   2.047  1.00  0.00     0.087 C 
ATOM      4  O   UNL     1       4.324   2.150   1.135  1.00  0.00    -0.300 OA
ENDBRANCH   1   2
BRANCH   1   5
ATOM      5  C   UNL     1       6.462   0.374  -0.843  1.00  0.00     0.043 C 
BRANCH   5   6
ATOM      6  C   UNL     1       7.219  -0.856  -0.591  1.00  0.00    -0.044 A 
ATOM      7  C   UNL     1       7.509  -1.299   0.701  1.00  0.00     0.008 A 
ATOM      8  C   UNL     1       7.644  -1.631  -1.644  1.00  0.00     0.054 A 
ATOM      9  C   UNL     1       8.198  -2.473   0.863  1.00  0.00     0.051 A 
ATOM     10  C   UNL     1       8.347  -2.829  -1.449  1.00  0.00     0.166 A 
ATOM     11  C   UNL     1       8.634  -3.266  -0.175  1.00  0.00     0.165 A 
ATOM     12  O   UNL     1       8.886  -3.789  -2.297  1.00  0.00    -0.454 OA
ATOM     13  O   UNL     1       9.337  -4.475  -0.261  1.00  0.00    -0.454 OA
ATOM     14  C   UNL     1       9.048  -4.984  -1.547  1.00  0.00     0.468 C 
ENDBRANCH   5   6
ENDBRANCH   1   5
TORSDOF 3
ENDMDL
