MODEL 1
REMARK VINA RESULT:      -7.6      0.000      0.000
REMARK SMILES CC(=O)CCc1ccc2c(c1)OCO2
REMARK SMILES IDX 4 1 2 2 1 3 3 4 5 5 6 6 7 7 11 8 8 9 10 10 9 11 12 12 14 13
REMARK SMILES IDX 13 14
REMARK H PARENT
REMARK Flexibility Score: inf
ROOT
ATOM      1  C   UNL     1       5.635   1.798   1.268  1.00  0.00     0.080 C 
ENDROOT
BRANCH   1   2
ATOM      2  C   UNL     1       5.080   0.657   2.018  1.00  0.00     0.130 C 
ATOM      3  C   UNL     1       6.010  -0.535   2.171  1.00  0.00     0.087 C 
ATOM      4  O   UNL     1       3.994   0.562   2.515  1.00  0.00    -0.300 OA
ENDBRANCH   1   2
BRANCH   1   5
ATOM      5  C   UNL     1       5.610   1.682  -0.206  1.00  0.00     0.043 C 
BRANCH   5   6
ATOM      6  C   UNL     1       6.701   0.935  -0.838  1.00  0.00    -0.044 A 
ATOM      7  C   UNL     1       8.038   1.313  -0.705  1.00  0.00     0.008 A 
ATOM      8  C   UNL     1       6.426  -0.198  -1.569  1.00  0.00     0.054 A 
ATOM      9  C   UNL     1       9.009   0.551  -1.301  1.00  0.00     0.051 A 
ATOM     10  C   UNL     1       7.440  -0.959  -2.169  1.00  0.00     0.166 A 
ATOM     11  C   UNL     1       8.759  -0.585  -2.038  1.00  0.00     0.165 A 
ATOM     12  O   UNL     1       7.460  -2.114  -2.942  1.00  0.00    -0.454 OA
ATOM     13  O   UNL     1       9.559  -1.507  -2.726  1.00  0.00    -0.454 OA
ATOM     14  C   UNL     1       8.764  -2.668  -2.854  1.00  0.00     0.468 C 
ENDBRANCH   5   6
ENDBRANCH   1   5
TORSDOF 3
ENDMDL
MODEL 2
REMARK VINA RESULT:      -7.0      1.791      2.247
REMARK SMILES CC(=O)CCc1ccc2c(c1)OCO2
REMARK SMILES IDX 4 1 2 2 1 3 3 4 5 5 6 6 7 7 11 8 8 9 10 10 9 11 12 12 14 13
REMARK SMILES IDX 13 14
REMARK H PARENT
REMARK Flexibility Score: inf
ROOT
ATOM      1  C   UNL     1       5.796   1.476  -0.263  1.00  0.00     0.080 C 
ENDROOT
BRANCH   1   2
ATOM      2  C   UNL     1       5.078   1.381   1.021  1.00  0.00     0.130 C 
ATOM      3  C   UNL     1       5.486   0.218   1.910  1.00  0.00     0.087 C 
ATOM      4  O   UNL     1       4.221   2.107   1.440  1.00  0.00    -0.300 OA
ENDBRANCH   1   2
BRANCH   1   5
ATOM      5  C   UNL     1       7.214   1.060  -0.248  1.00  0.00     0.043 C 
BRANCH   5   6
ATOM      6  C   UNL     1       7.539  -0.237  -0.849  1.00  0.00    -0.044 A 
ATOM      7  C   UNL     1       7.580  -0.426  -2.232  1.00  0.00     0.008 A 
ATOM      8  C   UNL     1       7.843  -1.311  -0.047  1.00  0.00     0.054 A 
ATOM      9  C   UNL     1       7.918  -1.659  -2.726  1.00  0.00     0.051 A 
ATOM     10  C   UNL     1       8.186  -2.563  -0.579  1.00  0.00     0.166 A 
ATOM     11  C   UNL     1       8.226  -2.750  -1.943  1.00  0.00     0.165 A 
ATOM     12  O   UNL     1       8.531  -3.792  -0.029  1.00  0.00    -0.454 OA
ATOM     13  O   UNL     1       8.592  -4.077  -2.205  1.00  0.00    -0.454 OA
ATOM     14  C   UNL     1       9.223  -4.530  -1.026  1.00  0.00     0.468 C 
ENDBRANCH   5   6
ENDBRANCH   1   5
TORSDOF 3
ENDMDL
MODEL 3
REMARK VINA RESULT:      -7.0      1.088      1.158
REMARK SMILES CC(=O)CCc1ccc2c(c1)OCO2
REMARK SMILES IDX 4 1 2 2 1 3 3 4 5 5 6 6 7 7 11 8 8 9 10 10 9 11 12 12 14 13
REMARK SMILES IDX 13 14
REMARK H PARENT
REMARK Flexibility Score: inf
ROOT
ATOM      1  C   UNL     1       6.258   1.157   0.931  1.00  0.00     0.080 C 
ENDROOT
BRANCH   1   2
ATOM      2  C   UNL     1       5.566   0.336   1.941  1.00  0.00     0.130 C 
ATOM      3  C   UNL     1       6.337  -0.878   2.431  1.00  0.00     0.087 C 
ATOM      4  O   UNL     1       4.480   0.513   2.414  1.00  0.00    -0.300 OA
ENDBRANCH   1   2
BRANCH   1   5
ATOM      5  C   UNL     1       5.909   0.886  -0.480  1.00  0.00     0.043 C 
BRANCH   5   6
ATOM      6  C   UNL     1       6.869   0.109  -1.270  1.00  0.00    -0.044 A 
ATOM      7  C   UNL     1       7.770   0.713  -2.149  1.00  0.00     0.008 A 
ATOM      8  C   UNL     1       6.921  -1.259  -1.139  1.00  0.00     0.054 A 
ATOM      9  C   UNL     1       8.658  -0.073  -2.837  1.00  0.00     0.051 A 
ATOM     10  C   UNL     1       7.842  -2.039  -1.856  1.00  0.00     0.166 A 
ATOM     11  C   UNL     1       8.730  -1.443  -2.723  1.00  0.00     0.165 A 
ATOM     12  O   UNL     1       8.117  -3.399  -1.924  1.00  0.00    -0.454 OA
ATOM     13  O   UNL     1       9.528  -2.438  -3.303  1.00  0.00    -0.454 OA
ATOM     14  C   UNL     1       9.434  -3.546  -2.434  1.00  0.00     0.468 C 
ENDBRANCH   5   6
ENDBRANCH   1   5
TORSDOF 3
ENDMDL
MODEL 4
REMARK VINA RESULT:      -6.7      1.095      1.588
REMARK SMILES CC(=O)CCc1ccc2c(c1)OCO2
REMARK SMILES IDX 4 1 2 2 1 3 3 4 5 5 6 6 7 7 11 8 8 9 10 10 9 11 12 12 14 13
REMARK SMILES IDX 13 14
REMARK H PARENT
REMARK Flexibility Score: inf
ROOT
ATOM      1  C   UNL     1       5.335  -0.022   1.989  1.00  0.00     0.080 C 
ENDROOT
BRANCH   1   2
ATOM      2  C   UNL     1       4.388   1.101   1.869  1.00  0.00     0.130 C 
ATOM      3  C   UNL     1       4.733   2.132   0.807  1.00  0.00     0.087 C 
ATOM      4  O   UNL     1       3.390   1.293   2.504  1.00  0.00    -0.300 OA
ENDBRANCH   1   2
BRANCH   1   5
ATOM      5  C   UNL     1       6.760   0.300   1.762  1.00  0.00     0.043 C 
BRANCH   5   6
ATOM      6  C   UNL     1       7.312  -0.000   0.438  1.00  0.00    -0.044 A 
ATOM      7  C   UNL     1       7.870   0.987  -0.377  1.00  0.00     0.008 A 
ATOM      8  C   UNL     1       7.317  -1.294  -0.029  1.00  0.00     0.054 A 
ATOM      9  C   UNL     1       8.393   0.630  -1.592  1.00  0.00     0.051 A 
ATOM     10  C   UNL     1       7.859  -1.631  -1.278  1.00  0.00     0.166 A 
ATOM     11  C   UNL     1       8.410  -0.657  -2.082  1.00  0.00     0.165 A 
ATOM     12  O   UNL     1       7.999  -2.817  -1.989  1.00  0.00    -0.454 OA
ATOM     13  O   UNL     1       8.874  -1.256  -3.261  1.00  0.00    -0.454 OA
ATOM     14  C   UNL     1       9.028  -2.625  -2.948  1.00  0.00     0.468 C 
ENDBRANCH   5   6
ENDBRANCH   1   5
TORSDOF 3
ENDMDL
MODEL 5
REMARK VINA RESULT:      -6.7      1.959      2.501
REMARK SMILES CC(=O)CCc1ccc2c(c1)OCO2
REMARK SMILES IDX 4 1 2 2 1 3 3 4 5 5 6 6 7 7 11 8 8 9 10 10 9 11 12 12 14 13
REMARK SMILES IDX 13 14
REMARK H PARENT
REMARK Flexibility Score: inf
ROOT
ATOM      1  C   UNL     1       5.939  -0.051   2.181  1.00  0.00     0.080 C 
ENDROOT
BRANCH   1   2
ATOM      2  C   UNL     1       4.848   0.898   1.897  1.00  0.00     0.130 C 
ATOM      3  C   UNL     1       5.090   1.837   0.728  1.00  0.00     0.087 C 
ATOM      4  O   UNL     1       3.804   1.014   2.475  1.00  0.00    -0.300 OA
ENDBRANCH   1   2
BRANCH   1   5
ATOM      5  C   UNL     1       7.198   0.163   1.437  1.00  0.00     0.043 C 
BRANCH   5   6
ATOM      6  C   UNL     1       7.533  -0.810   0.394  1.00  0.00    -0.044 A 
ATOM      7  C   UNL     1       7.467  -0.497  -0.965  1.00  0.00     0.008 A 
ATOM      8  C   UNL     1       7.957  -2.073   0.739  1.00  0.00     0.054 A 
ATOM      9  C   UNL     1       7.822  -1.448  -1.886  1.00  0.00     0.051 A 
ATOM     10  C   UNL     1       8.314  -3.027  -0.225  1.00  0.00     0.166 A 
ATOM     11  C   UNL     1       8.248  -2.718  -1.566  1.00  0.00     0.165 A 
ATOM     12  O   UNL     1       8.765  -4.340  -0.172  1.00  0.00    -0.454 OA
ATOM     13  O   UNL     1       8.655  -3.835  -2.306  1.00  0.00    -0.454 OA
ATOM     14  C   UNL     1       9.405  -4.626  -1.407  1.00  0.00     0.468 C 
ENDBRANCH   5   6
ENDBRANCH   1   5
TORSDOF 3
ENDMDL
