@<TRIPOS>MOLECULE
/home/cewinharhar/GITHUB/reincatalyze/data/processed/docking_pred/2023-May-31-1727_sub9_nm5_bs15_s42_ex16_mel10_mts10000_k50_ec075_g099_lra3e-4_lrc3e-3/da55d276f49f8aea3f2b333b6115ea57fe53d1b0_ligand_9.pdbqt
 14 15 0 0 0
SMALL
GASTEIGER

@<TRIPOS>ATOM
      1  C          6.2580    1.1570    0.9310 C.3     1  UNL1        0.0800
      2  C          5.5660    0.3360    1.9410 C.2     1  UNL1        0.1300
      3  C          6.3370   -0.8780    2.4310 C.3     1  UNL1        0.0870
      4  O          4.4800    0.5130    2.4140 O.2     1  UNL1       -0.3000
      5  C          5.9090    0.8860   -0.4800 C.3     1  UNL1        0.0430
      6  C          6.8690    0.1090   -1.2700 C.2     1  UNL1       -0.0440
      7  C          7.7700    0.7130   -2.1490 C.2     1  UNL1        0.0080
      8  C          6.9210   -1.2590   -1.1390 C.2     1  UNL1        0.0540
      9  C          8.6580   -0.0730   -2.8370 C.2     1  UNL1        0.0510
     10  C          7.8420   -2.0390   -1.8560 C.2     1  UNL1        0.1660
     11  C          8.7300   -1.4430   -2.7230 C.2     1  UNL1        0.1650
     12  O          8.1170   -3.3990   -1.9240 O.2     1  UNL1       -0.4540
     13  O          9.5280   -2.4380   -3.3030 O.2     1  UNL1       -0.4540
     14  C          9.4340   -3.5460   -2.4340 C.3     1  UNL1        0.4680
@<TRIPOS>BOND
     1    13    11    1
     2    13    14    1
     3     9    11    2
     4     9     7    1
     5    11    10    1
     6    14    12    1
     7     7     6    2
     8    12    10    1
     9    10     8    2
    10     6     8    1
    11     6     5    1
    12     5     1    1
    13     1     2    1
    14     2     4    2
    15     2     3    1
