@<TRIPOS>MOLECULE
/home/cewinharhar/GITHUB/reincatalyze/data/processed/docking_pred/2023-May-31-1727_sub9_nm5_bs15_s42_ex16_mel10_mts10000_k50_ec075_g099_lra3e-4_lrc3e-3/da55d276f49f8aea3f2b333b6115ea57fe53d1b0_ligand_9.pdbqt
 14 15 0 0 0
SMALL
GASTEIGER

@<TRIPOS>ATOM
      1  C          5.6350    1.7980    1.2680 C.3     1  UNL1        0.0800
      2  C          5.0800    0.6570    2.0180 C.2     1  UNL1        0.1300
      3  C          6.0100   -0.5350    2.1710 C.3     1  UNL1        0.0870
      4  O          3.9940    0.5620    2.5150 O.2     1  UNL1       -0.3000
      5  C          5.6100    1.6820   -0.2060 C.3     1  UNL1        0.0430
      6  C          6.7010    0.9350   -0.8380 C.2     1  UNL1       -0.0440
      7  C          8.0380    1.3130   -0.7050 C.2     1  UNL1        0.0080
      8  C          6.4260   -0.1980   -1.5690 C.2     1  UNL1        0.0540
      9  C          9.0090    0.5510   -1.3010 C.2     1  UNL1        0.0510
     10  C          7.4400   -0.9590   -2.1690 C.2     1  UNL1        0.1660
     11  C          8.7590   -0.5850   -2.0380 C.2     1  UNL1        0.1650
     12  O          7.4600   -2.1140   -2.9420 O.2     1  UNL1       -0.4540
     13  O          9.5590   -1.5070   -2.7260 O.2     1  UNL1       -0.4540
     14  C          8.7640   -2.6680   -2.8540 C.3     1  UNL1        0.4680
@<TRIPOS>BOND
     1    12    14    1
     2    12    10    1
     3    14    13    1
     4    13    11    1
     5    10    11    2
     6    10     8    1
     7    11     9    1
     8     8     6    2
     9     9     7    2
    10     6     7    1
    11     6     5    1
    12     5     1    1
    13     1     2    1
    14     2     3    1
    15     2     4    2
