@<TRIPOS>MOLECULE
/home/cewinharhar/GITHUB/reincatalyze/data/processed/docking_pred/2023-May-31-1727_sub9_nm5_bs15_s42_ex16_mel10_mts10000_k50_ec075_g099_lra3e-4_lrc3e-3/da8cc6d1e5cd7ce525c19b897a66d3eb6c9b42e2_ligand_9.pdbqt
 14 15 0 0 0
SMALL
GASTEIGER

@<TRIPOS>ATOM
      1  C          5.3350   -0.0220    1.9890 C.3     1  UNL1        0.0800
      2  C          4.3880    1.1010    1.8690 C.2     1  UNL1        0.1300
      3  C          4.7330    2.1320    0.8070 C.3     1  UNL1        0.0870
      4  O          3.3900    1.2930    2.5040 O.2     1  UNL1       -0.3000
      5  C          6.7600    0.3000    1.7620 C.3     1  UNL1        0.0430
      6  C          7.3120   -0.0000    0.4380 C.2     1  UNL1       -0.0440
      7  C          7.8700    0.9870   -0.3770 C.2     1  UNL1        0.0080
      8  C          7.3170   -1.2940   -0.0290 C.2     1  UNL1        0.0540
      9  C          8.3930    0.6300   -1.5920 C.2     1  UNL1        0.0510
     10  C          7.8590   -1.6310   -1.2780 C.2     1  UNL1        0.1660
     11  C          8.4100   -0.6570   -2.0820 C.2     1  UNL1        0.1650
     12  O          7.9990   -2.8170   -1.9890 O.2     1  UNL1       -0.4540
     13  O          8.8740   -1.2560   -3.2610 O.2     1  UNL1       -0.4540
     14  C          9.0280   -2.6250   -2.9480 C.3     1  UNL1        0.4680
@<TRIPOS>BOND
     1    13    14    1
     2    13    11    1
     3    14    12    1
     4    11     9    2
     5    11    10    1
     6    12    10    1
     7     9     7    1
     8    10     8    2
     9     7     6    2
    10     8     6    1
    11     6     5    1
    12     3     2    1
    13     5     1    1
    14     2     1    1
    15     2     4    2
