@<TRIPOS>MOLECULE
/home/cewinharhar/GITHUB/reincatalyze/data/processed/docking_pred/2023-May-31-1727_sub9_nm5_bs15_s42_ex16_mel10_mts10000_k50_ec075_g099_lra3e-4_lrc3e-3/da8cc6d1e5cd7ce525c19b897a66d3eb6c9b42e2_ligand_9.pdbqt
 14 15 0 0 0
SMALL
GASTEIGER

@<TRIPOS>ATOM
      1  C          5.5680    1.8900    1.2290 C.3     1  UNL1        0.0800
      2  C          5.0470    0.7480    2.0030 C.2     1  UNL1        0.1300
      3  C          6.0080   -0.4170    2.1690 C.3     1  UNL1        0.0870
      4  O          3.9670    0.6340    2.5090 O.2     1  UNL1       -0.3000
      5  C          5.5510    1.7420   -0.2410 C.3     1  UNL1        0.0430
      6  C          6.6550    0.9960   -0.8520 C.2     1  UNL1       -0.0440
      7  C          7.9900    1.3610   -0.6720 C.2     1  UNL1        0.0080
      8  C          6.3940   -0.1220   -1.6100 C.2     1  UNL1        0.0540
      9  C          8.9730    0.6010   -1.2510 C.2     1  UNL1        0.0510
     10  C          7.4200   -0.8820   -2.1920 C.2     1  UNL1        0.1660
     11  C          8.7370   -0.5210   -2.0140 C.2     1  UNL1        0.1650
     12  O          7.4550   -2.0240   -2.9830 O.2     1  UNL1       -0.4540
     13  O          9.5510   -1.4380   -2.6920 O.2     1  UNL1       -0.4540
     14  C          8.7510   -2.5900   -2.8640 C.3     1  UNL1        0.4680
@<TRIPOS>BOND
     1    12    14    1
     2    12    10    1
     3    14    13    1
     4    13    11    1
     5    10    11    2
     6    10     8    1
     7    11     9    1
     8     8     6    2
     9     9     7    2
    10     6     7    1
    11     6     5    1
    12     5     1    1
    13     1     2    1
    14     2     3    1
    15     2     4    2
