@<TRIPOS>MOLECULE
/home/cewinharhar/GITHUB/reincatalyze/data/processed/docking_pred/2023-May-31-1727_sub9_nm5_bs15_s42_ex16_mel10_mts10000_k50_ec075_g099_lra3e-4_lrc3e-3/db57195a81496af8cffcd6b4d9524a1fe0637e4f_ligand_9.pdbqt
 14 15 0 0 0
SMALL
GASTEIGER

@<TRIPOS>ATOM
      1  C          5.5770    1.8890    1.2580 C.3     1  UNL1        0.0800
      2  C          5.0170    0.7460    2.0010 C.2     1  UNL1        0.1300
      3  C          5.9190   -0.4730    2.0950 C.3     1  UNL1        0.0870
      4  O          3.9460    0.6670    2.5320 O.2     1  UNL1       -0.3000
      5  C          5.5710    1.7740   -0.2160 C.3     1  UNL1        0.0430
      6  C          6.6630    1.0160   -0.8330 C.2     1  UNL1       -0.0440
      7  C          8.0020    1.3830   -0.6820 C.2     1  UNL1        0.0080
      8  C          6.3880   -0.1150   -1.5660 C.2     1  UNL1        0.0540
      9  C          8.9740    0.6120   -1.2650 C.2     1  UNL1        0.0510
     10  C          7.4040   -0.8870   -2.1510 C.2     1  UNL1        0.1660
     11  C          8.7240   -0.5240   -2.0040 C.2     1  UNL1        0.1650
     12  O          7.4240   -2.0420   -2.9220 O.2     1  UNL1       -0.4540
     13  O          9.5250   -1.4540   -2.6790 O.2     1  UNL1       -0.4540
     14  C          8.7220   -2.6080   -2.8160 C.3     1  UNL1        0.4680
@<TRIPOS>BOND
     1    12    14    1
     2    12    10    1
     3    14    13    1
     4    13    11    1
     5    10    11    2
     6    10     8    1
     7    11     9    1
     8     8     6    2
     9     9     7    2
    10     6     7    1
    11     6     5    1
    12     5     1    1
    13     1     2    1
    14     2     3    1
    15     2     4    2
