@<TRIPOS>MOLECULE
/home/cewinharhar/GITHUB/reincatalyze/data/processed/docking_pred/2023-May-31-1727_sub9_nm5_bs15_s42_ex16_mel10_mts10000_k50_ec075_g099_lra3e-4_lrc3e-3/db6d960fae65c9d90f474a1e8ae318b6f28ec3f2_ligand_9.pdbqt
 14 15 0 0 0
SMALL
GASTEIGER

@<TRIPOS>ATOM
      1  C          5.6060    1.9080    1.2230 C.3     1  UNL1        0.0800
      2  C          5.1110    0.7540    1.9950 C.2     1  UNL1        0.1300
      3  C          6.1050   -0.3790    2.1800 C.3     1  UNL1        0.0870
      4  O          4.0290    0.6090    2.4890 O.2     1  UNL1       -0.3000
      5  C          5.5880    1.7630   -0.2480 C.3     1  UNL1        0.0430
      6  C          6.6850    1.0090   -0.8610 C.2     1  UNL1       -0.0440
      7  C          8.0230    1.3680   -0.6880 C.2     1  UNL1        0.0080
      8  C          6.4150   -0.1110   -1.6130 C.2     1  UNL1        0.0540
      9  C          8.9990    0.6010   -1.2680 C.2     1  UNL1        0.0510
     10  C          7.4350   -0.8790   -2.1950 C.2     1  UNL1        0.1660
     11  C          8.7550   -0.5240   -2.0250 C.2     1  UNL1        0.1650
     12  O          7.4600   -2.0240   -2.9820 O.2     1  UNL1       -0.4540
     13  O          9.5600   -1.4480   -2.7030 O.2     1  UNL1       -0.4540
     14  C          8.7540   -2.5960   -2.8660 C.3     1  UNL1        0.4680
@<TRIPOS>BOND
     1    12    14    1
     2    12    10    1
     3    14    13    1
     4    13    11    1
     5    10    11    2
     6    10     8    1
     7    11     9    1
     8     8     6    2
     9     9     7    2
    10     6     7    1
    11     6     5    1
    12     5     1    1
    13     1     2    1
    14     2     3    1
    15     2     4    2
