@<TRIPOS>MOLECULE
/home/cewinharhar/GITHUB/reincatalyze/data/processed/docking_pred/2023-May-31-1727_sub9_nm5_bs15_s42_ex16_mel10_mts10000_k50_ec075_g099_lra3e-4_lrc3e-3/dba3942d2f0306a5a819952336ad453bb769fd78_ligand_9.pdbqt
 14 15 0 0 0
SMALL
GASTEIGER

@<TRIPOS>ATOM
      1  C          5.5460    1.8910    1.2060 C.3     1  UNL1        0.0800
      2  C          5.0420    0.7560    2.0000 C.2     1  UNL1        0.1300
      3  C          6.0140   -0.3980    2.1750 C.3     1  UNL1        0.0870
      4  O          3.9670    0.6400    2.5170 O.2     1  UNL1       -0.3000
      5  C          5.5230    1.7210   -0.2620 C.3     1  UNL1        0.0430
      6  C          6.6330    0.9800   -0.8680 C.2     1  UNL1       -0.0440
      7  C          7.9660    1.3520   -0.6830 C.2     1  UNL1        0.0080
      8  C          6.3810   -0.1400   -1.6260 C.2     1  UNL1        0.0540
      9  C          8.9550    0.5960   -1.2580 C.2     1  UNL1        0.0510
     10  C          7.4130   -0.8950   -2.2030 C.2     1  UNL1        0.1660
     11  C          8.7280   -0.5280   -2.0210 C.2     1  UNL1        0.1650
     12  O          7.4570   -2.0380   -2.9930 O.2     1  UNL1       -0.4540
     13  O          9.5480   -1.4410   -2.6950 O.2     1  UNL1       -0.4540
     14  C          8.7560   -2.5970   -2.8690 C.3     1  UNL1        0.4680
@<TRIPOS>BOND
     1    12    14    1
     2    12    10    1
     3    14    13    1
     4    13    11    1
     5    10    11    2
     6    10     8    1
     7    11     9    1
     8     8     6    2
     9     9     7    2
    10     6     7    1
    11     6     5    1
    12     5     1    1
    13     1     2    1
    14     2     3    1
    15     2     4    2
