@<TRIPOS>MOLECULE
/home/cewinharhar/GITHUB/reincatalyze/data/processed/docking_pred/2023-May-31-1727_sub9_nm5_bs15_s42_ex16_mel10_mts10000_k50_ec075_g099_lra3e-4_lrc3e-3/dba3942d2f0306a5a819952336ad453bb769fd78_ligand_9.pdbqt
 14 15 0 0 0
SMALL
GASTEIGER

@<TRIPOS>ATOM
      1  C          5.9240    1.3890   -0.2990 C.3     1  UNL1        0.0800
      2  C          5.2240    1.3530    0.9980 C.2     1  UNL1        0.1300
      3  C          5.5430    0.1550    1.8760 C.3     1  UNL1        0.0870
      4  O          4.4420    2.1500    1.4340 O.2     1  UNL1       -0.3000
      5  C          7.3410    0.9700   -0.2860 C.3     1  UNL1        0.0430
      6  C          7.6600   -0.3350   -0.8730 C.2     1  UNL1       -0.0440
      7  C          7.7270   -0.5340   -2.2530 C.2     1  UNL1        0.0080
      8  C          7.9320   -1.4090   -0.0570 C.2     1  UNL1        0.0540
      9  C          8.0570   -1.7750   -2.7320 C.2     1  UNL1        0.0510
     10  C          8.2680   -2.6690   -0.5750 C.2     1  UNL1        0.1660
     11  C          8.3340   -2.8650   -1.9370 C.2     1  UNL1        0.1650
     12  O          8.5840   -3.8980   -0.0100 O.2     1  UNL1       -0.4540
     13  O          8.6860   -4.1980   -2.1830 O.2     1  UNL1       -0.4540
     14  C          9.2860   -4.6530   -0.9880 C.3     1  UNL1        0.4680
@<TRIPOS>BOND
     1     9     7    1
     2     9    11    2
     3     7     6    2
     4    13    11    1
     5    13    14    1
     6    11    10    1
     7    14    12    1
     8     6     5    1
     9     6     8    1
    10    10     8    2
    11    10    12    1
    12     1     5    1
    13     1     2    1
    14     2     4    2
    15     2     3    1
