@<TRIPOS>MOLECULE
/home/cewinharhar/GITHUB/reincatalyze/data/processed/docking_pred/2023-May-31-1727_sub9_nm5_bs15_s42_ex16_mel10_mts10000_k50_ec075_g099_lra3e-4_lrc3e-3/dba3942d2f0306a5a819952336ad453bb769fd78_ligand_9.pdbqt
 14 15 0 0 0
SMALL
GASTEIGER

@<TRIPOS>ATOM
      1  C          6.6200    1.2100    1.3070 C.3     1  UNL1        0.0800
      2  C          5.2360    1.6290    1.0200 C.2     1  UNL1        0.1300
      3  C          4.9930    2.1500   -0.3870 C.3     1  UNL1        0.0870
      4  O          4.2920    1.6070    1.7580 O.2     1  UNL1       -0.3000
      5  C          7.5510    1.2080    0.1590 C.3     1  UNL1        0.0430
      6  C          7.7500   -0.0650   -0.5400 C.2     1  UNL1       -0.0440
      7  C          7.7300   -0.1610   -1.9320 C.2     1  UNL1        0.0080
      8  C          7.9940   -1.2130    0.1770 C.2     1  UNL1        0.0540
      9  C          7.9500   -1.3790   -2.5200 C.2     1  UNL1        0.0510
     10  C          8.2170   -2.4480   -0.4500 C.2     1  UNL1        0.1660
     11  C          8.1960   -2.5430   -1.8250 C.2     1  UNL1        0.1650
     12  O          8.4800   -3.7350    0.0030 O.2     1  UNL1       -0.4540
     13  O          8.4450   -3.8720   -2.1880 O.2     1  UNL1       -0.4540
     14  C          9.0770   -4.4540   -1.0670 C.3     1  UNL1        0.4680
@<TRIPOS>BOND
     1     9     7    1
     2     9    11    2
     3    13    11    1
     4    13    14    1
     5     7     6    2
     6    11    10    1
     7    14    12    1
     8     6     5    1
     9     6     8    1
    10    10    12    1
    11    10     8    2
    12     3     2    1
    13     5     1    1
    14     2     1    1
    15     2     4    2
