@<TRIPOS>MOLECULE
/home/cewinharhar/GITHUB/reincatalyze/data/processed/docking_pred/2023-May-31-1727_sub9_nm5_bs15_s42_ex16_mel10_mts10000_k50_ec075_g099_lra3e-4_lrc3e-3/dba3942d2f0306a5a819952336ad453bb769fd78_ligand_9.pdbqt
 14 15 0 0 0
SMALL
GASTEIGER

@<TRIPOS>ATOM
      1  C          6.2430    1.2170    0.8810 C.3     1  UNL1        0.0800
      2  C          5.5580    0.4260    1.9200 C.2     1  UNL1        0.1300
      3  C          6.3300   -0.7760    2.4370 C.3     1  UNL1        0.0870
      4  O          4.4770    0.6200    2.3990 O.2     1  UNL1       -0.3000
      5  C          5.8680    0.9180   -0.5170 C.3     1  UNL1        0.0430
      6  C          6.8070    0.1160   -1.3060 C.2     1  UNL1       -0.0440
      7  C          7.5780    0.6660   -2.3310 C.2     1  UNL1        0.0080
      8  C          6.9730   -1.2210   -1.0270 C.2     1  UNL1        0.0540
      9  C          8.4560   -0.1380   -3.0100 C.2     1  UNL1        0.0510
     10  C          7.8800   -2.0220   -1.7380 C.2     1  UNL1        0.1660
     11  C          8.6390   -1.4780   -2.7510 C.2     1  UNL1        0.1650
     12  O          8.2480   -3.3600   -1.6790 O.2     1  UNL1       -0.4540
     13  O          9.4530   -2.4820   -3.2910 O.2     1  UNL1       -0.4540
     14  C          9.5210   -3.4840   -2.2970 C.3     1  UNL1        0.4680
@<TRIPOS>BOND
     1    13    11    1
     2    13    14    1
     3     9    11    2
     4     9     7    1
     5    11    10    1
     6     7     6    2
     7    14    12    1
     8    10    12    1
     9    10     8    2
    10     6     8    1
    11     6     5    1
    12     5     1    1
    13     1     2    1
    14     2     4    2
    15     2     3    1
