@<TRIPOS>MOLECULE
/home/cewinharhar/GITHUB/reincatalyze/data/processed/docking_pred/2023-May-31-1727_sub9_nm5_bs15_s42_ex16_mel10_mts10000_k50_ec075_g099_lra3e-4_lrc3e-3/dba3942d2f0306a5a819952336ad453bb769fd78_ligand_9.pdbqt
 14 15 0 0 0
SMALL
GASTEIGER

@<TRIPOS>ATOM
      1  C          5.3750   -0.0880    1.9350 C.3     1  UNL1        0.0800
      2  C          4.4440    1.0520    1.8640 C.2     1  UNL1        0.1300
      3  C          4.7750    2.0980    0.8130 C.3     1  UNL1        0.0870
      4  O          3.4670    1.2460    2.5300 O.2     1  UNL1       -0.3000
      5  C          6.8010    0.2210    1.6970 C.3     1  UNL1        0.0430
      6  C          7.3470   -0.1080    0.3770 C.2     1  UNL1       -0.0440
      7  C          7.7810    0.8760   -0.5140 C.2     1  UNL1        0.0080
      8  C          7.4720   -1.4220   -0.0090 C.2     1  UNL1        0.0540
      9  C          8.3070    0.4950   -1.7210 C.2     1  UNL1        0.0510
     10  C          8.0150   -1.7830   -1.2520 C.2     1  UNL1        0.1660
     11  C          8.4420   -0.8130   -2.1310 C.2     1  UNL1        0.1650
     12  O          8.2570   -2.9920   -1.8920 O.2     1  UNL1       -0.4540
     13  O          8.9350   -1.4360   -3.2840 O.2     1  UNL1       -0.4540
     14  C          9.2360   -2.7600   -2.8940 C.3     1  UNL1        0.4680
@<TRIPOS>BOND
     1    13    14    1
     2    13    11    1
     3    14    12    1
     4    11     9    2
     5    11    10    1
     6    12    10    1
     7     9     7    1
     8    10     8    2
     9     7     6    2
    10     8     6    1
    11     6     5    1
    12     3     2    1
    13     5     1    1
    14     2     1    1
    15     2     4    2
