MODEL 1
REMARK VINA RESULT:      -7.7      0.000      0.000
REMARK SMILES CC(=O)CCc1ccc2c(c1)OCO2
REMARK SMILES IDX 4 1 2 2 1 3 3 4 5 5 6 6 7 7 11 8 8 9 10 10 9 11 12 12 14 13
REMARK SMILES IDX 13 14
REMARK H PARENT
REMARK Flexibility Score: inf
ROOT
ATOM      1  C   UNL     1       5.546   1.891   1.206  1.00  0.00     0.080 C 
ENDROOT
BRANCH   1   2
ATOM      2  C   UNL     1       5.042   0.756   2.000  1.00  0.00     0.130 C 
ATOM      3  C   UNL     1       6.014  -0.398   2.175  1.00  0.00     0.087 C 
ATOM      4  O   UNL     1       3.967   0.640   2.517  1.00  0.00    -0.300 OA
ENDBRANCH   1   2
BRANCH   1   5
ATOM      5  C   UNL     1       5.523   1.721  -0.262  1.00  0.00     0.043 C 
BRANCH   5   6
ATOM      6  C   UNL     1       6.633   0.980  -0.868  1.00  0.00    -0.044 A 
ATOM      7  C   UNL     1       7.966   1.352  -0.683  1.00  0.00     0.008 A 
ATOM      8  C   UNL     1       6.381  -0.140  -1.626  1.00  0.00     0.054 A 
ATOM      9  C   UNL     1       8.955   0.596  -1.258  1.00  0.00     0.051 A 
ATOM     10  C   UNL     1       7.413  -0.895  -2.203  1.00  0.00     0.166 A 
ATOM     11  C   UNL     1       8.728  -0.528  -2.021  1.00  0.00     0.165 A 
ATOM     12  O   UNL     1       7.457  -2.038  -2.993  1.00  0.00    -0.454 OA
ATOM     13  O   UNL     1       9.548  -1.441  -2.695  1.00  0.00    -0.454 OA
ATOM     14  C   UNL     1       8.756  -2.597  -2.869  1.00  0.00     0.468 C 
ENDBRANCH   5   6
ENDBRANCH   1   5
TORSDOF 3
ENDMDL
MODEL 2
REMARK VINA RESULT:      -7.0      1.881      2.369
REMARK SMILES CC(=O)CCc1ccc2c(c1)OCO2
REMARK SMILES IDX 4 1 2 2 1 3 3 4 5 5 6 6 7 7 11 8 8 9 10 10 9 11 12 12 14 13
REMARK SMILES IDX 13 14
REMARK H PARENT
REMARK Flexibility Score: inf
ROOT
ATOM      1  C   UNL     1       5.924   1.389  -0.299  1.00  0.00     0.080 C 
ENDROOT
BRANCH   1   2
ATOM      2  C   UNL     1       5.224   1.353   0.998  1.00  0.00     0.130 C 
ATOM      3  C   UNL     1       5.543   0.155   1.876  1.00  0.00     0.087 C 
ATOM      4  O   UNL     1       4.442   2.150   1.434  1.00  0.00    -0.300 OA
ENDBRANCH   1   2
BRANCH   1   5
ATOM      5  C   UNL     1       7.341   0.970  -0.286  1.00  0.00     0.043 C 
BRANCH   5   6
ATOM      6  C   UNL     1       7.660  -0.335  -0.873  1.00  0.00    -0.044 A 
ATOM      7  C   UNL     1       7.727  -0.534  -2.253  1.00  0.00     0.008 A 
ATOM      8  C   UNL     1       7.932  -1.409  -0.057  1.00  0.00     0.054 A 
ATOM      9  C   UNL     1       8.057  -1.775  -2.732  1.00  0.00     0.051 A 
ATOM     10  C   UNL     1       8.268  -2.669  -0.575  1.00  0.00     0.166 A 
ATOM     11  C   UNL     1       8.334  -2.865  -1.937  1.00  0.00     0.165 A 
ATOM     12  O   UNL     1       8.584  -3.898  -0.010  1.00  0.00    -0.454 OA
ATOM     13  O   UNL     1       8.686  -4.198  -2.183  1.00  0.00    -0.454 OA
ATOM     14  C   UNL     1       9.286  -4.653  -0.988  1.00  0.00     0.468 C 
ENDBRANCH   5   6
ENDBRANCH   1   5
TORSDOF 3
ENDMDL
MODEL 3
REMARK VINA RESULT:      -6.9      1.193      1.290
REMARK SMILES CC(=O)CCc1ccc2c(c1)OCO2
REMARK SMILES IDX 4 1 2 2 1 3 3 4 5 5 6 6 7 7 11 8 8 9 10 10 9 11 12 12 14 13
REMARK SMILES IDX 13 14
REMARK H PARENT
REMARK Flexibility Score: inf
ROOT
ATOM      1  C   UNL     1       6.243   1.217   0.881  1.00  0.00     0.080 C 
ENDROOT
BRANCH   1   2
ATOM      2  C   UNL     1       5.558   0.426   1.920  1.00  0.00     0.130 C 
ATOM      3  C   UNL     1       6.330  -0.776   2.437  1.00  0.00     0.087 C 
ATOM      4  O   UNL     1       4.477   0.620   2.399  1.00  0.00    -0.300 OA
ENDBRANCH   1   2
BRANCH   1   5
ATOM      5  C   UNL     1       5.868   0.918  -0.517  1.00  0.00     0.043 C 
BRANCH   5   6
ATOM      6  C   UNL     1       6.807   0.116  -1.306  1.00  0.00    -0.044 A 
ATOM      7  C   UNL     1       7.578   0.666  -2.331  1.00  0.00     0.008 A 
ATOM      8  C   UNL     1       6.973  -1.221  -1.027  1.00  0.00     0.054 A 
ATOM      9  C   UNL     1       8.456  -0.138  -3.010  1.00  0.00     0.051 A 
ATOM     10  C   UNL     1       7.880  -2.022  -1.738  1.00  0.00     0.166 A 
ATOM     11  C   UNL     1       8.639  -1.478  -2.751  1.00  0.00     0.165 A 
ATOM     12  O   UNL     1       8.248  -3.360  -1.679  1.00  0.00    -0.454 OA
ATOM     13  O   UNL     1       9.453  -2.482  -3.291  1.00  0.00    -0.454 OA
ATOM     14  C   UNL     1       9.521  -3.484  -2.297  1.00  0.00     0.468 C 
ENDBRANCH   5   6
ENDBRANCH   1   5
TORSDOF 3
ENDMDL
MODEL 4
REMARK VINA RESULT:      -6.9      1.819      2.407
REMARK SMILES CC(=O)CCc1ccc2c(c1)OCO2
REMARK SMILES IDX 4 1 2 2 1 3 3 4 5 5 6 6 7 7 11 8 8 9 10 10 9 11 12 12 14 13
REMARK SMILES IDX 13 14
REMARK H PARENT
REMARK Flexibility Score: inf
ROOT
ATOM      1  C   UNL     1       6.620   1.210   1.307  1.00  0.00     0.080 C 
ENDROOT
BRANCH   1   2
ATOM      2  C   UNL     1       5.236   1.629   1.020  1.00  0.00     0.130 C 
ATOM      3  C   UNL     1       4.993   2.150  -0.387  1.00  0.00     0.087 C 
ATOM      4  O   UNL     1       4.292   1.607   1.758  1.00  0.00    -0.300 OA
ENDBRANCH   1   2
BRANCH   1   5
ATOM      5  C   UNL     1       7.551   1.208   0.159  1.00  0.00     0.043 C 
BRANCH   5   6
ATOM      6  C   UNL     1       7.750  -0.065  -0.540  1.00  0.00    -0.044 A 
ATOM      7  C   UNL     1       7.730  -0.161  -1.932  1.00  0.00     0.008 A 
ATOM      8  C   UNL     1       7.994  -1.213   0.177  1.00  0.00     0.054 A 
ATOM      9  C   UNL     1       7.950  -1.379  -2.520  1.00  0.00     0.051 A 
ATOM     10  C   UNL     1       8.217  -2.448  -0.450  1.00  0.00     0.166 A 
ATOM     11  C   UNL     1       8.196  -2.543  -1.825  1.00  0.00     0.165 A 
ATOM     12  O   UNL     1       8.480  -3.735   0.003  1.00  0.00    -0.454 OA
ATOM     13  O   UNL     1       8.445  -3.872  -2.188  1.00  0.00    -0.454 OA
ATOM     14  C   UNL     1       9.077  -4.454  -1.067  1.00  0.00     0.468 C 
ENDBRANCH   5   6
ENDBRANCH   1   5
TORSDOF 3
ENDMDL
MODEL 5
REMARK VINA RESULT:      -6.8      1.162      1.658
REMARK SMILES CC(=O)CCc1ccc2c(c1)OCO2
REMARK SMILES IDX 4 1 2 2 1 3 3 4 5 5 6 6 7 7 11 8 8 9 10 10 9 11 12 12 14 13
REMARK SMILES IDX 13 14
REMARK H PARENT
REMARK Flexibility Score: inf
ROOT
ATOM      1  C   UNL     1       5.375  -0.088   1.935  1.00  0.00     0.080 C 
ENDROOT
BRANCH   1   2
ATOM      2  C   UNL     1       4.444   1.052   1.864  1.00  0.00     0.130 C 
ATOM      3  C   UNL     1       4.775   2.098   0.813  1.00  0.00     0.087 C 
ATOM      4  O   UNL     1       3.467   1.246   2.530  1.00  0.00    -0.300 OA
ENDBRANCH   1   2
BRANCH   1   5
ATOM      5  C   UNL     1       6.801   0.221   1.697  1.00  0.00     0.043 C 
BRANCH   5   6
ATOM      6  C   UNL     1       7.347  -0.108   0.377  1.00  0.00    -0.044 A 
ATOM      7  C   UNL     1       7.781   0.876  -0.514  1.00  0.00     0.008 A 
ATOM      8  C   UNL     1       7.472  -1.422  -0.009  1.00  0.00     0.054 A 
ATOM      9  C   UNL     1       8.307   0.495  -1.721  1.00  0.00     0.051 A 
ATOM     10  C   UNL     1       8.015  -1.783  -1.252  1.00  0.00     0.166 A 
ATOM     11  C   UNL     1       8.442  -0.813  -2.131  1.00  0.00     0.165 A 
ATOM     12  O   UNL     1       8.257  -2.992  -1.892  1.00  0.00    -0.454 OA
ATOM     13  O   UNL     1       8.935  -1.436  -3.284  1.00  0.00    -0.454 OA
ATOM     14  C   UNL     1       9.236  -2.760  -2.894  1.00  0.00     0.468 C 
ENDBRANCH   5   6
ENDBRANCH   1   5
TORSDOF 3
ENDMDL
