@<TRIPOS>MOLECULE
/home/cewinharhar/GITHUB/reincatalyze/data/processed/docking_pred/2023-May-31-1727_sub9_nm5_bs15_s42_ex16_mel10_mts10000_k50_ec075_g099_lra3e-4_lrc3e-3/dca47ac415302ce9f1313af6aebf6be1e2794cfe_ligand_9.pdbqt
 14 15 0 0 0
SMALL
GASTEIGER

@<TRIPOS>ATOM
      1  C          5.7120    1.5990    1.0530 C.3     1  UNL1        0.0800
      2  C          5.1790    0.5690    1.9620 C.2     1  UNL1        0.1300
      3  C          6.0980   -0.6130    2.2160 C.3     1  UNL1        0.0870
      4  O          4.1170    0.5570    2.5180 O.2     1  UNL1       -0.3000
      5  C          5.5940    1.3160   -0.3930 C.3     1  UNL1        0.0430
      6  C          6.7160    0.6250   -1.0340 C.2     1  UNL1       -0.0440
      7  C          8.0100    1.1480   -1.0340 C.2     1  UNL1        0.0080
      8  C          6.5180   -0.5950   -1.6390 C.2     1  UNL1        0.0540
      9  C          9.0170    0.4330   -1.6300 C.2     1  UNL1        0.0510
     10  C          7.5680   -1.3050   -2.2410 C.2     1  UNL1        0.1660
     11  C          8.8450   -0.7880   -2.2420 C.2     1  UNL1        0.1650
     12  O          7.6630   -2.5210   -2.9070 O.2     1  UNL1       -0.4540
     13  O          9.6940   -1.6870   -2.9010 O.2     1  UNL1       -0.4540
     14  C          9.0220   -2.9290   -2.8650 C.3     1  UNL1        0.4680
@<TRIPOS>BOND
     1    12    14    1
     2    12    10    1
     3    13    14    1
     4    13    11    1
     5    11    10    2
     6    11     9    1
     7    10     8    1
     8     8     6    2
     9     9     7    2
    10     6     7    1
    11     6     5    1
    12     5     1    1
    13     1     2    1
    14     2     3    1
    15     2     4    2
