@<TRIPOS>MOLECULE
/home/cewinharhar/GITHUB/reincatalyze/data/processed/docking_pred/2023-May-31-1727_sub9_nm5_bs15_s42_ex16_mel10_mts10000_k50_ec075_g099_lra3e-4_lrc3e-3/dca47ac415302ce9f1313af6aebf6be1e2794cfe_ligand_9.pdbqt
 14 15 0 0 0
SMALL
GASTEIGER

@<TRIPOS>ATOM
      1  C          5.7680   -0.0760    1.9710 C.3     1  UNL1        0.0800
      2  C          4.7660    0.9730    1.7080 C.2     1  UNL1        0.1300
      3  C          5.0370    1.8400    0.4900 C.3     1  UNL1        0.0870
      4  O          3.7740    1.2170    2.3350 O.2     1  UNL1       -0.3000
      5  C          6.9310   -0.1080    1.0600 C.3     1  UNL1        0.0430
      6  C          8.1890    0.4550    1.5590 C.2     1  UNL1       -0.0440
      7  C          8.2290    1.6150    2.3340 C.2     1  UNL1        0.0080
      8  C          9.3800   -0.1780    1.2910 C.2     1  UNL1        0.0540
      9  C          9.4390    2.0700    2.7890 C.2     1  UNL1        0.0510
     10  C         10.6050    0.3100    1.7710 C.2     1  UNL1        0.1660
     11  C         10.6450    1.4560    2.5350 C.2     1  UNL1        0.1650
     12  O         11.9270   -0.1060    1.6630 O.2     1  UNL1       -0.4540
     13  O         11.9770    1.7210    2.8800 O.2     1  UNL1       -0.4540
     14  C         12.6540    0.4900    2.7270 C.3     1  UNL1        0.4680
@<TRIPOS>BOND
     1     3     2    1
     2     5     6    1
     3     5     1    1
     4     8     6    2
     5     8    10    1
     6     6     7    1
     7    12    10    1
     8    12    14    1
     9     2     1    1
    10     2     4    2
    11    10    11    2
    12     7     9    2
    13    11     9    1
    14    11    13    1
    15    14    13    1
