MODEL 1
REMARK VINA RESULT:      -7.7      0.000      0.000
REMARK SMILES CC(=O)CCc1ccc2c(c1)OCO2
REMARK SMILES IDX 4 1 2 2 1 3 3 4 5 5 6 6 7 7 11 8 8 9 10 10 9 11 12 12 14 13
REMARK SMILES IDX 13 14
REMARK H PARENT
REMARK Flexibility Score: inf
ROOT
ATOM      1  C   UNL     1       5.529   1.886   1.229  1.00  0.00     0.080 C 
ENDROOT
BRANCH   1   2
ATOM      2  C   UNL     1       4.993   0.749   2.000  1.00  0.00     0.130 C 
ATOM      3  C   UNL     1       5.911  -0.458   2.101  1.00  0.00     0.087 C 
ATOM      4  O   UNL     1       3.932   0.667   2.549  1.00  0.00    -0.300 OA
ENDBRANCH   1   2
BRANCH   1   5
ATOM      5  C   UNL     1       5.518   1.738  -0.242  1.00  0.00     0.043 C 
BRANCH   5   6
ATOM      6  C   UNL     1       6.628   0.999  -0.849  1.00  0.00    -0.044 A 
ATOM      7  C   UNL     1       7.959   1.380  -0.676  1.00  0.00     0.008 A 
ATOM      8  C   UNL     1       6.377  -0.127  -1.598  1.00  0.00     0.054 A 
ATOM      9  C   UNL     1       8.949   0.626  -1.251  1.00  0.00     0.051 A 
ATOM     10  C   UNL     1       7.409  -0.881  -2.176  1.00  0.00     0.166 A 
ATOM     11  C   UNL     1       8.723  -0.505  -2.005  1.00  0.00     0.165 A 
ATOM     12  O   UNL     1       7.454  -2.029  -2.957  1.00  0.00    -0.454 OA
ATOM     13  O   UNL     1       9.545  -1.419  -2.677  1.00  0.00    -0.454 OA
ATOM     14  C   UNL     1       8.757  -2.580  -2.837  1.00  0.00     0.468 C 
ENDBRANCH   5   6
ENDBRANCH   1   5
TORSDOF 3
ENDMDL
MODEL 2
REMARK VINA RESULT:      -7.0      1.789      2.230
REMARK SMILES CC(=O)CCc1ccc2c(c1)OCO2
REMARK SMILES IDX 4 1 2 2 1 3 3 4 5 5 6 6 7 7 11 8 8 9 10 10 9 11 12 12 14 13
REMARK SMILES IDX 13 14
REMARK H PARENT
REMARK Flexibility Score: inf
ROOT
ATOM      1  C   UNL     1       5.698   1.408  -0.263  1.00  0.00     0.080 C 
ENDROOT
BRANCH   1   2
ATOM      2  C   UNL     1       5.088   1.355   1.078  1.00  0.00     0.130 C 
ATOM      3  C   UNL     1       5.518   0.181   1.941  1.00  0.00     0.087 C 
ATOM      4  O   UNL     1       4.303   2.121   1.559  1.00  0.00    -0.300 OA
ENDBRANCH   1   2
BRANCH   1   5
ATOM      5  C   UNL     1       7.142   1.101  -0.334  1.00  0.00     0.043 C 
BRANCH   5   6
ATOM      6  C   UNL     1       7.526  -0.187  -0.920  1.00  0.00    -0.044 A 
ATOM      7  C   UNL     1       7.695  -0.358  -2.295  1.00  0.00     0.008 A 
ATOM      8  C   UNL     1       7.760  -1.271  -0.107  1.00  0.00     0.054 A 
ATOM      9  C   UNL     1       8.081  -1.584  -2.772  1.00  0.00     0.051 A 
ATOM     10  C   UNL     1       8.156  -2.515  -0.622  1.00  0.00     0.166 A 
ATOM     11  C   UNL     1       8.321  -2.684  -1.979  1.00  0.00     0.165 A 
ATOM     12  O   UNL     1       8.454  -3.749  -0.058  1.00  0.00    -0.454 OA
ATOM     13  O   UNL     1       8.715  -4.005  -2.223  1.00  0.00    -0.454 OA
ATOM     14  C   UNL     1       9.238  -4.472  -0.996  1.00  0.00     0.468 C 
ENDBRANCH   5   6
ENDBRANCH   1   5
TORSDOF 3
ENDMDL
MODEL 3
REMARK VINA RESULT:      -7.0      1.039      1.127
REMARK SMILES CC(=O)CCc1ccc2c(c1)OCO2
REMARK SMILES IDX 4 1 2 2 1 3 3 4 5 5 6 6 7 7 11 8 8 9 10 10 9 11 12 12 14 13
REMARK SMILES IDX 13 14
REMARK H PARENT
REMARK Flexibility Score: inf
ROOT
ATOM      1  C   UNL     1       6.191   1.215   0.931  1.00  0.00     0.080 C 
ENDROOT
BRANCH   1   2
ATOM      2  C   UNL     1       5.507   0.366   1.922  1.00  0.00     0.130 C 
ATOM      3  C   UNL     1       6.269  -0.877   2.350  1.00  0.00     0.087 C 
ATOM      4  O   UNL     1       4.433   0.540   2.424  1.00  0.00    -0.300 OA
ENDBRANCH   1   2
BRANCH   1   5
ATOM      5  C   UNL     1       5.892   0.929  -0.488  1.00  0.00     0.043 C 
BRANCH   5   6
ATOM      6  C   UNL     1       6.886   0.159  -1.241  1.00  0.00    -0.044 A 
ATOM      7  C   UNL     1       7.912   0.773  -1.961  1.00  0.00     0.008 A 
ATOM      8  C   UNL     1       6.844  -1.216  -1.230  1.00  0.00     0.054 A 
ATOM      9  C   UNL     1       8.824  -0.010  -2.621  1.00  0.00     0.051 A 
ATOM     10  C   UNL     1       7.791  -1.993  -1.914  1.00  0.00     0.166 A 
ATOM     11  C   UNL     1       8.804  -1.387  -2.626  1.00  0.00     0.165 A 
ATOM     12  O   UNL     1       7.993  -3.358  -2.076  1.00  0.00    -0.454 OA
ATOM     13  O   UNL     1       9.602  -2.381  -3.207  1.00  0.00    -0.454 OA
ATOM     14  C   UNL     1       9.348  -3.550  -2.456  1.00  0.00     0.468 C 
ENDBRANCH   5   6
ENDBRANCH   1   5
TORSDOF 3
ENDMDL
MODEL 4
REMARK VINA RESULT:      -6.8      1.110      1.606
REMARK SMILES CC(=O)CCc1ccc2c(c1)OCO2
REMARK SMILES IDX 4 1 2 2 1 3 3 4 5 5 6 6 7 7 11 8 8 9 10 10 9 11 12 12 14 13
REMARK SMILES IDX 13 14
REMARK H PARENT
REMARK Flexibility Score: inf
ROOT
ATOM      1  C   UNL     1       5.343  -0.026   2.001  1.00  0.00     0.080 C 
ENDROOT
BRANCH   1   2
ATOM      2  C   UNL     1       4.389   1.091   1.871  1.00  0.00     0.130 C 
ATOM      3  C   UNL     1       4.726   2.112   0.798  1.00  0.00     0.087 C 
ATOM      4  O   UNL     1       3.392   1.284   2.507  1.00  0.00    -0.300 OA
ENDBRANCH   1   2
BRANCH   1   5
ATOM      5  C   UNL     1       6.766   0.303   1.775  1.00  0.00     0.043 C 
BRANCH   5   6
ATOM      6  C   UNL     1       7.323  -0.004   0.454  1.00  0.00    -0.044 A 
ATOM      7  C   UNL     1       7.885   0.978  -0.363  1.00  0.00     0.008 A 
ATOM      8  C   UNL     1       7.329  -1.300  -0.006  1.00  0.00     0.054 A 
ATOM      9  C   UNL     1       8.413   0.615  -1.575  1.00  0.00     0.051 A 
ATOM     10  C   UNL     1       7.877  -1.644  -1.251  1.00  0.00     0.166 A 
ATOM     11  C   UNL     1       8.431  -0.674  -2.058  1.00  0.00     0.165 A 
ATOM     12  O   UNL     1       8.019  -2.834  -1.955  1.00  0.00    -0.454 OA
ATOM     13  O   UNL     1       8.900  -1.279  -3.231  1.00  0.00    -0.454 OA
ATOM     14  C   UNL     1       9.052  -2.646  -2.911  1.00  0.00     0.468 C 
ENDBRANCH   5   6
ENDBRANCH   1   5
TORSDOF 3
ENDMDL
MODEL 5
REMARK VINA RESULT:      -6.7      1.974      2.525
REMARK SMILES CC(=O)CCc1ccc2c(c1)OCO2
REMARK SMILES IDX 4 1 2 2 1 3 3 4 5 5 6 6 7 7 11 8 8 9 10 10 9 11 12 12 14 13
REMARK SMILES IDX 13 14
REMARK H PARENT
REMARK Flexibility Score: inf
ROOT
ATOM      1  C   UNL     1       5.800   0.061   2.091  1.00  0.00     0.080 C 
ENDROOT
BRANCH   1   2
ATOM      2  C   UNL     1       4.757   1.058   1.792  1.00  0.00     0.130 C 
ATOM      3  C   UNL     1       5.064   1.992   0.633  1.00  0.00     0.087 C 
ATOM      4  O   UNL     1       3.708   1.216   2.349  1.00  0.00    -0.300 OA
ENDBRANCH   1   2
BRANCH   1   5
ATOM      5  C   UNL     1       7.093   0.242   1.398  1.00  0.00     0.043 C 
BRANCH   5   6
ATOM      6  C   UNL     1       7.449  -0.743   0.373  1.00  0.00    -0.044 A 
ATOM      7  C   UNL     1       7.371  -0.459  -0.991  1.00  0.00     0.008 A 
ATOM      8  C   UNL     1       7.904  -1.987   0.743  1.00  0.00     0.054 A 
ATOM      9  C   UNL     1       7.746  -1.420  -1.894  1.00  0.00     0.051 A 
ATOM     10  C   UNL     1       8.281  -2.952  -0.203  1.00  0.00     0.166 A 
ATOM     11  C   UNL     1       8.204  -2.672  -1.550  1.00  0.00     0.165 A 
ATOM     12  O   UNL     1       8.763  -4.253  -0.125  1.00  0.00    -0.454 OA
ATOM     13  O   UNL     1       8.635  -3.794  -2.269  1.00  0.00    -0.454 OA
ATOM     14  C   UNL     1       9.406  -4.548  -1.357  1.00  0.00     0.468 C 
ENDBRANCH   5   6
ENDBRANCH   1   5
TORSDOF 3
ENDMDL
