@<TRIPOS>MOLECULE
/home/cewinharhar/GITHUB/reincatalyze/data/processed/docking_pred/2023-May-31-1727_sub9_nm5_bs15_s42_ex16_mel10_mts10000_k50_ec075_g099_lra3e-4_lrc3e-3/dd626561b0241c753f5aa586a778cbbb50e2da15_ligand_9.pdbqt
 14 15 0 0 0
SMALL
GASTEIGER

@<TRIPOS>ATOM
      1  C          5.8000    0.0610    2.0910 C.3     1  UNL1        0.0800
      2  C          4.7570    1.0580    1.7920 C.2     1  UNL1        0.1300
      3  C          5.0640    1.9920    0.6330 C.3     1  UNL1        0.0870
      4  O          3.7080    1.2160    2.3490 O.2     1  UNL1       -0.3000
      5  C          7.0930    0.2420    1.3980 C.3     1  UNL1        0.0430
      6  C          7.4490   -0.7430    0.3730 C.2     1  UNL1       -0.0440
      7  C          7.3710   -0.4590   -0.9910 C.2     1  UNL1        0.0080
      8  C          7.9040   -1.9870    0.7430 C.2     1  UNL1        0.0540
      9  C          7.7460   -1.4200   -1.8940 C.2     1  UNL1        0.0510
     10  C          8.2810   -2.9520   -0.2030 C.2     1  UNL1        0.1660
     11  C          8.2040   -2.6720   -1.5500 C.2     1  UNL1        0.1650
     12  O          8.7630   -4.2530   -0.1250 O.2     1  UNL1       -0.4540
     13  O          8.6350   -3.7940   -2.2690 O.2     1  UNL1       -0.4540
     14  C          9.4060   -4.5480   -1.3570 C.3     1  UNL1        0.4680
@<TRIPOS>BOND
     1    13    11    1
     2    13    14    1
     3     9    11    2
     4     9     7    1
     5    11    10    1
     6    14    12    1
     7     7     6    2
     8    10    12    1
     9    10     8    2
    10     6     8    1
    11     6     5    1
    12     3     2    1
    13     5     1    1
    14     2     1    1
    15     2     4    2
