@<TRIPOS>MOLECULE
/home/cewinharhar/GITHUB/reincatalyze/data/processed/docking_pred/2023-May-31-1727_sub9_nm5_bs15_s42_ex16_mel10_mts10000_k50_ec075_g099_lra3e-4_lrc3e-3/dd626561b0241c753f5aa586a778cbbb50e2da15_ligand_9.pdbqt
 14 15 0 0 0
SMALL
GASTEIGER

@<TRIPOS>ATOM
      1  C          5.6980    1.4080   -0.2630 C.3     1  UNL1        0.0800
      2  C          5.0880    1.3550    1.0780 C.2     1  UNL1        0.1300
      3  C          5.5180    0.1810    1.9410 C.3     1  UNL1        0.0870
      4  O          4.3030    2.1210    1.5590 O.2     1  UNL1       -0.3000
      5  C          7.1420    1.1010   -0.3340 C.3     1  UNL1        0.0430
      6  C          7.5260   -0.1870   -0.9200 C.2     1  UNL1       -0.0440
      7  C          7.6950   -0.3580   -2.2950 C.2     1  UNL1        0.0080
      8  C          7.7600   -1.2710   -0.1070 C.2     1  UNL1        0.0540
      9  C          8.0810   -1.5840   -2.7720 C.2     1  UNL1        0.0510
     10  C          8.1560   -2.5150   -0.6220 C.2     1  UNL1        0.1660
     11  C          8.3210   -2.6840   -1.9790 C.2     1  UNL1        0.1650
     12  O          8.4540   -3.7490   -0.0580 O.2     1  UNL1       -0.4540
     13  O          8.7150   -4.0050   -2.2230 O.2     1  UNL1       -0.4540
     14  C          9.2380   -4.4720   -0.9960 C.3     1  UNL1        0.4680
@<TRIPOS>BOND
     1     9     7    1
     2     9    11    2
     3     7     6    2
     4    13    11    1
     5    13    14    1
     6    11    10    1
     7    14    12    1
     8     6     5    1
     9     6     8    1
    10    10     8    2
    11    10    12    1
    12     5     1    1
    13     1     2    1
    14     2     4    2
    15     2     3    1
