@<TRIPOS>MOLECULE
/home/cewinharhar/GITHUB/reincatalyze/data/processed/docking_pred/2023-May-31-1727_sub9_nm5_bs15_s42_ex16_mel10_mts10000_k50_ec075_g099_lra3e-4_lrc3e-3/dd626561b0241c753f5aa586a778cbbb50e2da15_ligand_9.pdbqt
 14 15 0 0 0
SMALL
GASTEIGER

@<TRIPOS>ATOM
      1  C          6.1910    1.2150    0.9310 C.3     1  UNL1        0.0800
      2  C          5.5070    0.3660    1.9220 C.2     1  UNL1        0.1300
      3  C          6.2690   -0.8770    2.3500 C.3     1  UNL1        0.0870
      4  O          4.4330    0.5400    2.4240 O.2     1  UNL1       -0.3000
      5  C          5.8920    0.9290   -0.4880 C.3     1  UNL1        0.0430
      6  C          6.8860    0.1590   -1.2410 C.2     1  UNL1       -0.0440
      7  C          7.9120    0.7730   -1.9610 C.2     1  UNL1        0.0080
      8  C          6.8440   -1.2160   -1.2300 C.2     1  UNL1        0.0540
      9  C          8.8240   -0.0100   -2.6210 C.2     1  UNL1        0.0510
     10  C          7.7910   -1.9930   -1.9140 C.2     1  UNL1        0.1660
     11  C          8.8040   -1.3870   -2.6260 C.2     1  UNL1        0.1650
     12  O          7.9930   -3.3580   -2.0760 O.2     1  UNL1       -0.4540
     13  O          9.6020   -2.3810   -3.2070 O.2     1  UNL1       -0.4540
     14  C          9.3480   -3.5500   -2.4560 C.3     1  UNL1        0.4680
@<TRIPOS>BOND
     1    13    11    1
     2    13    14    1
     3    11     9    2
     4    11    10    1
     5     9     7    1
     6    14    12    1
     7    12    10    1
     8     7     6    2
     9    10     8    2
    10     6     8    1
    11     6     5    1
    12     5     1    1
    13     1     2    1
    14     2     3    1
    15     2     4    2
