@<TRIPOS>MOLECULE
/home/cewinharhar/GITHUB/reincatalyze/data/processed/docking_pred/2023-May-31-1727_sub9_nm5_bs15_s42_ex16_mel10_mts10000_k50_ec075_g099_lra3e-4_lrc3e-3/ddc375cfe0538f632f4fe0023d9c8e07951c55a5_ligand_9.pdbqt
 14 15 0 0 0
SMALL
GASTEIGER

@<TRIPOS>ATOM
      1  C          5.9070    1.2690   -0.3120 C.3     1  UNL1        0.0800
      2  C          5.2490    1.2770    1.0070 C.2     1  UNL1        0.1300
      3  C          5.4500    0.0230    1.8410 C.3     1  UNL1        0.0870
      4  O          4.5820    2.1470    1.4910 O.2     1  UNL1       -0.3000
      5  C          7.3450    0.9290   -0.3210 C.3     1  UNL1        0.0430
      6  C          7.7260   -0.3600   -0.9060 C.2     1  UNL1       -0.0440
      7  C          7.9070   -0.5290   -2.2800 C.2     1  UNL1        0.0080
      8  C          7.9460   -1.4470   -0.0930 C.2     1  UNL1        0.0540
      9  C          8.2900   -1.7560   -2.7560 C.2     1  UNL1        0.0510
     10  C          8.3390   -2.6920   -0.6070 C.2     1  UNL1        0.1660
     11  C          8.5160   -2.8590   -1.9630 C.2     1  UNL1        0.1650
     12  O          8.6240   -3.9300   -0.0430 O.2     1  UNL1       -0.4540
     13  O          8.9040   -4.1830   -2.2070 O.2     1  UNL1       -0.4540
     14  C          9.4110   -4.6560   -0.9760 C.3     1  UNL1        0.4680
@<TRIPOS>BOND
     1     9     7    1
     2     9    11    2
     3     7     6    2
     4    13    11    1
     5    13    14    1
     6    11    10    1
     7    14    12    1
     8     6     5    1
     9     6     8    1
    10    10     8    2
    11    10    12    1
    12     5     1    1
    13     1     2    1
    14     2     4    2
    15     2     3    1
