MODEL 1
REMARK VINA RESULT:      -7.6      0.000      0.000
REMARK SMILES CC(=O)CCc1ccc2c(c1)OCO2
REMARK SMILES IDX 4 1 2 2 1 3 3 4 5 5 6 6 7 7 11 8 8 9 10 10 9 11 12 12 14 13
REMARK SMILES IDX 13 14
REMARK H PARENT
REMARK Flexibility Score: inf
ROOT
ATOM      1  C   UNL     1       5.609   1.871   1.241  1.00  0.00     0.080 C 
ENDROOT
BRANCH   1   2
ATOM      2  C   UNL     1       5.046   0.749   2.014  1.00  0.00     0.130 C 
ATOM      3  C   UNL     1       5.978  -0.433   2.217  1.00  0.00     0.087 C 
ATOM      4  O   UNL     1       3.951   0.664   2.494  1.00  0.00    -0.300 OA
ENDBRANCH   1   2
BRANCH   1   5
ATOM      5  C   UNL     1       5.582   1.728  -0.230  1.00  0.00     0.043 C 
BRANCH   5   6
ATOM      6  C   UNL     1       6.675   0.973  -0.850  1.00  0.00    -0.044 A 
ATOM      7  C   UNL     1       8.012   1.350  -0.712  1.00  0.00     0.008 A 
ATOM      8  C   UNL     1       6.402  -0.164  -1.574  1.00  0.00     0.054 A 
ATOM      9  C   UNL     1       8.984   0.581  -1.296  1.00  0.00     0.051 A 
ATOM     10  C   UNL     1       7.418  -0.933  -2.162  1.00  0.00     0.166 A 
ATOM     11  C   UNL     1       8.737  -0.560  -2.026  1.00  0.00     0.165 A 
ATOM     12  O   UNL     1       7.440  -2.093  -2.926  1.00  0.00    -0.454 OA
ATOM     13  O   UNL     1       9.539  -1.489  -2.702  1.00  0.00    -0.454 OA
ATOM     14  C   UNL     1       8.742  -2.649  -2.826  1.00  0.00     0.468 C 
ENDBRANCH   5   6
ENDBRANCH   1   5
TORSDOF 3
ENDMDL
MODEL 2
REMARK VINA RESULT:      -7.0      1.836      2.307
REMARK SMILES CC(=O)CCc1ccc2c(c1)OCO2
REMARK SMILES IDX 4 1 2 2 1 3 3 4 5 5 6 6 7 7 11 8 8 9 10 10 9 11 12 12 14 13
REMARK SMILES IDX 13 14
REMARK H PARENT
REMARK Flexibility Score: inf
ROOT
ATOM      1  C   UNL     1       5.884   1.376  -0.264  1.00  0.00     0.080 C 
ENDROOT
BRANCH   1   2
ATOM      2  C   UNL     1       5.209   1.324   1.045  1.00  0.00     0.130 C 
ATOM      3  C   UNL     1       5.459   0.063   1.855  1.00  0.00     0.087 C 
ATOM      4  O   UNL     1       4.494   2.150   1.538  1.00  0.00    -0.300 OA
ENDBRANCH   1   2
BRANCH   1   5
ATOM      5  C   UNL     1       7.309   0.984  -0.279  1.00  0.00     0.043 C 
BRANCH   5   6
ATOM      6  C   UNL     1       7.641  -0.315  -0.870  1.00  0.00    -0.044 A 
ATOM      7  C   UNL     1       7.710  -0.508  -2.250  1.00  0.00     0.008 A 
ATOM      8  C   UNL     1       7.925  -1.388  -0.058  1.00  0.00     0.054 A 
ATOM      9  C   UNL     1       8.053  -1.744  -2.734  1.00  0.00     0.051 A 
ATOM     10  C   UNL     1       8.274  -2.643  -0.580  1.00  0.00     0.166 A 
ATOM     11  C   UNL     1       8.341  -2.834  -1.943  1.00  0.00     0.165 A 
ATOM     12  O   UNL     1       8.603  -3.871  -0.020  1.00  0.00    -0.454 OA
ATOM     13  O   UNL     1       8.707  -4.163  -2.193  1.00  0.00    -0.454 OA
ATOM     14  C   UNL     1       9.312  -4.615  -1.000  1.00  0.00     0.468 C 
ENDBRANCH   5   6
ENDBRANCH   1   5
TORSDOF 3
ENDMDL
MODEL 3
REMARK VINA RESULT:      -6.9      1.084      1.162
REMARK SMILES CC(=O)CCc1ccc2c(c1)OCO2
REMARK SMILES IDX 4 1 2 2 1 3 3 4 5 5 6 6 7 7 11 8 8 9 10 10 9 11 12 12 14 13
REMARK SMILES IDX 13 14
REMARK H PARENT
REMARK Flexibility Score: inf
ROOT
ATOM      1  C   UNL     1       6.213   1.256   0.838  1.00  0.00     0.080 C 
ENDROOT
BRANCH   1   2
ATOM      2  C   UNL     1       5.565   0.460   1.896  1.00  0.00     0.130 C 
ATOM      3  C   UNL     1       6.359  -0.739   2.385  1.00  0.00     0.087 C 
ATOM      4  O   UNL     1       4.498   0.648   2.408  1.00  0.00    -0.300 OA
ENDBRANCH   1   2
BRANCH   1   5
ATOM      5  C   UNL     1       5.859   0.902  -0.553  1.00  0.00     0.043 C 
BRANCH   5   6
ATOM      6  C   UNL     1       6.838   0.125  -1.317  1.00  0.00    -0.044 A 
ATOM      7  C   UNL     1       7.773   0.729  -2.160  1.00  0.00     0.008 A 
ATOM      8  C   UNL     1       6.875  -1.245  -1.197  1.00  0.00     0.054 A 
ATOM      9  C   UNL     1       8.678  -0.058  -2.824  1.00  0.00     0.051 A 
ATOM     10  C   UNL     1       7.813  -2.026  -1.889  1.00  0.00     0.166 A 
ATOM     11  C   UNL     1       8.735  -1.430  -2.720  1.00  0.00     0.165 A 
ATOM     12  O   UNL     1       8.080  -3.388  -1.959  1.00  0.00    -0.454 OA
ATOM     13  O   UNL     1       9.545  -2.426  -3.282  1.00  0.00    -0.454 OA
ATOM     14  C   UNL     1       9.412  -3.542  -2.426  1.00  0.00     0.468 C 
ENDBRANCH   5   6
ENDBRANCH   1   5
TORSDOF 3
ENDMDL
MODEL 4
REMARK VINA RESULT:      -6.7      1.153      1.639
REMARK SMILES CC(=O)CCc1ccc2c(c1)OCO2
REMARK SMILES IDX 4 1 2 2 1 3 3 4 5 5 6 6 7 7 11 8 8 9 10 10 9 11 12 12 14 13
REMARK SMILES IDX 13 14
REMARK H PARENT
REMARK Flexibility Score: inf
ROOT
ATOM      1  C   UNL     1       5.357  -0.079   1.943  1.00  0.00     0.080 C 
ENDROOT
BRANCH   1   2
ATOM      2  C   UNL     1       4.420   1.056   1.854  1.00  0.00     0.130 C 
ATOM      3  C   UNL     1       4.758   2.096   0.799  1.00  0.00     0.087 C 
ATOM      4  O   UNL     1       3.436   1.250   2.509  1.00  0.00    -0.300 OA
ENDBRANCH   1   2
BRANCH   1   5
ATOM      5  C   UNL     1       6.781   0.230   1.698  1.00  0.00     0.043 C 
BRANCH   5   6
ATOM      6  C   UNL     1       7.320  -0.095   0.374  1.00  0.00    -0.044 A 
ATOM      7  C   UNL     1       7.727   0.890  -0.526  1.00  0.00     0.008 A 
ATOM      8  C   UNL     1       7.464  -1.409  -0.006  1.00  0.00     0.054 A 
ATOM      9  C   UNL     1       8.247   0.513  -1.737  1.00  0.00     0.051 A 
ATOM     10  C   UNL     1       8.001  -1.768  -1.252  1.00  0.00     0.166 A 
ATOM     11  C   UNL     1       8.402  -0.795  -2.141  1.00  0.00     0.165 A 
ATOM     12  O   UNL     1       8.258  -2.976  -1.888  1.00  0.00    -0.454 OA
ATOM     13  O   UNL     1       8.894  -1.416  -3.296  1.00  0.00    -0.454 OA
ATOM     14  C   UNL     1       9.223  -2.732  -2.901  1.00  0.00     0.468 C 
ENDBRANCH   5   6
ENDBRANCH   1   5
TORSDOF 3
ENDMDL
MODEL 5
REMARK VINA RESULT:      -6.6      1.947      2.441
REMARK SMILES CC(=O)CCc1ccc2c(c1)OCO2
REMARK SMILES IDX 4 1 2 2 1 3 3 4 5 5 6 6 7 7 11 8 8 9 10 10 9 11 12 12 14 13
REMARK SMILES IDX 13 14
REMARK H PARENT
REMARK Flexibility Score: inf
ROOT
ATOM      1  C   UNL     1       5.971   0.202   1.982  1.00  0.00     0.080 C 
ENDROOT
BRANCH   1   2
ATOM      2  C   UNL     1       4.843   1.104   1.687  1.00  0.00     0.130 C 
ATOM      3  C   UNL     1       5.025   1.996   0.471  1.00  0.00     0.087 C 
ATOM      4  O   UNL     1       3.812   1.213   2.287  1.00  0.00    -0.300 OA
ENDBRANCH   1   2
BRANCH   1   5
ATOM      5  C   UNL     1       7.194   0.404   1.178  1.00  0.00     0.043 C 
BRANCH   5   6
ATOM      6  C   UNL     1       7.530  -0.632   0.197  1.00  0.00    -0.044 A 
ATOM      7  C   UNL     1       7.502  -0.392  -1.178  1.00  0.00     0.008 A 
ATOM      8  C   UNL     1       7.915  -1.882   0.621  1.00  0.00     0.054 A 
ATOM      9  C   UNL     1       7.855  -1.400  -2.037  1.00  0.00     0.051 A 
ATOM     10  C   UNL     1       8.272  -2.896  -0.281  1.00  0.00     0.166 A 
ATOM     11  C   UNL     1       8.243  -2.659  -1.638  1.00  0.00     0.165 A 
ATOM     12  O   UNL     1       8.689  -4.215  -0.146  1.00  0.00    -0.454 OA
ATOM     13  O   UNL     1       8.640  -3.825  -2.306  1.00  0.00    -0.454 OA
ATOM     14  C   UNL     1       9.350  -4.582  -1.348  1.00  0.00     0.468 C 
ENDBRANCH   5   6
ENDBRANCH   1   5
TORSDOF 3
ENDMDL
