@<TRIPOS>MOLECULE
/home/cewinharhar/GITHUB/reincatalyze/data/processed/docking_pred/2023-May-31-1727_sub9_nm5_bs15_s42_ex16_mel10_mts10000_k50_ec075_g099_lra3e-4_lrc3e-3/dea2b8be3c05a7e32d8e1c0cb085cc688668c765_ligand_9.pdbqt
 14 15 0 0 0
SMALL
GASTEIGER

@<TRIPOS>ATOM
      1  C          6.2450    1.2210    0.9160 C.3     1  UNL1        0.0800
      2  C          5.5590    0.4120    1.9400 C.2     1  UNL1        0.1300
      3  C          6.3140   -0.8200    2.4090 C.3     1  UNL1        0.0870
      4  O          4.4880    0.6120    2.4390 O.2     1  UNL1       -0.3000
      5  C          5.8980    0.9230   -0.4890 C.3     1  UNL1        0.0430
      6  C          6.8640    0.1410   -1.2660 C.2     1  UNL1       -0.0440
      7  C          7.7940    0.7410   -2.1180 C.2     1  UNL1        0.0080
      8  C          6.8940   -1.2290   -1.1490 C.2     1  UNL1        0.0540
      9  C          8.6860   -0.0500   -2.7940 C.2     1  UNL1        0.0510
     10  C          7.8200   -2.0150   -1.8530 C.2     1  UNL1        0.1660
     11  C          8.7360   -1.4230   -2.6940 C.2     1  UNL1        0.1650
     12  O          8.0770   -3.3780   -1.9300 O.2     1  UNL1       -0.4540
     13  O          9.5330   -2.4220   -3.2670 O.2     1  UNL1       -0.4540
     14  C          9.4030   -3.5390   -2.4120 C.3     1  UNL1        0.4680
@<TRIPOS>BOND
     1    13    11    1
     2    13    14    1
     3     9    11    2
     4     9     7    1
     5    11    10    1
     6    14    12    1
     7     7     6    2
     8    12    10    1
     9    10     8    2
    10     6     8    1
    11     6     5    1
    12     5     1    1
    13     1     2    1
    14     2     3    1
    15     2     4    2
