@<TRIPOS>MOLECULE
/home/cewinharhar/GITHUB/reincatalyze/data/processed/docking_pred/2023-May-31-1727_sub9_nm5_bs15_s42_ex16_mel10_mts10000_k50_ec075_g099_lra3e-4_lrc3e-3/dea2b8be3c05a7e32d8e1c0cb085cc688668c765_ligand_9.pdbqt
 14 15 0 0 0
SMALL
GASTEIGER

@<TRIPOS>ATOM
      1  C          5.2860    0.0030    2.0170 C.3     1  UNL1        0.0800
      2  C          4.3820    1.1580    1.8700 C.2     1  UNL1        0.1300
      3  C          4.7650    2.1500    0.7850 C.3     1  UNL1        0.0870
      4  O          3.3910    1.4020    2.5000 O.2     1  UNL1       -0.3000
      5  C          6.6600    0.1820    1.5030 C.3     1  UNL1        0.0430
      6  C          7.0440   -0.6060    0.3290 C.2     1  UNL1       -0.0440
      7  C          6.8110   -0.1620   -0.9740 C.2     1  UNL1        0.0080
      8  C          7.6810   -1.8150    0.4890 C.2     1  UNL1        0.0540
      9  C          7.2220   -0.9390   -2.0260 C.2     1  UNL1        0.0510
     10  C          8.0910   -2.5900   -0.6070 C.2     1  UNL1        0.1660
     11  C          7.8610   -2.1520   -1.8920 C.2     1  UNL1        0.1650
     12  O          8.7350   -3.8130   -0.7440 O.2     1  UNL1       -0.4540
     13  O          8.3630   -3.1030   -2.7890 O.2     1  UNL1       -0.4540
     14  C          9.3000   -3.8570   -2.0470 C.3     1  UNL1        0.4680
@<TRIPOS>BOND
     1    13    14    1
     2    13    11    1
     3    14    12    1
     4     9    11    2
     5     9     7    1
     6    11    10    1
     7     7     6    2
     8    12    10    1
     9    10     8    2
    10     6     8    1
    11     6     5    1
    12     3     2    1
    13     5     1    1
    14     2     1    1
    15     2     4    2
