@<TRIPOS>MOLECULE
/home/cewinharhar/GITHUB/reincatalyze/data/processed/docking_pred/2023-May-31-1727_sub9_nm5_bs15_s42_ex16_mel10_mts10000_k50_ec075_g099_lra3e-4_lrc3e-3/dea2b8be3c05a7e32d8e1c0cb085cc688668c765_ligand_9.pdbqt
 14 15 0 0 0
SMALL
GASTEIGER

@<TRIPOS>ATOM
      1  C          5.6240    1.8740    1.2610 C.3     1  UNL1        0.0800
      2  C          5.0730    0.7360    2.0200 C.2     1  UNL1        0.1300
      3  C          6.0120   -0.4460    2.1920 C.3     1  UNL1        0.0870
      4  O          3.9840    0.6370    2.5100 O.2     1  UNL1       -0.3000
      5  C          5.6000    1.7470   -0.2110 C.3     1  UNL1        0.0430
      6  C          6.6880    0.9880   -0.8360 C.2     1  UNL1       -0.0440
      7  C          8.0280    1.3520   -0.6910 C.2     1  UNL1        0.0080
      8  C          6.4060   -0.1400   -1.5710 C.2     1  UNL1        0.0540
      9  C          8.9950    0.5800   -1.2810 C.2     1  UNL1        0.0510
     10  C          7.4170   -0.9120   -2.1640 C.2     1  UNL1        0.1660
     11  C          8.7390   -0.5520   -2.0220 C.2     1  UNL1        0.1650
     12  O          7.4310   -2.0660   -2.9380 O.2     1  UNL1       -0.4540
     13  O          9.5340   -1.4820   -2.7040 O.2     1  UNL1       -0.4540
     14  C          8.7280   -2.6340   -2.8400 C.3     1  UNL1        0.4680
@<TRIPOS>BOND
     1    12    14    1
     2    12    10    1
     3    14    13    1
     4    13    11    1
     5    10    11    2
     6    10     8    1
     7    11     9    1
     8     8     6    2
     9     9     7    2
    10     6     7    1
    11     6     5    1
    12     5     1    1
    13     1     2    1
    14     2     3    1
    15     2     4    2
