MODEL 1
REMARK VINA RESULT:      -7.7      0.000      0.000
REMARK SMILES CC(=O)CCc1ccc2c(c1)OCO2
REMARK SMILES IDX 4 1 2 2 1 3 3 4 5 5 6 6 7 7 11 8 8 9 10 10 9 11 12 12 14 13
REMARK SMILES IDX 13 14
REMARK H PARENT
REMARK Flexibility Score: inf
ROOT
ATOM      1  C   UNL     1       5.624   1.874   1.261  1.00  0.00     0.080 C 
ENDROOT
BRANCH   1   2
ATOM      2  C   UNL     1       5.073   0.736   2.020  1.00  0.00     0.130 C 
ATOM      3  C   UNL     1       6.012  -0.446   2.192  1.00  0.00     0.087 C 
ATOM      4  O   UNL     1       3.984   0.637   2.510  1.00  0.00    -0.300 OA
ENDBRANCH   1   2
BRANCH   1   5
ATOM      5  C   UNL     1       5.600   1.747  -0.211  1.00  0.00     0.043 C 
BRANCH   5   6
ATOM      6  C   UNL     1       6.688   0.988  -0.836  1.00  0.00    -0.044 A 
ATOM      7  C   UNL     1       8.028   1.352  -0.691  1.00  0.00     0.008 A 
ATOM      8  C   UNL     1       6.406  -0.140  -1.571  1.00  0.00     0.054 A 
ATOM      9  C   UNL     1       8.995   0.580  -1.281  1.00  0.00     0.051 A 
ATOM     10  C   UNL     1       7.417  -0.912  -2.164  1.00  0.00     0.166 A 
ATOM     11  C   UNL     1       8.739  -0.552  -2.022  1.00  0.00     0.165 A 
ATOM     12  O   UNL     1       7.431  -2.066  -2.938  1.00  0.00    -0.454 OA
ATOM     13  O   UNL     1       9.534  -1.482  -2.704  1.00  0.00    -0.454 OA
ATOM     14  C   UNL     1       8.728  -2.634  -2.840  1.00  0.00     0.468 C 
ENDBRANCH   5   6
ENDBRANCH   1   5
TORSDOF 3
ENDMDL
MODEL 2
REMARK VINA RESULT:      -7.0      1.085      1.163
REMARK SMILES CC(=O)CCc1ccc2c(c1)OCO2
REMARK SMILES IDX 4 1 2 2 1 3 3 4 5 5 6 6 7 7 11 8 8 9 10 10 9 11 12 12 14 13
REMARK SMILES IDX 13 14
REMARK H PARENT
REMARK Flexibility Score: inf
ROOT
ATOM      1  C   UNL     1       6.245   1.221   0.916  1.00  0.00     0.080 C 
ENDROOT
BRANCH   1   2
ATOM      2  C   UNL     1       5.559   0.412   1.940  1.00  0.00     0.130 C 
ATOM      3  C   UNL     1       6.314  -0.820   2.409  1.00  0.00     0.087 C 
ATOM      4  O   UNL     1       4.488   0.612   2.439  1.00  0.00    -0.300 OA
ENDBRANCH   1   2
BRANCH   1   5
ATOM      5  C   UNL     1       5.898   0.923  -0.489  1.00  0.00     0.043 C 
BRANCH   5   6
ATOM      6  C   UNL     1       6.864   0.141  -1.266  1.00  0.00    -0.044 A 
ATOM      7  C   UNL     1       7.794   0.741  -2.118  1.00  0.00     0.008 A 
ATOM      8  C   UNL     1       6.894  -1.229  -1.149  1.00  0.00     0.054 A 
ATOM      9  C   UNL     1       8.686  -0.050  -2.794  1.00  0.00     0.051 A 
ATOM     10  C   UNL     1       7.820  -2.015  -1.853  1.00  0.00     0.166 A 
ATOM     11  C   UNL     1       8.736  -1.423  -2.694  1.00  0.00     0.165 A 
ATOM     12  O   UNL     1       8.077  -3.378  -1.930  1.00  0.00    -0.454 OA
ATOM     13  O   UNL     1       9.533  -2.422  -3.267  1.00  0.00    -0.454 OA
ATOM     14  C   UNL     1       9.403  -3.539  -2.412  1.00  0.00     0.468 C 
ENDBRANCH   5   6
ENDBRANCH   1   5
TORSDOF 3
ENDMDL
MODEL 3
REMARK VINA RESULT:      -6.8      1.150      1.633
REMARK SMILES CC(=O)CCc1ccc2c(c1)OCO2
REMARK SMILES IDX 4 1 2 2 1 3 3 4 5 5 6 6 7 7 11 8 8 9 10 10 9 11 12 12 14 13
REMARK SMILES IDX 13 14
REMARK H PARENT
REMARK Flexibility Score: inf
ROOT
ATOM      1  C   UNL     1       5.400  -0.063   1.952  1.00  0.00     0.080 C 
ENDROOT
BRANCH   1   2
ATOM      2  C   UNL     1       4.445   1.057   1.864  1.00  0.00     0.130 C 
ATOM      3  C   UNL     1       4.763   2.101   0.808  1.00  0.00     0.087 C 
ATOM      4  O   UNL     1       3.460   1.236   2.521  1.00  0.00    -0.300 OA
ENDBRANCH   1   2
BRANCH   1   5
ATOM      5  C   UNL     1       6.818   0.269   1.699  1.00  0.00     0.043 C 
BRANCH   5   6
ATOM      6  C   UNL     1       7.360  -0.068   0.379  1.00  0.00    -0.044 A 
ATOM      7  C   UNL     1       7.809   0.909  -0.512  1.00  0.00     0.008 A 
ATOM      8  C   UNL     1       7.466  -1.384  -0.007  1.00  0.00     0.054 A 
ATOM      9  C   UNL     1       8.329   0.521  -1.719  1.00  0.00     0.051 A 
ATOM     10  C   UNL     1       8.004  -1.753  -1.249  1.00  0.00     0.166 A 
ATOM     11  C   UNL     1       8.446  -0.789  -2.129  1.00  0.00     0.165 A 
ATOM     12  O   UNL     1       8.228  -2.966  -1.889  1.00  0.00    -0.454 OA
ATOM     13  O   UNL     1       8.930  -1.420  -3.282  1.00  0.00    -0.454 OA
ATOM     14  C   UNL     1       9.211  -2.748  -2.890  1.00  0.00     0.468 C 
ENDBRANCH   5   6
ENDBRANCH   1   5
TORSDOF 3
ENDMDL
MODEL 4
REMARK VINA RESULT:      -6.7      1.534      1.851
REMARK SMILES CC(=O)CCc1ccc2c(c1)OCO2
REMARK SMILES IDX 4 1 2 2 1 3 3 4 5 5 6 6 7 7 11 8 8 9 10 10 9 11 12 12 14 13
REMARK SMILES IDX 13 14
REMARK H PARENT
REMARK Flexibility Score: inf
ROOT
ATOM      1  C   UNL     1       5.534   1.754   0.153  1.00  0.00     0.080 C 
ENDROOT
BRANCH   1   2
ATOM      2  C   UNL     1       4.824   1.322   1.371  1.00  0.00     0.130 C 
ATOM      3  C   UNL     1       5.395   0.092   2.055  1.00  0.00     0.087 C 
ATOM      4  O   UNL     1       3.860   1.823   1.877  1.00  0.00    -0.300 OA
ENDBRANCH   1   2
BRANCH   1   5
ATOM      5  C   UNL     1       6.963   1.387   0.068  1.00  0.00     0.043 C 
BRANCH   5   6
ATOM      6  C   UNL     1       7.302   0.185  -0.700  1.00  0.00    -0.044 A 
ATOM      7  C   UNL     1       7.293   0.167  -2.096  1.00  0.00     0.008 A 
ATOM      8  C   UNL     1       7.670  -0.968  -0.047  1.00  0.00     0.054 A 
ATOM      9  C   UNL     1       7.647  -0.984  -2.750  1.00  0.00     0.051 A 
ATOM     10  C   UNL     1       8.029  -2.133  -0.742  1.00  0.00     0.166 A 
ATOM     11  C   UNL     1       8.019  -2.151  -2.119  1.00  0.00     0.165 A 
ATOM     12  O   UNL     1       8.432  -3.407  -0.361  1.00  0.00    -0.454 OA
ATOM     13  O   UNL     1       8.413  -3.422  -2.556  1.00  0.00    -0.454 OA
ATOM     14  C   UNL     1       9.105  -3.994  -1.465  1.00  0.00     0.468 C 
ENDBRANCH   5   6
ENDBRANCH   1   5
TORSDOF 3
ENDMDL
MODEL 5
REMARK VINA RESULT:      -6.7      1.645      2.239
REMARK SMILES CC(=O)CCc1ccc2c(c1)OCO2
REMARK SMILES IDX 4 1 2 2 1 3 3 4 5 5 6 6 7 7 11 8 8 9 10 10 9 11 12 12 14 13
REMARK SMILES IDX 13 14
REMARK H PARENT
REMARK Flexibility Score: inf
ROOT
ATOM      1  C   UNL     1       5.286   0.003   2.017  1.00  0.00     0.080 C 
ENDROOT
BRANCH   1   2
ATOM      2  C   UNL     1       4.382   1.158   1.870  1.00  0.00     0.130 C 
ATOM      3  C   UNL     1       4.765   2.150   0.785  1.00  0.00     0.087 C 
ATOM      4  O   UNL     1       3.391   1.402   2.500  1.00  0.00    -0.300 OA
ENDBRANCH   1   2
BRANCH   1   5
ATOM      5  C   UNL     1       6.660   0.182   1.503  1.00  0.00     0.043 C 
BRANCH   5   6
ATOM      6  C   UNL     1       7.044  -0.606   0.329  1.00  0.00    -0.044 A 
ATOM      7  C   UNL     1       6.811  -0.162  -0.974  1.00  0.00     0.008 A 
ATOM      8  C   UNL     1       7.681  -1.815   0.489  1.00  0.00     0.054 A 
ATOM      9  C   UNL     1       7.222  -0.939  -2.026  1.00  0.00     0.051 A 
ATOM     10  C   UNL     1       8.091  -2.590  -0.607  1.00  0.00     0.166 A 
ATOM     11  C   UNL     1       7.861  -2.152  -1.892  1.00  0.00     0.165 A 
ATOM     12  O   UNL     1       8.735  -3.813  -0.744  1.00  0.00    -0.454 OA
ATOM     13  O   UNL     1       8.363  -3.103  -2.789  1.00  0.00    -0.454 OA
ATOM     14  C   UNL     1       9.300  -3.857  -2.047  1.00  0.00     0.468 C 
ENDBRANCH   5   6
ENDBRANCH   1   5
TORSDOF 3
ENDMDL
