@<TRIPOS>MOLECULE
/home/cewinharhar/GITHUB/reincatalyze/data/processed/docking_pred/2023-May-31-1727_sub9_nm5_bs15_s42_ex16_mel10_mts10000_k50_ec075_g099_lra3e-4_lrc3e-3/dea2b8be3c05a7e32d8e1c0cb085cc688668c765_ligand_9.pdbqt
 14 15 0 0 0
SMALL
GASTEIGER

@<TRIPOS>ATOM
      1  C          5.5340    1.7540    0.1530 C.3     1  UNL1        0.0800
      2  C          4.8240    1.3220    1.3710 C.2     1  UNL1        0.1300
      3  C          5.3950    0.0920    2.0550 C.3     1  UNL1        0.0870
      4  O          3.8600    1.8230    1.8770 O.2     1  UNL1       -0.3000
      5  C          6.9630    1.3870    0.0680 C.3     1  UNL1        0.0430
      6  C          7.3020    0.1850   -0.7000 C.2     1  UNL1       -0.0440
      7  C          7.2930    0.1670   -2.0960 C.2     1  UNL1        0.0080
      8  C          7.6700   -0.9680   -0.0470 C.2     1  UNL1        0.0540
      9  C          7.6470   -0.9840   -2.7500 C.2     1  UNL1        0.0510
     10  C          8.0290   -2.1330   -0.7420 C.2     1  UNL1        0.1660
     11  C          8.0190   -2.1510   -2.1190 C.2     1  UNL1        0.1650
     12  O          8.4320   -3.4070   -0.3610 O.2     1  UNL1       -0.4540
     13  O          8.4130   -3.4220   -2.5560 O.2     1  UNL1       -0.4540
     14  C          9.1050   -3.9940   -1.4650 C.3     1  UNL1        0.4680
@<TRIPOS>BOND
     1     9    11    2
     2     9     7    1
     3    13    11    1
     4    13    14    1
     5    11    10    1
     6     7     6    2
     7    14    12    1
     8    10    12    1
     9    10     8    2
    10     6     8    1
    11     6     5    1
    12     5     1    1
    13     1     2    1
    14     2     4    2
    15     2     3    1
