@<TRIPOS>MOLECULE
/home/cewinharhar/GITHUB/reincatalyze/data/processed/docking_pred/2023-May-31-1727_sub9_nm5_bs15_s42_ex16_mel10_mts10000_k50_ec075_g099_lra3e-4_lrc3e-3/dec3c7f7dc181dec8ebb65c61c0ebadd1663ac5d_ligand_9.pdbqt
 14 15 0 0 0
SMALL
GASTEIGER

@<TRIPOS>ATOM
      1  C          6.1980    1.2450    0.8800 C.3     1  UNL1        0.0800
      2  C          5.5210    0.4370    1.9100 C.2     1  UNL1        0.1300
      3  C          6.2880   -0.7840    2.3870 C.3     1  UNL1        0.0870
      4  O          4.4480    0.6300    2.4090 O.2     1  UNL1       -0.3000
      5  C          5.8560    0.9320   -0.5230 C.3     1  UNL1        0.0430
      6  C          6.8280    0.1500   -1.2920 C.2     1  UNL1       -0.0440
      7  C          7.7470    0.7480   -2.1560 C.2     1  UNL1        0.0080
      8  C          6.8760   -1.2180   -1.1530 C.2     1  UNL1        0.0540
      9  C          8.6470   -0.0430   -2.8230 C.2     1  UNL1        0.0510
     10  C          7.8080   -2.0030   -1.8490 C.2     1  UNL1        0.1660
     11  C          8.7140   -1.4130   -2.7020 C.2     1  UNL1        0.1650
     12  O          8.0820   -3.3640   -1.9050 O.2     1  UNL1       -0.4540
     13  O          9.5210   -2.4110   -3.2620 O.2     1  UNL1       -0.4540
     14  C          9.4080   -3.5160   -2.3900 C.3     1  UNL1        0.4680
@<TRIPOS>BOND
     1    13    11    1
     2    13    14    1
     3     9    11    2
     4     9     7    1
     5    11    10    1
     6    14    12    1
     7     7     6    2
     8    12    10    1
     9    10     8    2
    10     6     8    1
    11     6     5    1
    12     5     1    1
    13     1     2    1
    14     2     3    1
    15     2     4    2
