@<TRIPOS>MOLECULE
/home/cewinharhar/GITHUB/reincatalyze/data/processed/docking_pred/2023-May-31-1727_sub9_nm5_bs15_s42_ex16_mel10_mts10000_k50_ec075_g099_lra3e-4_lrc3e-3/dec3c7f7dc181dec8ebb65c61c0ebadd1663ac5d_ligand_9.pdbqt
 14 15 0 0 0
SMALL
GASTEIGER

@<TRIPOS>ATOM
      1  C          5.6450    1.5520   -0.0500 C.3     1  UNL1        0.0800
      2  C          4.9360    1.3000    1.2180 C.2     1  UNL1        0.1300
      3  C          5.4510    0.1230    2.0280 C.3     1  UNL1        0.0870
      4  O          4.0120    1.9100    1.6770 O.2     1  UNL1       -0.3000
      5  C          7.0760    1.1850   -0.0800 C.3     1  UNL1        0.0430
      6  C          7.4300   -0.0830   -0.7240 C.2     1  UNL1       -0.0440
      7  C          7.4580   -0.2300   -2.1120 C.2     1  UNL1        0.0080
      8  C          7.7760   -1.1720    0.0420 C.2     1  UNL1        0.0540
      9  C          7.8250   -1.4380   -2.6470 C.2     1  UNL1        0.0510
     10  C          8.1470   -2.3970   -0.5320 C.2     1  UNL1        0.1660
     11  C          8.1750   -2.5420   -1.9020 C.2     1  UNL1        0.1650
     12  O          8.5350   -3.6310   -0.0240 O.2     1  UNL1       -0.4540
     13  O          8.5750   -3.8490   -2.2080 O.2     1  UNL1       -0.4540
     14  C          9.2350   -4.3180   -1.0510 C.3     1  UNL1        0.4680
@<TRIPOS>BOND
     1     9     7    1
     2     9    11    2
     3    13    11    1
     4    13    14    1
     5     7     6    2
     6    11    10    1
     7    14    12    1
     8     6     5    1
     9     6     8    1
    10    10    12    1
    11    10     8    2
    12     5     1    1
    13     1     2    1
    14     2     4    2
    15     2     3    1
