@<TRIPOS>MOLECULE
/home/cewinharhar/GITHUB/reincatalyze/data/processed/docking_pred/2023-May-31-1727_sub9_nm5_bs15_s42_ex16_mel10_mts10000_k50_ec075_g099_lra3e-4_lrc3e-3/dec3c7f7dc181dec8ebb65c61c0ebadd1663ac5d_ligand_9.pdbqt
 14 15 0 0 0
SMALL
GASTEIGER

@<TRIPOS>ATOM
      1  C          5.3710   -0.0990    1.9270 C.3     1  UNL1        0.0800
      2  C          4.4450    1.0460    1.8620 C.2     1  UNL1        0.1300
      3  C          4.7830    2.0970    0.8180 C.3     1  UNL1        0.0870
      4  O          3.4680    1.2410    2.5280 O.2     1  UNL1       -0.3000
      5  C          6.8000    0.2050    1.7010 C.3     1  UNL1        0.0430
      6  C          7.3510   -0.1110    0.3810 C.2     1  UNL1       -0.0440
      7  C          7.7950    0.8790   -0.4970 C.2     1  UNL1        0.0080
      8  C          7.4720   -1.4220   -0.0190 C.2     1  UNL1        0.0540
      9  C          8.3260    0.5100   -1.7060 C.2     1  UNL1        0.0510
     10  C          8.0200   -1.7720   -1.2630 C.2     1  UNL1        0.1660
     11  C          8.4570   -0.7940   -2.1290 C.2     1  UNL1        0.1650
     12  O          8.2600   -2.9750   -1.9150 O.2     1  UNL1       -0.4540
     13  O          8.9530   -1.4070   -3.2870 O.2     1  UNL1       -0.4540
     14  C          9.2460   -2.7360   -2.9090 C.3     1  UNL1        0.4680
@<TRIPOS>BOND
     1    13    14    1
     2    13    11    1
     3    14    12    1
     4    11     9    2
     5    11    10    1
     6    12    10    1
     7     9     7    1
     8    10     8    2
     9     7     6    2
    10     8     6    1
    11     6     5    1
    12     3     2    1
    13     5     1    1
    14     2     1    1
    15     2     4    2
