@<TRIPOS>MOLECULE
/home/cewinharhar/GITHUB/reincatalyze/data/processed/docking_pred/2023-May-31-1727_sub9_nm5_bs15_s42_ex16_mel10_mts10000_k50_ec075_g099_lra3e-4_lrc3e-3/dec3c7f7dc181dec8ebb65c61c0ebadd1663ac5d_ligand_9.pdbqt
 14 15 0 0 0
SMALL
GASTEIGER

@<TRIPOS>ATOM
      1  C          5.5160   -0.0180    2.0460 C.3     1  UNL1        0.0800
      2  C          4.5770    1.0990    1.8370 C.2     1  UNL1        0.1300
      3  C          4.9620    2.0750    0.7380 C.3     1  UNL1        0.0870
      4  O          3.5580    1.3240    2.4260 O.2     1  UNL1       -0.3000
      5  C          6.8700    0.1540    1.4790 C.3     1  UNL1        0.0430
      6  C          7.2840   -0.7870    0.4350 C.2     1  UNL1       -0.0440
      7  C          7.2180   -0.4670   -0.9230 C.2     1  UNL1        0.0080
      8  C          7.7820   -2.0220    0.7780 C.2     1  UNL1        0.0540
      9  C          7.6480   -1.3860   -1.8450 C.2     1  UNL1        0.0510
     10  C          8.2150   -2.9430   -0.1870 C.2     1  UNL1        0.1660
     11  C          8.1500   -2.6280   -1.5260 C.2     1  UNL1        0.1650
     12  O          8.7480   -4.2250   -0.1360 O.2     1  UNL1       -0.4540
     13  O          8.6400   -3.7110   -2.2680 O.2     1  UNL1       -0.4540
     14  C          9.4250   -4.4590   -1.3630 C.3     1  UNL1        0.4680
@<TRIPOS>BOND
     1    13    11    1
     2    13    14    1
     3     9    11    2
     4     9     7    1
     5    11    10    1
     6    14    12    1
     7     7     6    2
     8    10    12    1
     9    10     8    2
    10     6     8    1
    11     6     5    1
    12     3     2    1
    13     5     1    1
    14     2     1    1
    15     2     4    2
