@<TRIPOS>MOLECULE
/home/cewinharhar/GITHUB/reincatalyze/data/processed/docking_pred/2023-May-31-1727_sub9_nm5_bs15_s42_ex16_mel10_mts10000_k50_ec075_g099_lra3e-4_lrc3e-3/dec3c7f7dc181dec8ebb65c61c0ebadd1663ac5d_ligand_9.pdbqt
 14 15 0 0 0
SMALL
GASTEIGER

@<TRIPOS>ATOM
      1  C          5.5280    1.9110    1.2010 C.3     1  UNL1        0.0800
      2  C          5.0600    0.7620    1.9980 C.2     1  UNL1        0.1300
      3  C          6.0640   -0.3660    2.1630 C.3     1  UNL1        0.0870
      4  O          3.9930    0.6170    2.5230 O.2     1  UNL1       -0.3000
      5  C          5.5110    1.7360   -0.2660 C.3     1  UNL1        0.0430
      6  C          6.6200    0.9880   -0.8650 C.2     1  UNL1       -0.0440
      7  C          7.9540    1.3440   -0.6580 C.2     1  UNL1        0.0080
      8  C          6.3660   -0.1210   -1.6380 C.2     1  UNL1        0.0540
      9  C          8.9430    0.5830   -1.2270 C.2     1  UNL1        0.0510
     10  C          7.3980   -0.8820   -2.2080 C.2     1  UNL1        0.1660
     11  C          8.7140   -0.5300   -2.0050 C.2     1  UNL1        0.1650
     12  O          7.4400   -2.0170   -3.0090 O.2     1  UNL1       -0.4540
     13  O          9.5340   -1.4460   -2.6770 O.2     1  UNL1       -0.4540
     14  C          8.7310   -2.5920   -2.8730 C.3     1  UNL1        0.4680
@<TRIPOS>BOND
     1    12    14    1
     2    12    10    1
     3    14    13    1
     4    13    11    1
     5    10    11    2
     6    10     8    1
     7    11     9    1
     8     8     6    2
     9     9     7    2
    10     6     7    1
    11     6     5    1
    12     5     1    1
    13     1     2    1
    14     2     3    1
    15     2     4    2
