MODEL 1
REMARK VINA RESULT:      -7.7      0.000      0.000
REMARK SMILES CC(=O)CCc1ccc2c(c1)OCO2
REMARK SMILES IDX 4 1 2 2 1 3 3 4 5 5 6 6 7 7 11 8 8 9 10 10 9 11 12 12 14 13
REMARK SMILES IDX 13 14
REMARK H PARENT
REMARK Flexibility Score: inf
ROOT
ATOM      1  C   UNL     1       5.528   1.911   1.201  1.00  0.00     0.080 C 
ENDROOT
BRANCH   1   2
ATOM      2  C   UNL     1       5.060   0.762   1.998  1.00  0.00     0.130 C 
ATOM      3  C   UNL     1       6.064  -0.366   2.163  1.00  0.00     0.087 C 
ATOM      4  O   UNL     1       3.993   0.617   2.523  1.00  0.00    -0.300 OA
ENDBRANCH   1   2
BRANCH   1   5
ATOM      5  C   UNL     1       5.511   1.736  -0.266  1.00  0.00     0.043 C 
BRANCH   5   6
ATOM      6  C   UNL     1       6.620   0.988  -0.865  1.00  0.00    -0.044 A 
ATOM      7  C   UNL     1       7.954   1.344  -0.658  1.00  0.00     0.008 A 
ATOM      8  C   UNL     1       6.366  -0.121  -1.638  1.00  0.00     0.054 A 
ATOM      9  C   UNL     1       8.943   0.583  -1.227  1.00  0.00     0.051 A 
ATOM     10  C   UNL     1       7.398  -0.882  -2.208  1.00  0.00     0.166 A 
ATOM     11  C   UNL     1       8.714  -0.530  -2.005  1.00  0.00     0.165 A 
ATOM     12  O   UNL     1       7.440  -2.017  -3.009  1.00  0.00    -0.454 OA
ATOM     13  O   UNL     1       9.534  -1.446  -2.677  1.00  0.00    -0.454 OA
ATOM     14  C   UNL     1       8.731  -2.592  -2.873  1.00  0.00     0.468 C 
ENDBRANCH   5   6
ENDBRANCH   1   5
TORSDOF 3
ENDMDL
MODEL 2
REMARK VINA RESULT:      -7.0      1.111      1.196
REMARK SMILES CC(=O)CCc1ccc2c(c1)OCO2
REMARK SMILES IDX 4 1 2 2 1 3 3 4 5 5 6 6 7 7 11 8 8 9 10 10 9 11 12 12 14 13
REMARK SMILES IDX 13 14
REMARK H PARENT
REMARK Flexibility Score: inf
ROOT
ATOM      1  C   UNL     1       6.198   1.245   0.880  1.00  0.00     0.080 C 
ENDROOT
BRANCH   1   2
ATOM      2  C   UNL     1       5.521   0.437   1.910  1.00  0.00     0.130 C 
ATOM      3  C   UNL     1       6.288  -0.784   2.387  1.00  0.00     0.087 C 
ATOM      4  O   UNL     1       4.448   0.630   2.409  1.00  0.00    -0.300 OA
ENDBRANCH   1   2
BRANCH   1   5
ATOM      5  C   UNL     1       5.856   0.932  -0.523  1.00  0.00     0.043 C 
BRANCH   5   6
ATOM      6  C   UNL     1       6.828   0.150  -1.292  1.00  0.00    -0.044 A 
ATOM      7  C   UNL     1       7.747   0.748  -2.156  1.00  0.00     0.008 A 
ATOM      8  C   UNL     1       6.876  -1.218  -1.153  1.00  0.00     0.054 A 
ATOM      9  C   UNL     1       8.647  -0.043  -2.823  1.00  0.00     0.051 A 
ATOM     10  C   UNL     1       7.808  -2.003  -1.849  1.00  0.00     0.166 A 
ATOM     11  C   UNL     1       8.714  -1.413  -2.702  1.00  0.00     0.165 A 
ATOM     12  O   UNL     1       8.082  -3.364  -1.905  1.00  0.00    -0.454 OA
ATOM     13  O   UNL     1       9.521  -2.411  -3.262  1.00  0.00    -0.454 OA
ATOM     14  C   UNL     1       9.408  -3.516  -2.390  1.00  0.00     0.468 C 
ENDBRANCH   5   6
ENDBRANCH   1   5
TORSDOF 3
ENDMDL
MODEL 3
REMARK VINA RESULT:      -6.9      1.780      2.147
REMARK SMILES CC(=O)CCc1ccc2c(c1)OCO2
REMARK SMILES IDX 4 1 2 2 1 3 3 4 5 5 6 6 7 7 11 8 8 9 10 10 9 11 12 12 14 13
REMARK SMILES IDX 13 14
REMARK H PARENT
REMARK Flexibility Score: inf
ROOT
ATOM      1  C   UNL     1       5.645   1.552  -0.050  1.00  0.00     0.080 C 
ENDROOT
BRANCH   1   2
ATOM      2  C   UNL     1       4.936   1.300   1.218  1.00  0.00     0.130 C 
ATOM      3  C   UNL     1       5.451   0.123   2.028  1.00  0.00     0.087 C 
ATOM      4  O   UNL     1       4.012   1.910   1.677  1.00  0.00    -0.300 OA
ENDBRANCH   1   2
BRANCH   1   5
ATOM      5  C   UNL     1       7.076   1.185  -0.080  1.00  0.00     0.043 C 
BRANCH   5   6
ATOM      6  C   UNL     1       7.430  -0.083  -0.724  1.00  0.00    -0.044 A 
ATOM      7  C   UNL     1       7.458  -0.230  -2.112  1.00  0.00     0.008 A 
ATOM      8  C   UNL     1       7.776  -1.172   0.042  1.00  0.00     0.054 A 
ATOM      9  C   UNL     1       7.825  -1.438  -2.647  1.00  0.00     0.051 A 
ATOM     10  C   UNL     1       8.147  -2.397  -0.532  1.00  0.00     0.166 A 
ATOM     11  C   UNL     1       8.175  -2.542  -1.902  1.00  0.00     0.165 A 
ATOM     12  O   UNL     1       8.535  -3.631  -0.024  1.00  0.00    -0.454 OA
ATOM     13  O   UNL     1       8.575  -3.849  -2.208  1.00  0.00    -0.454 OA
ATOM     14  C   UNL     1       9.235  -4.318  -1.051  1.00  0.00     0.468 C 
ENDBRANCH   5   6
ENDBRANCH   1   5
TORSDOF 3
ENDMDL
MODEL 4
REMARK VINA RESULT:      -6.8      1.949      2.533
REMARK SMILES CC(=O)CCc1ccc2c(c1)OCO2
REMARK SMILES IDX 4 1 2 2 1 3 3 4 5 5 6 6 7 7 11 8 8 9 10 10 9 11 12 12 14 13
REMARK SMILES IDX 13 14
REMARK H PARENT
REMARK Flexibility Score: inf
ROOT
ATOM      1  C   UNL     1       5.516  -0.018   2.046  1.00  0.00     0.080 C 
ENDROOT
BRANCH   1   2
ATOM      2  C   UNL     1       4.577   1.099   1.837  1.00  0.00     0.130 C 
ATOM      3  C   UNL     1       4.962   2.075   0.738  1.00  0.00     0.087 C 
ATOM      4  O   UNL     1       3.558   1.324   2.426  1.00  0.00    -0.300 OA
ENDBRANCH   1   2
BRANCH   1   5
ATOM      5  C   UNL     1       6.870   0.154   1.479  1.00  0.00     0.043 C 
BRANCH   5   6
ATOM      6  C   UNL     1       7.284  -0.787   0.435  1.00  0.00    -0.044 A 
ATOM      7  C   UNL     1       7.218  -0.467  -0.923  1.00  0.00     0.008 A 
ATOM      8  C   UNL     1       7.782  -2.022   0.778  1.00  0.00     0.054 A 
ATOM      9  C   UNL     1       7.648  -1.386  -1.845  1.00  0.00     0.051 A 
ATOM     10  C   UNL     1       8.215  -2.943  -0.187  1.00  0.00     0.166 A 
ATOM     11  C   UNL     1       8.150  -2.628  -1.526  1.00  0.00     0.165 A 
ATOM     12  O   UNL     1       8.748  -4.225  -0.136  1.00  0.00    -0.454 OA
ATOM     13  O   UNL     1       8.640  -3.711  -2.268  1.00  0.00    -0.454 OA
ATOM     14  C   UNL     1       9.425  -4.459  -1.363  1.00  0.00     0.468 C 
ENDBRANCH   5   6
ENDBRANCH   1   5
TORSDOF 3
ENDMDL
MODEL 5
REMARK VINA RESULT:      -6.7      1.160      1.666
REMARK SMILES CC(=O)CCc1ccc2c(c1)OCO2
REMARK SMILES IDX 4 1 2 2 1 3 3 4 5 5 6 6 7 7 11 8 8 9 10 10 9 11 12 12 14 13
REMARK SMILES IDX 13 14
REMARK H PARENT
REMARK Flexibility Score: inf
ROOT
ATOM      1  C   UNL     1       5.371  -0.099   1.927  1.00  0.00     0.080 C 
ENDROOT
BRANCH   1   2
ATOM      2  C   UNL     1       4.445   1.046   1.862  1.00  0.00     0.130 C 
ATOM      3  C   UNL     1       4.783   2.097   0.818  1.00  0.00     0.087 C 
ATOM      4  O   UNL     1       3.468   1.241   2.528  1.00  0.00    -0.300 OA
ENDBRANCH   1   2
BRANCH   1   5
ATOM      5  C   UNL     1       6.800   0.205   1.701  1.00  0.00     0.043 C 
BRANCH   5   6
ATOM      6  C   UNL     1       7.351  -0.111   0.381  1.00  0.00    -0.044 A 
ATOM      7  C   UNL     1       7.795   0.879  -0.497  1.00  0.00     0.008 A 
ATOM      8  C   UNL     1       7.472  -1.422  -0.019  1.00  0.00     0.054 A 
ATOM      9  C   UNL     1       8.326   0.510  -1.706  1.00  0.00     0.051 A 
ATOM     10  C   UNL     1       8.020  -1.772  -1.263  1.00  0.00     0.166 A 
ATOM     11  C   UNL     1       8.457  -0.794  -2.129  1.00  0.00     0.165 A 
ATOM     12  O   UNL     1       8.260  -2.975  -1.915  1.00  0.00    -0.454 OA
ATOM     13  O   UNL     1       8.953  -1.407  -3.287  1.00  0.00    -0.454 OA
ATOM     14  C   UNL     1       9.246  -2.736  -2.909  1.00  0.00     0.468 C 
ENDBRANCH   5   6
ENDBRANCH   1   5
TORSDOF 3
ENDMDL
