@<TRIPOS>MOLECULE
/home/cewinharhar/GITHUB/reincatalyze/data/processed/docking_pred/2023-May-31-1727_sub9_nm5_bs15_s42_ex16_mel10_mts10000_k50_ec075_g099_lra3e-4_lrc3e-3/df357a1c250a0cea862119ec51667dccc9d8d697_ligand_9.pdbqt
 14 15 0 0 0
SMALL
GASTEIGER

@<TRIPOS>ATOM
      1  C          5.1920    1.8400    0.7270 C.3     1  UNL1        0.0800
      2  C          4.5630    1.0880    1.8290 C.2     1  UNL1        0.1300
      3  C          5.3160   -0.1500    2.2830 C.3     1  UNL1        0.0870
      4  O          3.5400    1.3390    2.4000 O.2     1  UNL1       -0.3000
      5  C          6.6140    1.5380    0.4610 C.3     1  UNL1        0.0430
      6  C          6.9040    0.4210   -0.4440 C.2     1  UNL1       -0.0440
      7  C          6.5940    0.4660   -1.8040 C.2     1  UNL1        0.0080
      8  C          7.5270   -0.7080    0.0340 C.2     1  UNL1        0.0540
      9  C          6.9190   -0.6040   -2.5970 C.2     1  UNL1        0.0510
     10  C          7.8480   -1.7890   -0.8010 C.2     1  UNL1        0.1660
     11  C          7.5410   -1.7450   -2.1430 C.2     1  UNL1        0.1650
     12  O          8.4580   -3.0220   -0.6030 O.2     1  UNL1       -0.4540
     13  O          7.9650   -2.9390   -2.7410 O.2     1  UNL1       -0.4540
     14  C          8.9340   -3.4730   -1.8630 C.3     1  UNL1        0.4680
@<TRIPOS>BOND
     1    13    11    1
     2    13    14    1
     3     9    11    2
     4     9     7    1
     5    11    10    1
     6    14    12    1
     7     7     6    2
     8    10    12    1
     9    10     8    2
    10     6     8    1
    11     6     5    1
    12     5     1    1
    13     1     2    1
    14     2     3    1
    15     2     4    2
