@<TRIPOS>MOLECULE
/home/cewinharhar/GITHUB/reincatalyze/data/processed/docking_pred/2023-May-31-1727_sub9_nm5_bs15_s42_ex16_mel10_mts10000_k50_ec075_g099_lra3e-4_lrc3e-3/df357a1c250a0cea862119ec51667dccc9d8d697_ligand_9.pdbqt
 14 15 0 0 0
SMALL
GASTEIGER

@<TRIPOS>ATOM
      1  C          5.7200    1.2820   -0.2530 C.3     1  UNL1        0.0800
      2  C          5.1380    1.2990    1.1010 C.2     1  UNL1        0.1300
      3  C          5.4580    0.0890    1.9620 C.3     1  UNL1        0.0870
      4  O          4.4520    2.1480    1.5950 O.2     1  UNL1       -0.3000
      5  C          7.1590    0.9540   -0.3400 C.3     1  UNL1        0.0430
      6  C          7.5170   -0.3480   -0.9090 C.2     1  UNL1       -0.0440
      7  C          7.5610   -0.5710   -2.2870 C.2     1  UNL1        0.0080
      8  C          7.8520   -1.3940   -0.0810 C.2     1  UNL1        0.0540
      9  C          7.9300   -1.8070   -2.7510 C.2     1  UNL1        0.0510
     10  C          8.2270   -2.6490   -0.5830 C.2     1  UNL1        0.1660
     11  C          8.2690   -2.8690   -1.9420 C.2     1  UNL1        0.1650
     12  O          8.6050   -3.8540   -0.0030 O.2     1  UNL1       -0.4540
     13  O          8.6700   -4.1920   -2.1720 O.2     1  UNL1       -0.4540
     14  C          9.3150   -4.5980   -0.9830 C.3     1  UNL1        0.4680
@<TRIPOS>BOND
     1     9     7    1
     2     9    11    2
     3     7     6    2
     4    13    11    1
     5    13    14    1
     6    11    10    1
     7    14    12    1
     8     6     5    1
     9     6     8    1
    10    10     8    2
    11    10    12    1
    12     5     1    1
    13     1     2    1
    14     2     4    2
    15     2     3    1
