MODEL 1
REMARK VINA RESULT:      -7.6      0.000      0.000
REMARK SMILES CC(=O)CCc1ccc2c(c1)OCO2
REMARK SMILES IDX 4 1 2 2 1 3 3 4 5 5 6 6 7 7 11 8 8 9 10 10 9 11 12 12 14 13
REMARK SMILES IDX 13 14
REMARK H PARENT
REMARK Flexibility Score: inf
ROOT
ATOM      1  C   UNL     1       5.774   1.768   1.287  1.00  0.00     0.080 C 
ENDROOT
BRANCH   1   2
ATOM      2  C   UNL     1       5.190   0.637   2.029  1.00  0.00     0.130 C 
ATOM      3  C   UNL     1       6.102  -0.565   2.206  1.00  0.00     0.087 C 
ATOM      4  O   UNL     1       4.092   0.557   2.504  1.00  0.00    -0.300 OA
ENDBRANCH   1   2
BRANCH   1   5
ATOM      5  C   UNL     1       5.730   1.672  -0.187  1.00  0.00     0.043 C 
BRANCH   5   6
ATOM      6  C   UNL     1       6.793   0.903  -0.841  1.00  0.00    -0.044 A 
ATOM      7  C   UNL     1       8.137   1.270  -0.754  1.00  0.00     0.008 A 
ATOM      8  C   UNL     1       6.485  -0.237  -1.546  1.00  0.00     0.054 A 
ATOM      9  C   UNL     1       9.082   0.488  -1.368  1.00  0.00     0.051 A 
ATOM     10  C   UNL     1       7.472  -1.019  -2.164  1.00  0.00     0.166 A 
ATOM     11  C   UNL     1       8.798  -0.656  -2.079  1.00  0.00     0.165 A 
ATOM     12  O   UNL     1       7.457  -2.185  -2.919  1.00  0.00    -0.454 OA
ATOM     13  O   UNL     1       9.567  -1.597  -2.776  1.00  0.00    -0.454 OA
ATOM     14  C   UNL     1       8.758  -2.752  -2.862  1.00  0.00     0.468 C 
ENDBRANCH   5   6
ENDBRANCH   1   5
TORSDOF 3
ENDMDL
MODEL 2
REMARK VINA RESULT:      -7.0      1.794      2.261
REMARK SMILES CC(=O)CCc1ccc2c(c1)OCO2
REMARK SMILES IDX 4 1 2 2 1 3 3 4 5 5 6 6 7 7 11 8 8 9 10 10 9 11 12 12 14 13
REMARK SMILES IDX 13 14
REMARK H PARENT
REMARK Flexibility Score: inf
ROOT
ATOM      1  C   UNL     1       5.720   1.282  -0.253  1.00  0.00     0.080 C 
ENDROOT
BRANCH   1   2
ATOM      2  C   UNL     1       5.138   1.299   1.101  1.00  0.00     0.130 C 
ATOM      3  C   UNL     1       5.458   0.089   1.962  1.00  0.00     0.087 C 
ATOM      4  O   UNL     1       4.452   2.148   1.595  1.00  0.00    -0.300 OA
ENDBRANCH   1   2
BRANCH   1   5
ATOM      5  C   UNL     1       7.159   0.954  -0.340  1.00  0.00     0.043 C 
BRANCH   5   6
ATOM      6  C   UNL     1       7.517  -0.348  -0.909  1.00  0.00    -0.044 A 
ATOM      7  C   UNL     1       7.561  -0.571  -2.287  1.00  0.00     0.008 A 
ATOM      8  C   UNL     1       7.852  -1.394  -0.081  1.00  0.00     0.054 A 
ATOM      9  C   UNL     1       7.930  -1.807  -2.751  1.00  0.00     0.051 A 
ATOM     10  C   UNL     1       8.227  -2.649  -0.583  1.00  0.00     0.166 A 
ATOM     11  C   UNL     1       8.269  -2.869  -1.942  1.00  0.00     0.165 A 
ATOM     12  O   UNL     1       8.605  -3.854  -0.003  1.00  0.00    -0.454 OA
ATOM     13  O   UNL     1       8.670  -4.192  -2.172  1.00  0.00    -0.454 OA
ATOM     14  C   UNL     1       9.315  -4.598  -0.983  1.00  0.00     0.468 C 
ENDBRANCH   5   6
ENDBRANCH   1   5
TORSDOF 3
ENDMDL
MODEL 3
REMARK VINA RESULT:      -6.8      1.769      2.298
REMARK SMILES CC(=O)CCc1ccc2c(c1)OCO2
REMARK SMILES IDX 4 1 2 2 1 3 3 4 5 5 6 6 7 7 11 8 8 9 10 10 9 11 12 12 14 13
REMARK SMILES IDX 13 14
REMARK H PARENT
REMARK Flexibility Score: inf
ROOT
ATOM      1  C   UNL     1       6.586   1.236   1.381  1.00  0.00     0.080 C 
ENDROOT
BRANCH   1   2
ATOM      2  C   UNL     1       5.214   1.671   1.062  1.00  0.00     0.130 C 
ATOM      3  C   UNL     1       4.998   2.149  -0.364  1.00  0.00     0.087 C 
ATOM      4  O   UNL     1       4.261   1.689   1.788  1.00  0.00    -0.300 OA
ENDBRANCH   1   2
BRANCH   1   5
ATOM      5  C   UNL     1       7.550   1.248   0.260  1.00  0.00     0.043 C 
BRANCH   5   6
ATOM      6  C   UNL     1       7.755  -0.011  -0.462  1.00  0.00    -0.044 A 
ATOM      7  C   UNL     1       7.787  -0.072  -1.856  1.00  0.00     0.008 A 
ATOM      8  C   UNL     1       7.951  -1.180   0.235  1.00  0.00     0.054 A 
ATOM      9  C   UNL     1       8.011  -1.280  -2.465  1.00  0.00     0.051 A 
ATOM     10  C   UNL     1       8.178  -2.403  -0.414  1.00  0.00     0.166 A 
ATOM     11  C   UNL     1       8.210  -2.464  -1.789  1.00  0.00     0.165 A 
ATOM     12  O   UNL     1       8.403  -3.705   0.017  1.00  0.00    -0.454 OA
ATOM     13  O   UNL     1       8.451  -3.788  -2.176  1.00  0.00    -0.454 OA
ATOM     14  C   UNL     1       9.029  -4.408  -1.046  1.00  0.00     0.468 C 
ENDBRANCH   5   6
ENDBRANCH   1   5
TORSDOF 3
ENDMDL
MODEL 4
REMARK VINA RESULT:      -6.7      1.163      1.625
REMARK SMILES CC(=O)CCc1ccc2c(c1)OCO2
REMARK SMILES IDX 4 1 2 2 1 3 3 4 5 5 6 6 7 7 11 8 8 9 10 10 9 11 12 12 14 13
REMARK SMILES IDX 13 14
REMARK H PARENT
REMARK Flexibility Score: inf
ROOT
ATOM      1  C   UNL     1       5.382  -0.037   1.954  1.00  0.00     0.080 C 
ENDROOT
BRANCH   1   2
ATOM      2  C   UNL     1       4.425   1.079   1.849  1.00  0.00     0.130 C 
ATOM      3  C   UNL     1       4.744   2.111   0.780  1.00  0.00     0.087 C 
ATOM      4  O   UNL     1       3.436   1.264   2.500  1.00  0.00    -0.300 OA
ENDBRANCH   1   2
BRANCH   1   5
ATOM      5  C   UNL     1       6.798   0.292   1.689  1.00  0.00     0.043 C 
BRANCH   5   6
ATOM      6  C   UNL     1       7.333  -0.061   0.372  1.00  0.00    -0.044 A 
ATOM      7  C   UNL     1       7.752   0.905  -0.545  1.00  0.00     0.008 A 
ATOM      8  C   UNL     1       7.464  -1.383   0.013  1.00  0.00     0.054 A 
ATOM      9  C   UNL     1       8.268   0.501  -1.750  1.00  0.00     0.051 A 
ATOM     10  C   UNL     1       7.996  -1.768  -1.227  1.00  0.00     0.166 A 
ATOM     11  C   UNL     1       8.408  -0.814  -2.132  1.00  0.00     0.165 A 
ATOM     12  O   UNL     1       8.240  -2.989  -1.842  1.00  0.00    -0.454 OA
ATOM     13  O   UNL     1       8.894  -1.460  -3.276  1.00  0.00    -0.454 OA
ATOM     14  C   UNL     1       9.208  -2.773  -2.859  1.00  0.00     0.468 C 
ENDBRANCH   5   6
ENDBRANCH   1   5
TORSDOF 3
ENDMDL
MODEL 5
REMARK VINA RESULT:      -6.5      1.286      1.654
REMARK SMILES CC(=O)CCc1ccc2c(c1)OCO2
REMARK SMILES IDX 4 1 2 2 1 3 3 4 5 5 6 6 7 7 11 8 8 9 10 10 9 11 12 12 14 13
REMARK SMILES IDX 13 14
REMARK H PARENT
REMARK Flexibility Score: inf
ROOT
ATOM      1  C   UNL     1       5.192   1.840   0.727  1.00  0.00     0.080 C 
ENDROOT
BRANCH   1   2
ATOM      2  C   UNL     1       4.563   1.088   1.829  1.00  0.00     0.130 C 
ATOM      3  C   UNL     1       5.316  -0.150   2.283  1.00  0.00     0.087 C 
ATOM      4  O   UNL     1       3.540   1.339   2.400  1.00  0.00    -0.300 OA
ENDBRANCH   1   2
BRANCH   1   5
ATOM      5  C   UNL     1       6.614   1.538   0.461  1.00  0.00     0.043 C 
BRANCH   5   6
ATOM      6  C   UNL     1       6.904   0.421  -0.444  1.00  0.00    -0.044 A 
ATOM      7  C   UNL     1       6.594   0.466  -1.804  1.00  0.00     0.008 A 
ATOM      8  C   UNL     1       7.527  -0.708   0.034  1.00  0.00     0.054 A 
ATOM      9  C   UNL     1       6.919  -0.604  -2.597  1.00  0.00     0.051 A 
ATOM     10  C   UNL     1       7.848  -1.789  -0.801  1.00  0.00     0.166 A 
ATOM     11  C   UNL     1       7.541  -1.745  -2.143  1.00  0.00     0.165 A 
ATOM     12  O   UNL     1       8.458  -3.022  -0.603  1.00  0.00    -0.454 OA
ATOM     13  O   UNL     1       7.965  -2.939  -2.741  1.00  0.00    -0.454 OA
ATOM     14  C   UNL     1       8.934  -3.473  -1.863  1.00  0.00     0.468 C 
ENDBRANCH   5   6
ENDBRANCH   1   5
TORSDOF 3
ENDMDL
