@<TRIPOS>MOLECULE
/home/cewinharhar/GITHUB/reincatalyze/data/processed/docking_pred/2023-May-31-1727_sub9_nm5_bs15_s42_ex16_mel10_mts10000_k50_ec075_g099_lra3e-4_lrc3e-3/df357a1c250a0cea862119ec51667dccc9d8d697_ligand_9.pdbqt
 14 15 0 0 0
SMALL
GASTEIGER

@<TRIPOS>ATOM
      1  C          5.3820   -0.0370    1.9540 C.3     1  UNL1        0.0800
      2  C          4.4250    1.0790    1.8490 C.2     1  UNL1        0.1300
      3  C          4.7440    2.1110    0.7800 C.3     1  UNL1        0.0870
      4  O          3.4360    1.2640    2.5000 O.2     1  UNL1       -0.3000
      5  C          6.7980    0.2920    1.6890 C.3     1  UNL1        0.0430
      6  C          7.3330   -0.0610    0.3720 C.2     1  UNL1       -0.0440
      7  C          7.7520    0.9050   -0.5450 C.2     1  UNL1        0.0080
      8  C          7.4640   -1.3830    0.0130 C.2     1  UNL1        0.0540
      9  C          8.2680    0.5010   -1.7500 C.2     1  UNL1        0.0510
     10  C          7.9960   -1.7680   -1.2270 C.2     1  UNL1        0.1660
     11  C          8.4080   -0.8140   -2.1320 C.2     1  UNL1        0.1650
     12  O          8.2400   -2.9890   -1.8420 O.2     1  UNL1       -0.4540
     13  O          8.8940   -1.4600   -3.2760 O.2     1  UNL1       -0.4540
     14  C          9.2080   -2.7730   -2.8590 C.3     1  UNL1        0.4680
@<TRIPOS>BOND
     1    13    14    1
     2    13    11    1
     3    14    12    1
     4    11     9    2
     5    11    10    1
     6    12    10    1
     7     9     7    1
     8    10     8    2
     9     7     6    2
    10     8     6    1
    11     6     5    1
    12     3     2    1
    13     5     1    1
    14     2     1    1
    15     2     4    2
