@<TRIPOS>MOLECULE
/home/cewinharhar/GITHUB/reincatalyze/data/processed/docking_pred/2023-May-31-1727_sub9_nm5_bs15_s42_ex16_mel10_mts10000_k50_ec075_g099_lra3e-4_lrc3e-3/df357a1c250a0cea862119ec51667dccc9d8d697_ligand_9.pdbqt
 14 15 0 0 0
SMALL
GASTEIGER

@<TRIPOS>ATOM
      1  C          5.7740    1.7680    1.2870 C.3     1  UNL1        0.0800
      2  C          5.1900    0.6370    2.0290 C.2     1  UNL1        0.1300
      3  C          6.1020   -0.5650    2.2060 C.3     1  UNL1        0.0870
      4  O          4.0920    0.5570    2.5040 O.2     1  UNL1       -0.3000
      5  C          5.7300    1.6720   -0.1870 C.3     1  UNL1        0.0430
      6  C          6.7930    0.9030   -0.8410 C.2     1  UNL1       -0.0440
      7  C          8.1370    1.2700   -0.7540 C.2     1  UNL1        0.0080
      8  C          6.4850   -0.2370   -1.5460 C.2     1  UNL1        0.0540
      9  C          9.0820    0.4880   -1.3680 C.2     1  UNL1        0.0510
     10  C          7.4720   -1.0190   -2.1640 C.2     1  UNL1        0.1660
     11  C          8.7980   -0.6560   -2.0790 C.2     1  UNL1        0.1650
     12  O          7.4570   -2.1850   -2.9190 O.2     1  UNL1       -0.4540
     13  O          9.5670   -1.5970   -2.7760 O.2     1  UNL1       -0.4540
     14  C          8.7580   -2.7520   -2.8620 C.3     1  UNL1        0.4680
@<TRIPOS>BOND
     1    12    14    1
     2    12    10    1
     3    14    13    1
     4    13    11    1
     5    10    11    2
     6    10     8    1
     7    11     9    1
     8     8     6    2
     9     9     7    2
    10     6     7    1
    11     6     5    1
    12     5     1    1
    13     1     2    1
    14     2     3    1
    15     2     4    2
