@<TRIPOS>MOLECULE
/home/cewinharhar/GITHUB/reincatalyze/data/processed/docking_pred/2023-May-31-1727_sub9_nm5_bs15_s42_ex16_mel10_mts10000_k50_ec075_g099_lra3e-4_lrc3e-3/e083fa7032685a97da63944e329d67bd29c0daa9_ligand_9.pdbqt
 14 15 0 0 0
SMALL
GASTEIGER

@<TRIPOS>ATOM
      1  C          5.5570    0.0780    2.1050 C.3     1  UNL1        0.0800
      2  C          4.5430    1.1180    1.8550 C.2     1  UNL1        0.1300
      3  C          4.8710    2.0900    0.7350 C.3     1  UNL1        0.0870
      4  O          3.5030    1.2830    2.4260 O.2     1  UNL1       -0.3000
      5  C          6.8710    0.2800    1.4580 C.3     1  UNL1        0.0430
      6  C          7.2300   -0.6340    0.3710 C.2     1  UNL1       -0.0440
      7  C          7.0610   -0.2950   -0.9730 C.2     1  UNL1        0.0080
      8  C          7.7800   -1.8620    0.6560 C.2     1  UNL1        0.0540
      9  C          7.4440   -1.1890   -1.9390 C.2     1  UNL1        0.0510
     10  C          8.1640   -2.7580   -0.3530 C.2     1  UNL1        0.1660
     11  C          7.9960   -2.4230   -1.6790 C.2     1  UNL1        0.1650
     12  O          8.7280   -4.0280   -0.3630 O.2     1  UNL1       -0.4540
     13  O          8.4560   -3.4830   -2.4720 O.2     1  UNL1       -0.4540
     14  C          9.3200   -4.2260   -1.6380 C.3     1  UNL1        0.4680
@<TRIPOS>BOND
     1    13    11    1
     2    13    14    1
     3     9    11    2
     4     9     7    1
     5    11    10    1
     6    14    12    1
     7     7     6    2
     8    12    10    1
     9    10     8    2
    10     6     8    1
    11     6     5    1
    12     3     2    1
    13     5     1    1
    14     2     1    1
    15     2     4    2
