@<TRIPOS>MOLECULE
/home/cewinharhar/GITHUB/reincatalyze/data/processed/docking_pred/2023-May-31-1727_sub9_nm5_bs15_s42_ex16_mel10_mts10000_k50_ec075_g099_lra3e-4_lrc3e-3/e083fa7032685a97da63944e329d67bd29c0daa9_ligand_9.pdbqt
 14 15 0 0 0
SMALL
GASTEIGER

@<TRIPOS>ATOM
      1  C          5.4810    1.8930    1.2090 C.3     1  UNL1        0.0800
      2  C          4.9490    0.7490    1.9720 C.2     1  UNL1        0.1300
      3  C          5.8490   -0.4740    2.0220 C.3     1  UNL1        0.0870
      4  O          3.9030    0.6740    2.5500 O.2     1  UNL1       -0.3000
      5  C          5.4890    1.7470   -0.2620 C.3     1  UNL1        0.0430
      6  C          6.5960    0.9920   -0.8550 C.2     1  UNL1       -0.0440
      7  C          7.9300    1.3570   -0.6690 C.2     1  UNL1        0.0080
      8  C          6.3390   -0.1340   -1.6020 C.2     1  UNL1        0.0540
      9  C          8.9160    0.5890   -1.2310 C.2     1  UNL1        0.0510
     10  C          7.3680   -0.9030   -2.1660 C.2     1  UNL1        0.1660
     11  C          8.6850   -0.5420   -1.9820 C.2     1  UNL1        0.1650
     12  O          7.4070   -2.0540   -2.9430 O.2     1  UNL1       -0.4540
     13  O          9.5020   -1.4690   -2.6430 O.2     1  UNL1       -0.4540
     14  C          8.7020   -2.6210   -2.8070 C.3     1  UNL1        0.4680
@<TRIPOS>BOND
     1    12    14    1
     2    12    10    1
     3    14    13    1
     4    13    11    1
     5    10    11    2
     6    10     8    1
     7    11     9    1
     8     8     6    2
     9     9     7    2
    10     6     7    1
    11     6     5    1
    12     5     1    1
    13     1     2    1
    14     2     3    1
    15     2     4    2
