@<TRIPOS>MOLECULE
/home/cewinharhar/GITHUB/reincatalyze/data/processed/docking_pred/2023-May-31-1727_sub9_nm5_bs15_s42_ex16_mel10_mts10000_k50_ec075_g099_lra3e-4_lrc3e-3/e083fa7032685a97da63944e329d67bd29c0daa9_ligand_9.pdbqt
 14 15 0 0 0
SMALL
GASTEIGER

@<TRIPOS>ATOM
      1  C          5.3180   -0.0910    2.1980 C.3     1  UNL1        0.0800
      2  C          4.4460    1.0630    1.9110 C.2     1  UNL1        0.1300
      3  C          4.9200    1.9730    0.7910 C.3     1  UNL1        0.0870
      4  O          3.4190    1.3610    2.4510 O.2     1  UNL1       -0.3000
      5  C          6.7570    0.0940    1.9130 C.3     1  UNL1        0.0430
      6  C          7.3260   -0.6830    0.8090 C.2     1  UNL1       -0.0440
      7  C          7.6490   -2.0350    0.9380 C.2     1  UNL1        0.0080
      8  C          7.5340   -0.0900   -0.4150 C.2     1  UNL1        0.0540
      9  C          8.1530   -2.7070   -0.1450 C.2     1  UNL1        0.0510
     10  C          8.0510   -0.8020   -1.5080 C.2     1  UNL1        0.1660
     11  C          8.3700   -2.1360   -1.3790 C.2     1  UNL1        0.1650
     12  O          8.3570   -0.4760   -2.8230 O.2     1  UNL1       -0.4540
     13  O          8.8610   -2.6020   -2.6060 O.2     1  UNL1       -0.4540
     14  C          8.3890   -1.6840   -3.5700 C.3     1  UNL1        0.4680
@<TRIPOS>BOND
     1    14    12    1
     2    14    13    1
     3    12    10    1
     4    13    11    1
     5    10    11    2
     6    10     8    1
     7    11     9    1
     8     8     6    2
     9     9     7    2
    10     3     2    1
    11     6     7    1
    12     6     5    1
    13     2     1    1
    14     2     4    2
    15     5     1    1
