@<TRIPOS>MOLECULE
/home/cewinharhar/GITHUB/reincatalyze/data/processed/docking_pred/2023-May-31-1727_sub9_nm5_bs15_s42_ex16_mel10_mts10000_k50_ec075_g099_lra3e-4_lrc3e-3/e1ac879641feb84a16575019a922afe40680d27c_ligand_9.pdbqt
 14 15 0 0 0
SMALL
GASTEIGER

@<TRIPOS>ATOM
      1  C          5.3810   -0.0690    1.9530 C.3     1  UNL1        0.0800
      2  C          4.4360    1.0570    1.8510 C.2     1  UNL1        0.1300
      3  C          4.7710    2.0930    0.7920 C.3     1  UNL1        0.0870
      4  O          3.4460    1.2470    2.4980 O.2     1  UNL1       -0.3000
      5  C          6.8020    0.2470    1.6970 C.3     1  UNL1        0.0430
      6  C          7.3370   -0.0940    0.3760 C.2     1  UNL1       -0.0440
      7  C          7.7540    0.8810   -0.5320 C.2     1  UNL1        0.0080
      8  C          7.4700   -1.4120    0.0060 C.2     1  UNL1        0.0540
      9  C          8.2700    0.4900   -1.7400 C.2     1  UNL1        0.0510
     10  C          8.0020   -1.7850   -1.2380 C.2     1  UNL1        0.1660
     11  C          8.4120   -0.8230   -2.1340 C.2     1  UNL1        0.1650
     12  O          8.2480   -3.0000   -1.8640 O.2     1  UNL1       -0.4540
     13  O          8.8990   -1.4570   -3.2840 O.2     1  UNL1       -0.4540
     14  C          9.2150   -2.7730   -2.8790 C.3     1  UNL1        0.4680
@<TRIPOS>BOND
     1    13    14    1
     2    13    11    1
     3    14    12    1
     4    11     9    2
     5    11    10    1
     6    12    10    1
     7     9     7    1
     8    10     8    2
     9     7     6    2
    10     8     6    1
    11     6     5    1
    12     3     2    1
    13     5     1    1
    14     2     1    1
    15     2     4    2
