@<TRIPOS>MOLECULE
/home/cewinharhar/GITHUB/reincatalyze/data/processed/docking_pred/2023-May-31-1727_sub9_nm5_bs15_s42_ex16_mel10_mts10000_k50_ec075_g099_lra3e-4_lrc3e-3/e1ac879641feb84a16575019a922afe40680d27c_ligand_9.pdbqt
 14 15 0 0 0
SMALL
GASTEIGER

@<TRIPOS>ATOM
      1  C          6.8580    0.9600    1.5170 C.3     1  UNL1        0.0800
      2  C          5.4030    1.1980    1.5320 C.2     1  UNL1        0.1300
      3  C          4.8900    2.1500    0.4650 C.3     1  UNL1        0.0870
      4  O          4.5900    0.7340    2.2790 O.2     1  UNL1       -0.3000
      5  C          7.5160    1.0280    0.1950 C.3     1  UNL1        0.0430
      6  C          7.7280   -0.2370   -0.5140 C.2     1  UNL1       -0.0440
      7  C          7.6710   -0.3280   -1.9050 C.2     1  UNL1        0.0080
      8  C          8.0240   -1.3800    0.1910 C.2     1  UNL1        0.0540
      9  C          7.9070   -1.5390   -2.5040 C.2     1  UNL1        0.0510
     10  C          8.2620   -2.6070   -0.4470 C.2     1  UNL1        0.1660
     11  C          8.2040   -2.6970   -1.8210 C.2     1  UNL1        0.1650
     12  O          8.5730   -3.8870   -0.0070 O.2     1  UNL1       -0.4540
     13  O          8.4780   -4.0180   -2.1970 O.2     1  UNL1       -0.4540
     14  C          9.1580   -4.5860   -1.0960 C.3     1  UNL1        0.4680
@<TRIPOS>BOND
     1     9     7    1
     2     9    11    2
     3    13    11    1
     4    13    14    1
     5     7     6    2
     6    11    10    1
     7    14    12    1
     8     6     8    1
     9     6     5    1
    10    10    12    1
    11    10     8    2
    12     5     1    1
    13     3     2    1
    14     1     2    1
    15     2     4    2
