@<TRIPOS>MOLECULE
/home/cewinharhar/GITHUB/reincatalyze/data/processed/docking_pred/2023-May-31-1727_sub9_nm5_bs15_s42_ex16_mel10_mts10000_k50_ec075_g099_lra3e-4_lrc3e-3/e3e0f9713a2c6d1770d60d03407d62bfa70f046f_ligand_9.pdbqt
 14 15 0 0 0
SMALL
GASTEIGER

@<TRIPOS>ATOM
      1  C          5.6840    0.0920    1.9700 C.3     1  UNL1        0.0800
      2  C          4.6930    1.1480    1.6920 C.2     1  UNL1        0.1300
      3  C          5.0370    2.0760    0.5400 C.3     1  UNL1        0.0870
      4  O          3.6600    1.3550    2.2620 O.2     1  UNL1       -0.3000
      5  C          7.0070    0.2570    1.3320 C.3     1  UNL1        0.0430
      6  C          7.3930   -0.7350    0.3250 C.2     1  UNL1       -0.0440
      7  C          7.3390   -0.4660   -1.0440 C.2     1  UNL1        0.0080
      8  C          7.8550   -1.9700    0.7170 C.2     1  UNL1        0.0540
      9  C          7.7410   -1.4320   -1.9290 C.2     1  UNL1        0.0510
     10  C          8.2620   -2.9400   -0.2120 C.2     1  UNL1        0.1660
     11  C          8.2070   -2.6750   -1.5620 C.2     1  UNL1        0.1650
     12  O          8.7560   -4.2350   -0.1110 O.2     1  UNL1       -0.4540
     13  O          8.6650   -3.8000   -2.2610 O.2     1  UNL1       -0.4540
     14  C          9.4270   -4.5350   -1.3260 C.3     1  UNL1        0.4680
@<TRIPOS>BOND
     1    13    11    1
     2    13    14    1
     3     9    11    2
     4     9     7    1
     5    11    10    1
     6    14    12    1
     7     7     6    2
     8    10    12    1
     9    10     8    2
    10     6     8    1
    11     6     5    1
    12     3     2    1
    13     5     1    1
    14     2     1    1
    15     2     4    2
