MODEL 1
REMARK VINA RESULT:      -7.6      0.000      0.000
REMARK SMILES CC(=O)CCc1ccc2c(c1)OCO2
REMARK SMILES IDX 4 1 2 2 1 3 3 4 5 5 6 6 7 7 11 8 8 9 10 10 9 11 12 12 14 13
REMARK SMILES IDX 13 14
REMARK H PARENT
REMARK Flexibility Score: inf
ROOT
ATOM      1  C   UNL     1       5.638   1.858   1.266  1.00  0.00     0.080 C 
ENDROOT
BRANCH   1   2
ATOM      2  C   UNL     1       5.066   0.724   2.014  1.00  0.00     0.130 C 
ATOM      3  C   UNL     1       5.985  -0.474   2.182  1.00  0.00     0.087 C 
ATOM      4  O   UNL     1       3.973   0.639   2.498  1.00  0.00    -0.300 OA
ENDBRANCH   1   2
BRANCH   1   5
ATOM      5  C   UNL     1       5.620   1.742  -0.208  1.00  0.00     0.043 C 
BRANCH   5   6
ATOM      6  C   UNL     1       6.705   0.982  -0.834  1.00  0.00    -0.044 A 
ATOM      7  C   UNL     1       8.046   1.345  -0.693  1.00  0.00     0.008 A 
ATOM      8  C   UNL     1       6.421  -0.147  -1.567  1.00  0.00     0.054 A 
ATOM      9  C   UNL     1       9.011   0.571  -1.284  1.00  0.00     0.051 A 
ATOM     10  C   UNL     1       7.430  -0.921  -2.161  1.00  0.00     0.166 A 
ATOM     11  C   UNL     1       8.753  -0.562  -2.023  1.00  0.00     0.165 A 
ATOM     12  O   UNL     1       7.441  -2.075  -2.934  1.00  0.00    -0.454 OA
ATOM     13  O   UNL     1       9.545  -1.493  -2.706  1.00  0.00    -0.454 OA
ATOM     14  C   UNL     1       8.738  -2.644  -2.839  1.00  0.00     0.468 C 
ENDBRANCH   5   6
ENDBRANCH   1   5
TORSDOF 3
ENDMDL
MODEL 2
REMARK VINA RESULT:      -6.9      1.092      1.173
REMARK SMILES CC(=O)CCc1ccc2c(c1)OCO2
REMARK SMILES IDX 4 1 2 2 1 3 3 4 5 5 6 6 7 7 11 8 8 9 10 10 9 11 12 12 14 13
REMARK SMILES IDX 13 14
REMARK H PARENT
REMARK Flexibility Score: inf
ROOT
ATOM      1  C   UNL     1       6.237   1.185   0.900  1.00  0.00     0.080 C 
ENDROOT
BRANCH   1   2
ATOM      2  C   UNL     1       5.559   0.369   1.924  1.00  0.00     0.130 C 
ATOM      3  C   UNL     1       6.333  -0.849   2.401  1.00  0.00     0.087 C 
ATOM      4  O   UNL     1       4.483   0.552   2.417  1.00  0.00    -0.300 OA
ENDBRANCH   1   2
BRANCH   1   5
ATOM      5  C   UNL     1       5.892   0.884  -0.505  1.00  0.00     0.043 C 
BRANCH   5   6
ATOM      6  C   UNL     1       6.865   0.111  -1.283  1.00  0.00    -0.044 A 
ATOM      7  C   UNL     1       7.794   0.720  -2.128  1.00  0.00     0.008 A 
ATOM      8  C   UNL     1       6.901  -1.260  -1.173  1.00  0.00     0.054 A 
ATOM      9  C   UNL     1       8.693  -0.064  -2.805  1.00  0.00     0.051 A 
ATOM     10  C   UNL     1       7.833  -2.037  -1.877  1.00  0.00     0.166 A 
ATOM     11  C   UNL     1       8.749  -1.437  -2.712  1.00  0.00     0.165 A 
ATOM     12  O   UNL     1       8.097  -3.399  -1.960  1.00  0.00    -0.454 OA
ATOM     13  O   UNL     1       9.553  -2.429  -3.287  1.00  0.00    -0.454 OA
ATOM     14  C   UNL     1       9.426  -3.551  -2.438  1.00  0.00     0.468 C 
ENDBRANCH   5   6
ENDBRANCH   1   5
TORSDOF 3
ENDMDL
MODEL 3
REMARK VINA RESULT:      -6.9      1.677      2.060
REMARK SMILES CC(=O)CCc1ccc2c(c1)OCO2
REMARK SMILES IDX 4 1 2 2 1 3 3 4 5 5 6 6 7 7 11 8 8 9 10 10 9 11 12 12 14 13
REMARK SMILES IDX 13 14
REMARK H PARENT
REMARK Flexibility Score: inf
ROOT
ATOM      1  C   UNL     1       5.647   1.598  -0.026  1.00  0.00     0.080 C 
ENDROOT
BRANCH   1   2
ATOM      2  C   UNL     1       4.922   1.313   1.226  1.00  0.00     0.130 C 
ATOM      3  C   UNL     1       5.410   0.099   1.998  1.00  0.00     0.087 C 
ATOM      4  O   UNL     1       4.006   1.922   1.700  1.00  0.00    -0.300 OA
ENDBRANCH   1   2
BRANCH   1   5
ATOM      5  C   UNL     1       7.072   1.205  -0.057  1.00  0.00     0.043 C 
BRANCH   5   6
ATOM      6  C   UNL     1       7.407  -0.048  -0.738  1.00  0.00    -0.044 A 
ATOM      7  C   UNL     1       7.397  -0.165  -2.129  1.00  0.00     0.008 A 
ATOM      8  C   UNL     1       7.773  -1.153  -0.005  1.00  0.00     0.054 A 
ATOM      9  C   UNL     1       7.748  -1.362  -2.699  1.00  0.00     0.051 A 
ATOM     10  C   UNL     1       8.128  -2.366  -0.615  1.00  0.00     0.166 A 
ATOM     11  C   UNL     1       8.118  -2.481  -1.988  1.00  0.00     0.165 A 
ATOM     12  O   UNL     1       8.529  -3.610  -0.144  1.00  0.00    -0.454 OA
ATOM     13  O   UNL     1       8.509  -3.781  -2.333  1.00  0.00    -0.454 OA
ATOM     14  C   UNL     1       9.200  -4.276  -1.204  1.00  0.00     0.468 C 
ENDBRANCH   5   6
ENDBRANCH   1   5
TORSDOF 3
ENDMDL
MODEL 4
REMARK VINA RESULT:      -6.7      1.100      1.592
REMARK SMILES CC(=O)CCc1ccc2c(c1)OCO2
REMARK SMILES IDX 4 1 2 2 1 3 3 4 5 5 6 6 7 7 11 8 8 9 10 10 9 11 12 12 14 13
REMARK SMILES IDX 13 14
REMARK H PARENT
REMARK Flexibility Score: inf
ROOT
ATOM      1  C   UNL     1       5.335  -0.022   1.989  1.00  0.00     0.080 C 
ENDROOT
BRANCH   1   2
ATOM      2  C   UNL     1       4.388   1.101   1.869  1.00  0.00     0.130 C 
ATOM      3  C   UNL     1       4.733   2.132   0.807  1.00  0.00     0.087 C 
ATOM      4  O   UNL     1       3.390   1.293   2.504  1.00  0.00    -0.300 OA
ENDBRANCH   1   2
BRANCH   1   5
ATOM      5  C   UNL     1       6.760   0.300   1.762  1.00  0.00     0.043 C 
BRANCH   5   6
ATOM      6  C   UNL     1       7.312  -0.000   0.438  1.00  0.00    -0.044 A 
ATOM      7  C   UNL     1       7.870   0.987  -0.377  1.00  0.00     0.008 A 
ATOM      8  C   UNL     1       7.317  -1.294  -0.029  1.00  0.00     0.054 A 
ATOM      9  C   UNL     1       8.393   0.630  -1.592  1.00  0.00     0.051 A 
ATOM     10  C   UNL     1       7.859  -1.631  -1.278  1.00  0.00     0.166 A 
ATOM     11  C   UNL     1       8.410  -0.657  -2.082  1.00  0.00     0.165 A 
ATOM     12  O   UNL     1       7.999  -2.817  -1.989  1.00  0.00    -0.454 OA
ATOM     13  O   UNL     1       8.874  -1.256  -3.261  1.00  0.00    -0.454 OA
ATOM     14  C   UNL     1       9.028  -2.625  -2.948  1.00  0.00     0.468 C 
ENDBRANCH   5   6
ENDBRANCH   1   5
TORSDOF 3
ENDMDL
MODEL 5
REMARK VINA RESULT:      -6.7      1.911      2.427
REMARK SMILES CC(=O)CCc1ccc2c(c1)OCO2
REMARK SMILES IDX 4 1 2 2 1 3 3 4 5 5 6 6 7 7 11 8 8 9 10 10 9 11 12 12 14 13
REMARK SMILES IDX 13 14
REMARK H PARENT
REMARK Flexibility Score: inf
ROOT
ATOM      1  C   UNL     1       6.541   0.653   1.681  1.00  0.00     0.080 C 
ENDROOT
BRANCH   1   2
ATOM      2  C   UNL     1       5.191   1.230   1.551  1.00  0.00     0.130 C 
ATOM      3  C   UNL     1       4.989   2.150   0.360  1.00  0.00     0.087 C 
ATOM      4  O   UNL     1       4.246   1.058   2.268  1.00  0.00    -0.300 OA
ENDBRANCH   1   2
BRANCH   1   5
ATOM      5  C   UNL     1       7.426   0.796   0.506  1.00  0.00     0.043 C 
BRANCH   5   6
ATOM      6  C   UNL     1       7.683  -0.408  -0.290  1.00  0.00    -0.044 A 
ATOM      7  C   UNL     1       7.639  -0.401  -1.685  1.00  0.00     0.008 A 
ATOM      8  C   UNL     1       8.006  -1.590   0.334  1.00  0.00     0.054 A 
ATOM      9  C   UNL     1       7.917  -1.558  -2.367  1.00  0.00     0.051 A 
ATOM     10  C   UNL     1       8.286  -2.760  -0.388  1.00  0.00     0.166 A 
ATOM     11  C   UNL     1       8.243  -2.753  -1.765  1.00  0.00     0.165 A 
ATOM     12  O   UNL     1       8.632  -4.060  -0.038  1.00  0.00    -0.454 OA
ATOM     13  O   UNL     1       8.559  -4.035  -2.232  1.00  0.00    -0.454 OA
ATOM     14  C   UNL     1       9.246  -4.661  -1.168  1.00  0.00     0.468 C 
ENDBRANCH   5   6
ENDBRANCH   1   5
TORSDOF 3
ENDMDL
