@<TRIPOS>MOLECULE
/home/cewinharhar/GITHUB/reincatalyze/data/processed/docking_pred/2023-May-31-1727_sub9_nm5_bs15_s42_ex16_mel10_mts10000_k50_ec075_g099_lra3e-4_lrc3e-3/e3fbdfe9b196bdc40f83d7817e536621cd4b8c1b_ligand_9.pdbqt
 14 15 0 0 0
SMALL
GASTEIGER

@<TRIPOS>ATOM
      1  C          5.6130    1.8910    1.2220 C.3     1  UNL1        0.0800
      2  C          5.1090    0.7440    1.9990 C.2     1  UNL1        0.1300
      3  C          6.0920   -0.3990    2.1830 C.3     1  UNL1        0.0870
      4  O          4.0260    0.6110    2.4960 O.2     1  UNL1       -0.3000
      5  C          5.5900    1.7420   -0.2480 C.3     1  UNL1        0.0430
      6  C          6.6860    0.9880   -0.8630 C.2     1  UNL1       -0.0440
      7  C          8.0240    1.3480   -0.6920 C.2     1  UNL1        0.0080
      8  C          6.4160   -0.1310   -1.6140 C.2     1  UNL1        0.0540
      9  C          9.0000    0.5810   -1.2740 C.2     1  UNL1        0.0510
     10  C          7.4350   -0.8990   -2.1980 C.2     1  UNL1        0.1660
     11  C          8.7550   -0.5430   -2.0300 C.2     1  UNL1        0.1650
     12  O          7.4590   -2.0440   -2.9850 O.2     1  UNL1       -0.4540
     13  O          9.5600   -1.4670   -2.7090 O.2     1  UNL1       -0.4540
     14  C          8.7540   -2.6160   -2.8710 C.3     1  UNL1        0.4680
@<TRIPOS>BOND
     1    12    14    1
     2    12    10    1
     3    14    13    1
     4    13    11    1
     5    10    11    2
     6    10     8    1
     7    11     9    1
     8     8     6    2
     9     9     7    2
    10     6     7    1
    11     6     5    1
    12     5     1    1
    13     1     2    1
    14     2     3    1
    15     2     4    2
