@<TRIPOS>MOLECULE
/home/cewinharhar/GITHUB/reincatalyze/data/processed/docking_pred/2023-May-31-1727_sub9_nm5_bs15_s42_ex16_mel10_mts10000_k50_ec075_g099_lra3e-4_lrc3e-3/e3fbdfe9b196bdc40f83d7817e536621cd4b8c1b_ligand_9.pdbqt
 14 15 0 0 0
SMALL
GASTEIGER

@<TRIPOS>ATOM
      1  C          5.3470   -0.0340    1.9990 C.3     1  UNL1        0.0800
      2  C          4.4000    1.0900    1.8820 C.2     1  UNL1        0.1300
      3  C          4.7430    2.1210    0.8210 C.3     1  UNL1        0.0870
      4  O          3.4040    1.2820    2.5200 O.2     1  UNL1       -0.3000
      5  C          6.7720    0.2900    1.7770 C.3     1  UNL1        0.0430
      6  C          7.3280   -0.0060    0.4530 C.2     1  UNL1       -0.0440
      7  C          7.9020    0.9810   -0.3500 C.2     1  UNL1        0.0080
      8  C          7.3210   -1.2960   -0.0240 C.2     1  UNL1        0.0540
      9  C          8.4280    0.6280   -1.5660 C.2     1  UNL1        0.0510
     10  C          7.8660   -1.6290   -1.2730 C.2     1  UNL1        0.1660
     11  C          8.4320   -0.6550   -2.0660 C.2     1  UNL1        0.1650
     12  O          7.9960   -2.8110   -1.9930 O.2     1  UNL1       -0.4540
     13  O          8.8960   -1.2490   -3.2470 O.2     1  UNL1       -0.4540
     14  C          9.0320   -2.6220   -2.9450 C.3     1  UNL1        0.4680
@<TRIPOS>BOND
     1    13    14    1
     2    13    11    1
     3    14    12    1
     4    11     9    2
     5    11    10    1
     6    12    10    1
     7     9     7    1
     8    10     8    2
     9     7     6    2
    10     8     6    1
    11     6     5    1
    12     3     2    1
    13     5     1    1
    14     2     1    1
    15     2     4    2
