@<TRIPOS>MOLECULE
/home/cewinharhar/GITHUB/reincatalyze/data/processed/docking_pred/2023-May-31-1727_sub9_nm5_bs15_s42_ex16_mel10_mts10000_k50_ec075_g099_lra3e-4_lrc3e-3/e3fbdfe9b196bdc40f83d7817e536621cd4b8c1b_ligand_9.pdbqt
 14 15 0 0 0
SMALL
GASTEIGER

@<TRIPOS>ATOM
      1  C          6.1730    1.2170    0.9290 C.3     1  UNL1        0.0800
      2  C          5.5030    0.3830    1.9430 C.2     1  UNL1        0.1300
      3  C          6.2820   -0.8390    2.3980 C.3     1  UNL1        0.0870
      4  O          4.4280    0.5560    2.4440 O.2     1  UNL1       -0.3000
      5  C          5.8590    0.9060   -0.4810 C.3     1  UNL1        0.0430
      6  C          6.8600    0.1500   -1.2400 C.2     1  UNL1       -0.0440
      7  C          7.8720    0.7780   -1.9670 C.2     1  UNL1        0.0080
      8  C          6.8380   -1.2250   -1.2280 C.2     1  UNL1        0.0540
      9  C          8.7920    0.0080   -2.6310 C.2     1  UNL1        0.0510
     10  C          7.7930   -1.9890   -1.9170 C.2     1  UNL1        0.1660
     11  C          8.7910   -1.3700   -2.6350 C.2     1  UNL1        0.1650
     12  O          8.0130   -3.3520   -2.0790 O.2     1  UNL1       -0.4540
     13  O          9.6010   -2.3520   -3.2200 O.2     1  UNL1       -0.4540
     14  C          9.3690   -3.5240   -2.4670 C.3     1  UNL1        0.4680
@<TRIPOS>BOND
     1    13    11    1
     2    13    14    1
     3    11     9    2
     4    11    10    1
     5     9     7    1
     6    14    12    1
     7    12    10    1
     8     7     6    2
     9    10     8    2
    10     6     8    1
    11     6     5    1
    12     5     1    1
    13     1     2    1
    14     2     3    1
    15     2     4    2
