@<TRIPOS>MOLECULE
/home/cewinharhar/GITHUB/reincatalyze/data/processed/docking_pred/2023-May-31-1727_sub9_nm5_bs15_s42_ex16_mel10_mts10000_k50_ec075_g099_lra3e-4_lrc3e-3/e3fbdfe9b196bdc40f83d7817e536621cd4b8c1b_ligand_9.pdbqt
 14 15 0 0 0
SMALL
GASTEIGER

@<TRIPOS>ATOM
      1  C          5.7640    1.4130   -0.3220 C.3     1  UNL1        0.0800
      2  C          5.0700    1.4410    0.9780 C.2     1  UNL1        0.1300
      3  C          5.6070    0.4760    2.0220 C.3     1  UNL1        0.0870
      4  O          4.1440    2.1280    1.3030 O.2     1  UNL1       -0.3000
      5  C          7.1890    1.0190   -0.2920 C.3     1  UNL1        0.0430
      6  C          7.5390   -0.2750   -0.8840 C.2     1  UNL1       -0.0440
      7  C          7.6280   -0.4620   -2.2650 C.2     1  UNL1        0.0080
      8  C          7.8210   -1.3500   -0.0730 C.2     1  UNL1        0.0540
      9  C          7.9880   -1.6930   -2.7490 C.2     1  UNL1        0.0510
     10  C          8.1870   -2.5990   -0.5960 C.2     1  UNL1        0.1660
     11  C          8.2740   -2.7840   -1.9580 C.2     1  UNL1        0.1650
     12  O          8.5190   -3.8270   -0.0360 O.2     1  UNL1       -0.4540
     13  O          8.6550   -4.1080   -2.2090 O.2     1  UNL1       -0.4540
     14  C          9.2480   -4.5610   -1.0100 C.3     1  UNL1        0.4680
@<TRIPOS>BOND
     1     9     7    1
     2     9    11    2
     3     7     6    2
     4    13    11    1
     5    13    14    1
     6    11    10    1
     7    14    12    1
     8     6     5    1
     9     6     8    1
    10    10     8    2
    11    10    12    1
    12     1     5    1
    13     1     2    1
    14     2     4    2
    15     2     3    1
