MODEL 1
REMARK VINA RESULT:      -7.6      0.000      0.000
REMARK SMILES CC(=O)CCc1ccc2c(c1)OCO2
REMARK SMILES IDX 4 1 2 2 1 3 3 4 5 5 6 6 7 7 11 8 8 9 10 10 9 11 12 12 14 13
REMARK SMILES IDX 13 14
REMARK H PARENT
REMARK Flexibility Score: inf
ROOT
ATOM      1  C   UNL     1       5.524   1.924   1.196  1.00  0.00     0.080 C 
ENDROOT
BRANCH   1   2
ATOM      2  C   UNL     1       5.039   0.778   1.986  1.00  0.00     0.130 C 
ATOM      3  C   UNL     1       6.034  -0.357   2.162  1.00  0.00     0.087 C 
ATOM      4  O   UNL     1       3.965   0.639   2.499  1.00  0.00    -0.300 OA
ENDBRANCH   1   2
BRANCH   1   5
ATOM      5  C   UNL     1       5.511   1.756  -0.272  1.00  0.00     0.043 C 
BRANCH   5   6
ATOM      6  C   UNL     1       6.619   1.005  -0.870  1.00  0.00    -0.044 A 
ATOM      7  C   UNL     1       7.953   1.369  -0.680  1.00  0.00     0.008 A 
ATOM      8  C   UNL     1       6.363  -0.116  -1.625  1.00  0.00     0.054 A 
ATOM      9  C   UNL     1       8.940   0.605  -1.247  1.00  0.00     0.051 A 
ATOM     10  C   UNL     1       7.393  -0.880  -2.194  1.00  0.00     0.166 A 
ATOM     11  C   UNL     1       8.709  -0.520  -2.007  1.00  0.00     0.165 A 
ATOM     12  O   UNL     1       7.433  -2.026  -2.979  1.00  0.00    -0.454 OA
ATOM     13  O   UNL     1       9.527  -1.442  -2.673  1.00  0.00    -0.454 OA
ATOM     14  C   UNL     1       8.728  -2.594  -2.846  1.00  0.00     0.468 C 
ENDBRANCH   5   6
ENDBRANCH   1   5
TORSDOF 3
ENDMDL
MODEL 2
REMARK VINA RESULT:      -7.0      1.061      1.141
REMARK SMILES CC(=O)CCc1ccc2c(c1)OCO2
REMARK SMILES IDX 4 1 2 2 1 3 3 4 5 5 6 6 7 7 11 8 8 9 10 10 9 11 12 12 14 13
REMARK SMILES IDX 13 14
REMARK H PARENT
REMARK Flexibility Score: inf
ROOT
ATOM      1  C   UNL     1       6.155   1.287   0.851  1.00  0.00     0.080 C 
ENDROOT
BRANCH   1   2
ATOM      2  C   UNL     1       5.488   0.478   1.887  1.00  0.00     0.130 C 
ATOM      3  C   UNL     1       6.279  -0.720   2.386  1.00  0.00     0.087 C 
ATOM      4  O   UNL     1       4.408   0.654   2.376  1.00  0.00    -0.300 OA
ENDBRANCH   1   2
BRANCH   1   5
ATOM      5  C   UNL     1       5.833   0.944  -0.550  1.00  0.00     0.043 C 
BRANCH   5   6
ATOM      6  C   UNL     1       6.829   0.170  -1.296  1.00  0.00    -0.044 A 
ATOM      7  C   UNL     1       7.816   0.779  -2.073  1.00  0.00     0.008 A 
ATOM      8  C   UNL     1       6.830  -1.204  -1.223  1.00  0.00     0.054 A 
ATOM      9  C   UNL     1       8.732  -0.006  -2.723  1.00  0.00     0.051 A 
ATOM     10  C   UNL     1       7.781  -1.984  -1.898  1.00  0.00     0.166 A 
ATOM     11  C   UNL     1       8.754  -1.382  -2.665  1.00  0.00     0.165 A 
ATOM     12  O   UNL     1       8.019  -3.348  -2.005  1.00  0.00    -0.454 OA
ATOM     13  O   UNL     1       9.566  -2.377  -3.224  1.00  0.00    -0.454 OA
ATOM     14  C   UNL     1       9.368  -3.518  -2.415  1.00  0.00     0.468 C 
ENDBRANCH   5   6
ENDBRANCH   1   5
TORSDOF 3
ENDMDL
MODEL 3
REMARK VINA RESULT:      -6.9      1.668      2.017
REMARK SMILES CC(=O)CCc1ccc2c(c1)OCO2
REMARK SMILES IDX 4 1 2 2 1 3 3 4 5 5 6 6 7 7 11 8 8 9 10 10 9 11 12 12 14 13
REMARK SMILES IDX 13 14
REMARK H PARENT
REMARK Flexibility Score: inf
ROOT
ATOM      1  C   UNL     1       5.533   1.529   0.016  1.00  0.00     0.080 C 
ENDROOT
BRANCH   1   2
ATOM      2  C   UNL     1       4.891   1.281   1.320  1.00  0.00     0.130 C 
ATOM      3  C   UNL     1       5.479   0.136   2.127  1.00  0.00     0.087 C 
ATOM      4  O   UNL     1       3.970   1.871   1.811  1.00  0.00    -0.300 OA
ENDBRANCH   1   2
BRANCH   1   5
ATOM      5  C   UNL     1       6.977   1.227  -0.066  1.00  0.00     0.043 C 
BRANCH   5   6
ATOM      6  C   UNL     1       7.366  -0.004  -0.760  1.00  0.00    -0.044 A 
ATOM      7  C   UNL     1       7.445  -0.081  -2.152  1.00  0.00     0.008 A 
ATOM      8  C   UNL     1       7.695  -1.127  -0.037  1.00  0.00     0.054 A 
ATOM      9  C   UNL     1       7.841  -1.257  -2.733  1.00  0.00     0.051 A 
ATOM     10  C   UNL     1       8.098  -2.319  -0.658  1.00  0.00     0.166 A 
ATOM     11  C   UNL     1       8.176  -2.395  -2.032  1.00  0.00     0.165 A 
ATOM     12  O   UNL     1       8.480  -3.574  -0.199  1.00  0.00    -0.454 OA
ATOM     13  O   UNL     1       8.599  -3.682  -2.389  1.00  0.00    -0.454 OA
ATOM     14  C   UNL     1       9.222  -4.204  -1.233  1.00  0.00     0.468 C 
ENDBRANCH   5   6
ENDBRANCH   1   5
TORSDOF 3
ENDMDL
MODEL 4
REMARK VINA RESULT:      -6.8      1.860      2.398
REMARK SMILES CC(=O)CCc1ccc2c(c1)OCO2
REMARK SMILES IDX 4 1 2 2 1 3 3 4 5 5 6 6 7 7 11 8 8 9 10 10 9 11 12 12 14 13
REMARK SMILES IDX 13 14
REMARK H PARENT
REMARK Flexibility Score: inf
ROOT
ATOM      1  C   UNL     1       6.775   0.964   1.446  1.00  0.00     0.080 C 
ENDROOT
BRANCH   1   2
ATOM      2  C   UNL     1       5.322   1.213   1.464  1.00  0.00     0.130 C 
ATOM      3  C   UNL     1       4.809   2.143   0.378  1.00  0.00     0.087 C 
ATOM      4  O   UNL     1       4.509   0.771   2.226  1.00  0.00    -0.300 OA
ENDBRANCH   1   2
BRANCH   1   5
ATOM      5  C   UNL     1       7.432   1.035   0.124  1.00  0.00     0.043 C 
BRANCH   5   6
ATOM      6  C   UNL     1       7.671  -0.230  -0.575  1.00  0.00    -0.044 A 
ATOM      7  C   UNL     1       7.648  -0.326  -1.967  1.00  0.00     0.008 A 
ATOM      8  C   UNL     1       7.956  -1.369   0.141  1.00  0.00     0.054 A 
ATOM      9  C   UNL     1       7.907  -1.537  -2.556  1.00  0.00     0.051 A 
ATOM     10  C   UNL     1       8.218  -2.596  -0.488  1.00  0.00     0.166 A 
ATOM     11  C   UNL     1       8.195  -2.691  -1.862  1.00  0.00     0.165 A 
ATOM     12  O   UNL     1       8.527  -3.873  -0.036  1.00  0.00    -0.454 OA
ATOM     13  O   UNL     1       8.487  -4.012  -2.227  1.00  0.00    -0.454 OA
ATOM     14  C   UNL     1       9.143  -4.572  -1.108  1.00  0.00     0.468 C 
ENDBRANCH   5   6
ENDBRANCH   1   5
TORSDOF 3
ENDMDL
MODEL 5
REMARK VINA RESULT:      -6.7      1.107      1.616
REMARK SMILES CC(=O)CCc1ccc2c(c1)OCO2
REMARK SMILES IDX 4 1 2 2 1 3 3 4 5 5 6 6 7 7 11 8 8 9 10 10 9 11 12 12 14 13
REMARK SMILES IDX 13 14
REMARK H PARENT
REMARK Flexibility Score: inf
ROOT
ATOM      1  C   UNL     1       5.335  -0.022   1.989  1.00  0.00     0.080 C 
ENDROOT
BRANCH   1   2
ATOM      2  C   UNL     1       4.388   1.101   1.869  1.00  0.00     0.130 C 
ATOM      3  C   UNL     1       4.733   2.132   0.807  1.00  0.00     0.087 C 
ATOM      4  O   UNL     1       3.390   1.293   2.504  1.00  0.00    -0.300 OA
ENDBRANCH   1   2
BRANCH   1   5
ATOM      5  C   UNL     1       6.760   0.300   1.762  1.00  0.00     0.043 C 
BRANCH   5   6
ATOM      6  C   UNL     1       7.312  -0.000   0.438  1.00  0.00    -0.044 A 
ATOM      7  C   UNL     1       7.870   0.987  -0.377  1.00  0.00     0.008 A 
ATOM      8  C   UNL     1       7.317  -1.294  -0.029  1.00  0.00     0.054 A 
ATOM      9  C   UNL     1       8.393   0.630  -1.592  1.00  0.00     0.051 A 
ATOM     10  C   UNL     1       7.859  -1.631  -1.278  1.00  0.00     0.166 A 
ATOM     11  C   UNL     1       8.410  -0.657  -2.082  1.00  0.00     0.165 A 
ATOM     12  O   UNL     1       7.999  -2.817  -1.989  1.00  0.00    -0.454 OA
ATOM     13  O   UNL     1       8.874  -1.256  -3.261  1.00  0.00    -0.454 OA
ATOM     14  C   UNL     1       9.028  -2.625  -2.948  1.00  0.00     0.468 C 
ENDBRANCH   5   6
ENDBRANCH   1   5
TORSDOF 3
ENDMDL
