@<TRIPOS>MOLECULE
/home/cewinharhar/GITHUB/reincatalyze/data/processed/docking_pred/2023-May-31-1727_sub9_nm5_bs15_s42_ex16_mel10_mts10000_k50_ec075_g099_lra3e-4_lrc3e-3/e4036567ae6c7c824a0e93db279f74886267d276_ligand_9.pdbqt
 14 15 0 0 0
SMALL
GASTEIGER

@<TRIPOS>ATOM
      1  C          5.5240    1.9240    1.1960 C.3     1  UNL1        0.0800
      2  C          5.0390    0.7780    1.9860 C.2     1  UNL1        0.1300
      3  C          6.0340   -0.3570    2.1620 C.3     1  UNL1        0.0870
      4  O          3.9650    0.6390    2.4990 O.2     1  UNL1       -0.3000
      5  C          5.5110    1.7560   -0.2720 C.3     1  UNL1        0.0430
      6  C          6.6190    1.0050   -0.8700 C.2     1  UNL1       -0.0440
      7  C          7.9530    1.3690   -0.6800 C.2     1  UNL1        0.0080
      8  C          6.3630   -0.1160   -1.6250 C.2     1  UNL1        0.0540
      9  C          8.9400    0.6050   -1.2470 C.2     1  UNL1        0.0510
     10  C          7.3930   -0.8800   -2.1940 C.2     1  UNL1        0.1660
     11  C          8.7090   -0.5200   -2.0070 C.2     1  UNL1        0.1650
     12  O          7.4330   -2.0260   -2.9790 O.2     1  UNL1       -0.4540
     13  O          9.5270   -1.4420   -2.6730 O.2     1  UNL1       -0.4540
     14  C          8.7280   -2.5940   -2.8460 C.3     1  UNL1        0.4680
@<TRIPOS>BOND
     1    12    14    1
     2    12    10    1
     3    14    13    1
     4    13    11    1
     5    10    11    2
     6    10     8    1
     7    11     9    1
     8     8     6    2
     9     9     7    2
    10     6     7    1
    11     6     5    1
    12     5     1    1
    13     1     2    1
    14     2     3    1
    15     2     4    2
