@<TRIPOS>MOLECULE
/home/cewinharhar/GITHUB/reincatalyze/data/processed/docking_pred/2023-May-31-1727_sub9_nm5_bs15_s42_ex16_mel10_mts10000_k50_ec075_g099_lra3e-4_lrc3e-3/e4036567ae6c7c824a0e93db279f74886267d276_ligand_9.pdbqt
 14 15 0 0 0
SMALL
GASTEIGER

@<TRIPOS>ATOM
      1  C          6.7750    0.9640    1.4460 C.3     1  UNL1        0.0800
      2  C          5.3220    1.2130    1.4640 C.2     1  UNL1        0.1300
      3  C          4.8090    2.1430    0.3780 C.3     1  UNL1        0.0870
      4  O          4.5090    0.7710    2.2260 O.2     1  UNL1       -0.3000
      5  C          7.4320    1.0350    0.1240 C.3     1  UNL1        0.0430
      6  C          7.6710   -0.2300   -0.5750 C.2     1  UNL1       -0.0440
      7  C          7.6480   -0.3260   -1.9670 C.2     1  UNL1        0.0080
      8  C          7.9560   -1.3690    0.1410 C.2     1  UNL1        0.0540
      9  C          7.9070   -1.5370   -2.5560 C.2     1  UNL1        0.0510
     10  C          8.2180   -2.5960   -0.4880 C.2     1  UNL1        0.1660
     11  C          8.1950   -2.6910   -1.8620 C.2     1  UNL1        0.1650
     12  O          8.5270   -3.8730   -0.0360 O.2     1  UNL1       -0.4540
     13  O          8.4870   -4.0120   -2.2270 O.2     1  UNL1       -0.4540
     14  C          9.1430   -4.5720   -1.1080 C.3     1  UNL1        0.4680
@<TRIPOS>BOND
     1     9     7    1
     2     9    11    2
     3    13    11    1
     4    13    14    1
     5     7     6    2
     6    11    10    1
     7    14    12    1
     8     6     5    1
     9     6     8    1
    10    10    12    1
    11    10     8    2
    12     5     1    1
    13     3     2    1
    14     1     2    1
    15     2     4    2
