@<TRIPOS>MOLECULE
/home/cewinharhar/GITHUB/reincatalyze/data/processed/docking_pred/2023-May-31-1727_sub9_nm5_bs15_s42_ex16_mel10_mts10000_k50_ec075_g099_lra3e-4_lrc3e-3/e4036567ae6c7c824a0e93db279f74886267d276_ligand_9.pdbqt
 14 15 0 0 0
SMALL
GASTEIGER

@<TRIPOS>ATOM
      1  C          6.1550    1.2870    0.8510 C.3     1  UNL1        0.0800
      2  C          5.4880    0.4780    1.8870 C.2     1  UNL1        0.1300
      3  C          6.2790   -0.7200    2.3860 C.3     1  UNL1        0.0870
      4  O          4.4080    0.6540    2.3760 O.2     1  UNL1       -0.3000
      5  C          5.8330    0.9440   -0.5500 C.3     1  UNL1        0.0430
      6  C          6.8290    0.1700   -1.2960 C.2     1  UNL1       -0.0440
      7  C          7.8160    0.7790   -2.0730 C.2     1  UNL1        0.0080
      8  C          6.8300   -1.2040   -1.2230 C.2     1  UNL1        0.0540
      9  C          8.7320   -0.0060   -2.7230 C.2     1  UNL1        0.0510
     10  C          7.7810   -1.9840   -1.8980 C.2     1  UNL1        0.1660
     11  C          8.7540   -1.3820   -2.6650 C.2     1  UNL1        0.1650
     12  O          8.0190   -3.3480   -2.0050 O.2     1  UNL1       -0.4540
     13  O          9.5660   -2.3770   -3.2240 O.2     1  UNL1       -0.4540
     14  C          9.3680   -3.5180   -2.4150 C.3     1  UNL1        0.4680
@<TRIPOS>BOND
     1    13    11    1
     2    13    14    1
     3     9    11    2
     4     9     7    1
     5    11    10    1
     6    14    12    1
     7     7     6    2
     8    12    10    1
     9    10     8    2
    10     6     8    1
    11     6     5    1
    12     5     1    1
    13     1     2    1
    14     2     4    2
    15     2     3    1
