@<TRIPOS>MOLECULE
/home/cewinharhar/GITHUB/reincatalyze/data/processed/docking_pred/2023-May-31-1727_sub9_nm5_bs15_s42_ex16_mel10_mts10000_k50_ec075_g099_lra3e-4_lrc3e-3/e4036567ae6c7c824a0e93db279f74886267d276_ligand_9.pdbqt
 14 15 0 0 0
SMALL
GASTEIGER

@<TRIPOS>ATOM
      1  C          5.5330    1.5290    0.0160 C.3     1  UNL1        0.0800
      2  C          4.8910    1.2810    1.3200 C.2     1  UNL1        0.1300
      3  C          5.4790    0.1360    2.1270 C.3     1  UNL1        0.0870
      4  O          3.9700    1.8710    1.8110 O.2     1  UNL1       -0.3000
      5  C          6.9770    1.2270   -0.0660 C.3     1  UNL1        0.0430
      6  C          7.3660   -0.0040   -0.7600 C.2     1  UNL1       -0.0440
      7  C          7.4450   -0.0810   -2.1520 C.2     1  UNL1        0.0080
      8  C          7.6950   -1.1270   -0.0370 C.2     1  UNL1        0.0540
      9  C          7.8410   -1.2570   -2.7330 C.2     1  UNL1        0.0510
     10  C          8.0980   -2.3190   -0.6580 C.2     1  UNL1        0.1660
     11  C          8.1760   -2.3950   -2.0320 C.2     1  UNL1        0.1650
     12  O          8.4800   -3.5740   -0.1990 O.2     1  UNL1       -0.4540
     13  O          8.5990   -3.6820   -2.3890 O.2     1  UNL1       -0.4540
     14  C          9.2220   -4.2040   -1.2330 C.3     1  UNL1        0.4680
@<TRIPOS>BOND
     1     9     7    1
     2     9    11    2
     3    13    11    1
     4    13    14    1
     5     7     6    2
     6    11    10    1
     7    14    12    1
     8     6     5    1
     9     6     8    1
    10    10    12    1
    11    10     8    2
    12     5     1    1
    13     1     2    1
    14     2     4    2
    15     2     3    1
