@<TRIPOS>MOLECULE
/home/cewinharhar/GITHUB/reincatalyze/data/processed/docking_pred/2023-May-31-1727_sub9_nm5_bs15_s42_ex16_mel10_mts10000_k50_ec075_g099_lra3e-4_lrc3e-3/e5153a6a2872aa0f73be7da8df97a591d10f8a10_ligand_9.pdbqt
 14 15 0 0 0
SMALL
GASTEIGER

@<TRIPOS>ATOM
      1  C          5.6090    1.8640    1.2600 C.3     1  UNL1        0.0800
      2  C          5.0320    0.7290    2.0030 C.2     1  UNL1        0.1300
      3  C          5.9420   -0.4790    2.1530 C.3     1  UNL1        0.0870
      4  O          3.9430    0.6490    2.4960 O.2     1  UNL1       -0.3000
      5  C          5.6000    1.7510   -0.2130 C.3     1  UNL1        0.0430
      6  C          6.6870    0.9890   -0.8340 C.2     1  UNL1       -0.0440
      7  C          8.0280    1.3420   -0.6730 C.2     1  UNL1        0.0080
      8  C          6.4050   -0.1300   -1.5820 C.2     1  UNL1        0.0540
      9  C          8.9960    0.5680   -1.2600 C.2     1  UNL1        0.0510
     10  C          7.4150   -0.9040   -2.1720 C.2     1  UNL1        0.1660
     11  C          8.7390   -0.5560   -2.0140 C.2     1  UNL1        0.1650
     12  O          7.4280   -2.0510   -2.9560 O.2     1  UNL1       -0.4540
     13  O          9.5330   -1.4860   -2.6960 O.2     1  UNL1       -0.4540
     14  C          8.7200   -2.6300   -2.8510 C.3     1  UNL1        0.4680
@<TRIPOS>BOND
     1    12    14    1
     2    12    10    1
     3    14    13    1
     4    13    11    1
     5    10    11    2
     6    10     8    1
     7    11     9    1
     8     8     6    2
     9     9     7    2
    10     6     7    1
    11     6     5    1
    12     5     1    1
    13     1     2    1
    14     2     3    1
    15     2     4    2
