MODEL 1
REMARK VINA RESULT:      -7.6      0.000      0.000
REMARK SMILES CC(=O)CCc1ccc2c(c1)OCO2
REMARK SMILES IDX 4 1 2 2 1 3 3 4 5 5 6 6 7 7 11 8 8 9 10 10 9 11 12 12 14 13
REMARK SMILES IDX 13 14
REMARK H PARENT
REMARK Flexibility Score: inf
ROOT
ATOM      1  C   UNL     1       5.609   1.864   1.260  1.00  0.00     0.080 C 
ENDROOT
BRANCH   1   2
ATOM      2  C   UNL     1       5.032   0.729   2.003  1.00  0.00     0.130 C 
ATOM      3  C   UNL     1       5.942  -0.479   2.153  1.00  0.00     0.087 C 
ATOM      4  O   UNL     1       3.943   0.649   2.496  1.00  0.00    -0.300 OA
ENDBRANCH   1   2
BRANCH   1   5
ATOM      5  C   UNL     1       5.600   1.751  -0.213  1.00  0.00     0.043 C 
BRANCH   5   6
ATOM      6  C   UNL     1       6.687   0.989  -0.834  1.00  0.00    -0.044 A 
ATOM      7  C   UNL     1       8.028   1.342  -0.673  1.00  0.00     0.008 A 
ATOM      8  C   UNL     1       6.405  -0.130  -1.582  1.00  0.00     0.054 A 
ATOM      9  C   UNL     1       8.996   0.568  -1.260  1.00  0.00     0.051 A 
ATOM     10  C   UNL     1       7.415  -0.904  -2.172  1.00  0.00     0.166 A 
ATOM     11  C   UNL     1       8.739  -0.556  -2.014  1.00  0.00     0.165 A 
ATOM     12  O   UNL     1       7.428  -2.051  -2.956  1.00  0.00    -0.454 OA
ATOM     13  O   UNL     1       9.533  -1.486  -2.696  1.00  0.00    -0.454 OA
ATOM     14  C   UNL     1       8.720  -2.630  -2.851  1.00  0.00     0.468 C 
ENDBRANCH   5   6
ENDBRANCH   1   5
TORSDOF 3
ENDMDL
MODEL 2
REMARK VINA RESULT:      -7.0      1.854      2.323
REMARK SMILES CC(=O)CCc1ccc2c(c1)OCO2
REMARK SMILES IDX 4 1 2 2 1 3 3 4 5 5 6 6 7 7 11 8 8 9 10 10 9 11 12 12 14 13
REMARK SMILES IDX 13 14
REMARK H PARENT
REMARK Flexibility Score: inf
ROOT
ATOM      1  C   UNL     1       5.884   1.376  -0.264  1.00  0.00     0.080 C 
ENDROOT
BRANCH   1   2
ATOM      2  C   UNL     1       5.209   1.324   1.045  1.00  0.00     0.130 C 
ATOM      3  C   UNL     1       5.459   0.063   1.855  1.00  0.00     0.087 C 
ATOM      4  O   UNL     1       4.494   2.150   1.538  1.00  0.00    -0.300 OA
ENDBRANCH   1   2
BRANCH   1   5
ATOM      5  C   UNL     1       7.309   0.984  -0.279  1.00  0.00     0.043 C 
BRANCH   5   6
ATOM      6  C   UNL     1       7.641  -0.315  -0.870  1.00  0.00    -0.044 A 
ATOM      7  C   UNL     1       7.710  -0.508  -2.250  1.00  0.00     0.008 A 
ATOM      8  C   UNL     1       7.925  -1.388  -0.058  1.00  0.00     0.054 A 
ATOM      9  C   UNL     1       8.053  -1.744  -2.734  1.00  0.00     0.051 A 
ATOM     10  C   UNL     1       8.274  -2.643  -0.580  1.00  0.00     0.166 A 
ATOM     11  C   UNL     1       8.341  -2.834  -1.943  1.00  0.00     0.165 A 
ATOM     12  O   UNL     1       8.603  -3.871  -0.020  1.00  0.00    -0.454 OA
ATOM     13  O   UNL     1       8.707  -4.163  -2.193  1.00  0.00    -0.454 OA
ATOM     14  C   UNL     1       9.312  -4.615  -1.000  1.00  0.00     0.468 C 
ENDBRANCH   5   6
ENDBRANCH   1   5
TORSDOF 3
ENDMDL
MODEL 3
REMARK VINA RESULT:      -6.9      1.025      1.116
REMARK SMILES CC(=O)CCc1ccc2c(c1)OCO2
REMARK SMILES IDX 4 1 2 2 1 3 3 4 5 5 6 6 7 7 11 8 8 9 10 10 9 11 12 12 14 13
REMARK SMILES IDX 13 14
REMARK H PARENT
REMARK Flexibility Score: inf
ROOT
ATOM      1  C   UNL     1       6.216   1.256   0.823  1.00  0.00     0.080 C 
ENDROOT
BRANCH   1   2
ATOM      2  C   UNL     1       5.582   0.423   1.861  1.00  0.00     0.130 C 
ATOM      3  C   UNL     1       6.368  -0.809   2.275  1.00  0.00     0.087 C 
ATOM      4  O   UNL     1       4.532   0.604   2.408  1.00  0.00    -0.300 OA
ENDBRANCH   1   2
BRANCH   1   5
ATOM      5  C   UNL     1       5.909   0.898  -0.578  1.00  0.00     0.043 C 
BRANCH   5   6
ATOM      6  C   UNL     1       6.927   0.145  -1.315  1.00  0.00    -0.044 A 
ATOM      7  C   UNL     1       7.976   0.774  -1.987  1.00  0.00     0.008 A 
ATOM      8  C   UNL     1       6.884  -1.230  -1.338  1.00  0.00     0.054 A 
ATOM      9  C   UNL     1       8.909   0.005  -2.634  1.00  0.00     0.051 A 
ATOM     10  C   UNL     1       7.853  -1.992  -2.009  1.00  0.00     0.166 A 
ATOM     11  C   UNL     1       8.888  -1.371  -2.673  1.00  0.00     0.165 A 
ATOM     12  O   UNL     1       8.059  -3.353  -2.197  1.00  0.00    -0.454 OA
ATOM     13  O   UNL     1       9.705  -2.352  -3.250  1.00  0.00    -0.454 OA
ATOM     14  C   UNL     1       9.426  -3.538  -2.536  1.00  0.00     0.468 C 
ENDBRANCH   5   6
ENDBRANCH   1   5
TORSDOF 3
ENDMDL
MODEL 4
REMARK VINA RESULT:      -6.8      1.170      1.645
REMARK SMILES CC(=O)CCc1ccc2c(c1)OCO2
REMARK SMILES IDX 4 1 2 2 1 3 3 4 5 5 6 6 7 7 11 8 8 9 10 10 9 11 12 12 14 13
REMARK SMILES IDX 13 14
REMARK H PARENT
REMARK Flexibility Score: inf
ROOT
ATOM      1  C   UNL     1       5.360  -0.058   1.983  1.00  0.00     0.080 C 
ENDROOT
BRANCH   1   2
ATOM      2  C   UNL     1       4.410   1.064   1.878  1.00  0.00     0.130 C 
ATOM      3  C   UNL     1       4.735   2.093   0.808  1.00  0.00     0.087 C 
ATOM      4  O   UNL     1       3.424   1.257   2.531  1.00  0.00    -0.300 OA
ENDBRANCH   1   2
BRANCH   1   5
ATOM      5  C   UNL     1       6.780   0.264   1.729  1.00  0.00     0.043 C 
BRANCH   5   6
ATOM      6  C   UNL     1       7.316  -0.069   0.406  1.00  0.00    -0.044 A 
ATOM      7  C   UNL     1       7.730   0.912  -0.497  1.00  0.00     0.008 A 
ATOM      8  C   UNL     1       7.451  -1.385   0.028  1.00  0.00     0.054 A 
ATOM      9  C   UNL     1       8.248   0.528  -1.707  1.00  0.00     0.051 A 
ATOM     10  C   UNL     1       7.984  -1.749  -1.217  1.00  0.00     0.166 A 
ATOM     11  C   UNL     1       8.393  -0.782  -2.108  1.00  0.00     0.165 A 
ATOM     12  O   UNL     1       8.233  -2.961  -1.850  1.00  0.00    -0.454 OA
ATOM     13  O   UNL     1       8.881  -1.409  -3.262  1.00  0.00    -0.454 OA
ATOM     14  C   UNL     1       9.199  -2.726  -2.864  1.00  0.00     0.468 C 
ENDBRANCH   5   6
ENDBRANCH   1   5
TORSDOF 3
ENDMDL
MODEL 5
REMARK VINA RESULT:      -6.7      1.972      2.508
REMARK SMILES CC(=O)CCc1ccc2c(c1)OCO2
REMARK SMILES IDX 4 1 2 2 1 3 3 4 5 5 6 6 7 7 11 8 8 9 10 10 9 11 12 12 14 13
REMARK SMILES IDX 13 14
REMARK H PARENT
REMARK Flexibility Score: inf
ROOT
ATOM      1  C   UNL     1       5.713   0.049   2.011  1.00  0.00     0.080 C 
ENDROOT
BRANCH   1   2
ATOM      2  C   UNL     1       4.719   1.100   1.725  1.00  0.00     0.130 C 
ATOM      3  C   UNL     1       5.063   2.022   0.568  1.00  0.00     0.087 C 
ATOM      4  O   UNL     1       3.685   1.308   2.293  1.00  0.00    -0.300 OA
ENDBRANCH   1   2
BRANCH   1   5
ATOM      5  C   UNL     1       7.037   0.215   1.374  1.00  0.00     0.043 C 
BRANCH   5   6
ATOM      6  C   UNL     1       7.416  -0.765   0.352  1.00  0.00    -0.044 A 
ATOM      7  C   UNL     1       7.369  -0.472  -1.012  1.00  0.00     0.008 A 
ATOM      8  C   UNL     1       7.862  -2.011   0.724  1.00  0.00     0.054 A 
ATOM      9  C   UNL     1       7.765  -1.427  -1.912  1.00  0.00     0.051 A 
ATOM     10  C   UNL     1       8.261  -2.970  -0.219  1.00  0.00     0.166 A 
ATOM     11  C   UNL     1       8.215  -2.682  -1.565  1.00  0.00     0.165 A 
ATOM     12  O   UNL     1       8.741  -4.272  -0.138  1.00  0.00    -0.454 OA
ATOM     13  O   UNL     1       8.662  -3.799  -2.281  1.00  0.00    -0.454 OA
ATOM     14  C   UNL     1       9.413  -4.559  -1.356  1.00  0.00     0.468 C 
ENDBRANCH   5   6
ENDBRANCH   1   5
TORSDOF 3
ENDMDL
