@<TRIPOS>MOLECULE
/home/cewinharhar/GITHUB/reincatalyze/data/processed/docking_pred/2023-May-31-1727_sub9_nm5_bs15_s42_ex16_mel10_mts10000_k50_ec075_g099_lra3e-4_lrc3e-3/e5153a6a2872aa0f73be7da8df97a591d10f8a10_ligand_9.pdbqt
 14 15 0 0 0
SMALL
GASTEIGER

@<TRIPOS>ATOM
      1  C          5.3600   -0.0580    1.9830 C.3     1  UNL1        0.0800
      2  C          4.4100    1.0640    1.8780 C.2     1  UNL1        0.1300
      3  C          4.7350    2.0930    0.8080 C.3     1  UNL1        0.0870
      4  O          3.4240    1.2570    2.5310 O.2     1  UNL1       -0.3000
      5  C          6.7800    0.2640    1.7290 C.3     1  UNL1        0.0430
      6  C          7.3160   -0.0690    0.4060 C.2     1  UNL1       -0.0440
      7  C          7.7300    0.9120   -0.4970 C.2     1  UNL1        0.0080
      8  C          7.4510   -1.3850    0.0280 C.2     1  UNL1        0.0540
      9  C          8.2480    0.5280   -1.7070 C.2     1  UNL1        0.0510
     10  C          7.9840   -1.7490   -1.2170 C.2     1  UNL1        0.1660
     11  C          8.3930   -0.7820   -2.1080 C.2     1  UNL1        0.1650
     12  O          8.2330   -2.9610   -1.8500 O.2     1  UNL1       -0.4540
     13  O          8.8810   -1.4090   -3.2620 O.2     1  UNL1       -0.4540
     14  C          9.1990   -2.7260   -2.8640 C.3     1  UNL1        0.4680
@<TRIPOS>BOND
     1    13    14    1
     2    13    11    1
     3    14    12    1
     4    11     9    2
     5    11    10    1
     6    12    10    1
     7     9     7    1
     8    10     8    2
     9     7     6    2
    10     8     6    1
    11     6     5    1
    12     3     2    1
    13     5     1    1
    14     2     1    1
    15     2     4    2
