@<TRIPOS>MOLECULE
/home/cewinharhar/GITHUB/reincatalyze/data/processed/docking_pred/2023-May-31-1727_sub9_nm5_bs15_s42_ex16_mel10_mts10000_k50_ec075_g099_lra3e-4_lrc3e-3/e5153a6a2872aa0f73be7da8df97a591d10f8a10_ligand_9.pdbqt
 14 15 0 0 0
SMALL
GASTEIGER

@<TRIPOS>ATOM
      1  C          6.2160    1.2560    0.8230 C.3     1  UNL1        0.0800
      2  C          5.5820    0.4230    1.8610 C.2     1  UNL1        0.1300
      3  C          6.3680   -0.8090    2.2750 C.3     1  UNL1        0.0870
      4  O          4.5320    0.6040    2.4080 O.2     1  UNL1       -0.3000
      5  C          5.9090    0.8980   -0.5780 C.3     1  UNL1        0.0430
      6  C          6.9270    0.1450   -1.3150 C.2     1  UNL1       -0.0440
      7  C          7.9760    0.7740   -1.9870 C.2     1  UNL1        0.0080
      8  C          6.8840   -1.2300   -1.3380 C.2     1  UNL1        0.0540
      9  C          8.9090    0.0050   -2.6340 C.2     1  UNL1        0.0510
     10  C          7.8530   -1.9920   -2.0090 C.2     1  UNL1        0.1660
     11  C          8.8880   -1.3710   -2.6730 C.2     1  UNL1        0.1650
     12  O          8.0590   -3.3530   -2.1970 O.2     1  UNL1       -0.4540
     13  O          9.7050   -2.3520   -3.2500 O.2     1  UNL1       -0.4540
     14  C          9.4260   -3.5380   -2.5360 C.3     1  UNL1        0.4680
@<TRIPOS>BOND
     1    13    11    1
     2    13    14    1
     3    11     9    2
     4    11    10    1
     5     9     7    1
     6    14    12    1
     7    12    10    1
     8    10     8    2
     9     7     6    2
    10     8     6    1
    11     6     5    1
    12     5     1    1
    13     1     2    1
    14     2     3    1
    15     2     4    2
