@<TRIPOS>MOLECULE
/home/cewinharhar/GITHUB/reincatalyze/data/processed/docking_pred/2023-May-31-1727_sub9_nm5_bs15_s42_ex16_mel10_mts10000_k50_ec075_g099_lra3e-4_lrc3e-3/e69dee760b6a4f483691253cffcee702e9155e2b_ligand_9.pdbqt
 14 15 0 0 0
SMALL
GASTEIGER

@<TRIPOS>ATOM
      1  C          5.7700    1.4080   -0.2550 C.3     1  UNL1        0.0800
      2  C          5.1130    1.3330    1.0620 C.2     1  UNL1        0.1300
      3  C          5.5080    0.1420    1.9190 C.3     1  UNL1        0.0870
      4  O          4.3140    2.0940    1.5290 O.2     1  UNL1       -0.3000
      5  C          7.2000    1.0370   -0.2920 C.3     1  UNL1        0.0430
      6  C          7.5420   -0.2610   -0.8810 C.2     1  UNL1       -0.0440
      7  C          7.6190   -0.4540   -2.2610 C.2     1  UNL1        0.0080
      8  C          7.8270   -1.3330   -0.0670 C.2     1  UNL1        0.0540
      9  C          7.9700   -1.6890   -2.7420 C.2     1  UNL1        0.0510
     10  C          8.1850   -2.5860   -0.5870 C.2     1  UNL1        0.1660
     11  C          8.2600   -2.7770   -1.9490 C.2     1  UNL1        0.1650
     12  O          8.5170   -3.8130   -0.0250 O.2     1  UNL1       -0.4540
     13  O          8.6340   -4.1040   -2.1980 O.2     1  UNL1       -0.4540
     14  C          9.2350   -4.5530   -1.0010 C.3     1  UNL1        0.4680
@<TRIPOS>BOND
     1     9     7    1
     2     9    11    2
     3     7     6    2
     4    13    11    1
     5    13    14    1
     6    11    10    1
     7    14    12    1
     8     6     5    1
     9     6     8    1
    10    10     8    2
    11    10    12    1
    12     5     1    1
    13     1     2    1
    14     2     4    2
    15     2     3    1
