@<TRIPOS>MOLECULE
/home/cewinharhar/GITHUB/reincatalyze/data/processed/docking_pred/2023-May-31-1727_sub9_nm5_bs15_s42_ex16_mel10_mts10000_k50_ec075_g099_lra3e-4_lrc3e-3/e69dee760b6a4f483691253cffcee702e9155e2b_ligand_9.pdbqt
 14 15 0 0 0
SMALL
GASTEIGER

@<TRIPOS>ATOM
      1  C          5.4790    1.8840    1.2150 C.3     1  UNL1        0.0800
      2  C          4.9390    0.7550    1.9940 C.2     1  UNL1        0.1300
      3  C          5.8350   -0.4690    2.0710 C.3     1  UNL1        0.0870
      4  O          3.8880    0.6920    2.5660 O.2     1  UNL1       -0.3000
      5  C          5.4730    1.7240   -0.2550 C.3     1  UNL1        0.0430
      6  C          6.5970    1.0000   -0.8550 C.2     1  UNL1       -0.0440
      7  C          7.9240    1.3820   -0.6460 C.2     1  UNL1        0.0080
      8  C          6.3650   -0.1110   -1.6310 C.2     1  UNL1        0.0540
      9  C          8.9270    0.6420   -1.2170 C.2     1  UNL1        0.0510
     10  C          7.4120   -0.8500   -2.2030 C.2     1  UNL1        0.1660
     11  C          8.7210   -0.4730   -1.9980 C.2     1  UNL1        0.1650
     12  O          7.4770   -1.9820   -3.0070 O.2     1  UNL1       -0.4540
     13  O          9.5590   -1.3710   -2.6720 O.2     1  UNL1       -0.4540
     14  C          8.7790   -2.5320   -2.8710 C.3     1  UNL1        0.4680
@<TRIPOS>BOND
     1    12    14    1
     2    12    10    1
     3    14    13    1
     4    13    11    1
     5    10    11    2
     6    10     8    1
     7    11     9    1
     8     8     6    2
     9     9     7    2
    10     6     7    1
    11     6     5    1
    12     5     1    1
    13     1     2    1
    14     2     3    1
    15     2     4    2
