@<TRIPOS>MOLECULE
/home/cewinharhar/GITHUB/reincatalyze/data/processed/docking_pred/2023-May-31-1727_sub9_nm5_bs15_s42_ex16_mel10_mts10000_k50_ec075_g099_lra3e-4_lrc3e-3/e69dee760b6a4f483691253cffcee702e9155e2b_ligand_9.pdbqt
 14 15 0 0 0
SMALL
GASTEIGER

@<TRIPOS>ATOM
      1  C          5.3450   -0.0430    1.9800 C.3     1  UNL1        0.0800
      2  C          4.4080    1.0900    1.8760 C.2     1  UNL1        0.1300
      3  C          4.7540    2.1250    0.8190 C.3     1  UNL1        0.0870
      4  O          3.4180    1.2870    2.5210 O.2     1  UNL1       -0.3000
      5  C          6.7740    0.2720    1.7730 C.3     1  UNL1        0.0430
      6  C          7.3400   -0.0120    0.4520 C.2     1  UNL1       -0.0440
      7  C          7.9390    0.9780   -0.3300 C.2     1  UNL1        0.0080
      8  C          7.3160   -1.2940   -0.0460 C.2     1  UNL1        0.0540
      9  C          8.4720    0.6350   -1.5460 C.2     1  UNL1        0.0510
     10  C          7.8700   -1.6170   -1.2950 C.2     1  UNL1        0.1660
     11  C          8.4600   -0.6400   -2.0660 C.2     1  UNL1        0.1650
     12  O          7.9890   -2.7890   -2.0310 O.2     1  UNL1       -0.4540
     13  O          8.9270   -1.2230   -3.2510 O.2     1  UNL1       -0.4540
     14  C          9.0380   -2.6030   -2.9690 C.3     1  UNL1        0.4680
@<TRIPOS>BOND
     1    13    14    1
     2    13    11    1
     3    14    12    1
     4    11     9    2
     5    11    10    1
     6    12    10    1
     7     9     7    1
     8    10     8    2
     9     7     6    2
    10     8     6    1
    11     6     5    1
    12     3     2    1
    13     5     1    1
    14     2     1    1
    15     2     4    2
