MODEL 1
REMARK VINA RESULT:      -7.7      0.000      0.000
REMARK SMILES CC(=O)CCc1ccc2c(c1)OCO2
REMARK SMILES IDX 4 1 2 2 1 3 3 4 5 5 6 6 7 7 11 8 8 9 10 10 9 11 12 12 14 13
REMARK SMILES IDX 13 14
REMARK H PARENT
REMARK Flexibility Score: inf
ROOT
ATOM      1  C   UNL     1       5.479   1.884   1.215  1.00  0.00     0.080 C 
ENDROOT
BRANCH   1   2
ATOM      2  C   UNL     1       4.939   0.755   1.994  1.00  0.00     0.130 C 
ATOM      3  C   UNL     1       5.835  -0.469   2.071  1.00  0.00     0.087 C 
ATOM      4  O   UNL     1       3.888   0.692   2.566  1.00  0.00    -0.300 OA
ENDBRANCH   1   2
BRANCH   1   5
ATOM      5  C   UNL     1       5.473   1.724  -0.255  1.00  0.00     0.043 C 
BRANCH   5   6
ATOM      6  C   UNL     1       6.597   1.000  -0.855  1.00  0.00    -0.044 A 
ATOM      7  C   UNL     1       7.924   1.382  -0.646  1.00  0.00     0.008 A 
ATOM      8  C   UNL     1       6.365  -0.111  -1.631  1.00  0.00     0.054 A 
ATOM      9  C   UNL     1       8.927   0.642  -1.217  1.00  0.00     0.051 A 
ATOM     10  C   UNL     1       7.412  -0.850  -2.203  1.00  0.00     0.166 A 
ATOM     11  C   UNL     1       8.721  -0.473  -1.998  1.00  0.00     0.165 A 
ATOM     12  O   UNL     1       7.477  -1.982  -3.007  1.00  0.00    -0.454 OA
ATOM     13  O   UNL     1       9.559  -1.371  -2.672  1.00  0.00    -0.454 OA
ATOM     14  C   UNL     1       8.779  -2.532  -2.871  1.00  0.00     0.468 C 
ENDBRANCH   5   6
ENDBRANCH   1   5
TORSDOF 3
ENDMDL
MODEL 2
REMARK VINA RESULT:      -7.1      1.849      2.324
REMARK SMILES CC(=O)CCc1ccc2c(c1)OCO2
REMARK SMILES IDX 4 1 2 2 1 3 3 4 5 5 6 6 7 7 11 8 8 9 10 10 9 11 12 12 14 13
REMARK SMILES IDX 13 14
REMARK H PARENT
REMARK Flexibility Score: inf
ROOT
ATOM      1  C   UNL     1       5.770   1.408  -0.255  1.00  0.00     0.080 C 
ENDROOT
BRANCH   1   2
ATOM      2  C   UNL     1       5.113   1.333   1.062  1.00  0.00     0.130 C 
ATOM      3  C   UNL     1       5.508   0.142   1.919  1.00  0.00     0.087 C 
ATOM      4  O   UNL     1       4.314   2.094   1.529  1.00  0.00    -0.300 OA
ENDBRANCH   1   2
BRANCH   1   5
ATOM      5  C   UNL     1       7.200   1.037  -0.292  1.00  0.00     0.043 C 
BRANCH   5   6
ATOM      6  C   UNL     1       7.542  -0.261  -0.881  1.00  0.00    -0.044 A 
ATOM      7  C   UNL     1       7.619  -0.454  -2.261  1.00  0.00     0.008 A 
ATOM      8  C   UNL     1       7.827  -1.333  -0.067  1.00  0.00     0.054 A 
ATOM      9  C   UNL     1       7.970  -1.689  -2.742  1.00  0.00     0.051 A 
ATOM     10  C   UNL     1       8.185  -2.586  -0.587  1.00  0.00     0.166 A 
ATOM     11  C   UNL     1       8.260  -2.777  -1.949  1.00  0.00     0.165 A 
ATOM     12  O   UNL     1       8.517  -3.813  -0.025  1.00  0.00    -0.454 OA
ATOM     13  O   UNL     1       8.634  -4.104  -2.198  1.00  0.00    -0.454 OA
ATOM     14  C   UNL     1       9.235  -4.553  -1.001  1.00  0.00     0.468 C 
ENDBRANCH   5   6
ENDBRANCH   1   5
TORSDOF 3
ENDMDL
MODEL 3
REMARK VINA RESULT:      -7.0      1.130      1.250
REMARK SMILES CC(=O)CCc1ccc2c(c1)OCO2
REMARK SMILES IDX 4 1 2 2 1 3 3 4 5 5 6 6 7 7 11 8 8 9 10 10 9 11 12 12 14 13
REMARK SMILES IDX 13 14
REMARK H PARENT
REMARK Flexibility Score: inf
ROOT
ATOM      1  C   UNL     1       6.237   1.185   0.900  1.00  0.00     0.080 C 
ENDROOT
BRANCH   1   2
ATOM      2  C   UNL     1       5.559   0.369   1.924  1.00  0.00     0.130 C 
ATOM      3  C   UNL     1       6.333  -0.849   2.401  1.00  0.00     0.087 C 
ATOM      4  O   UNL     1       4.483   0.552   2.417  1.00  0.00    -0.300 OA
ENDBRANCH   1   2
BRANCH   1   5
ATOM      5  C   UNL     1       5.892   0.884  -0.505  1.00  0.00     0.043 C 
BRANCH   5   6
ATOM      6  C   UNL     1       6.865   0.111  -1.283  1.00  0.00    -0.044 A 
ATOM      7  C   UNL     1       7.794   0.720  -2.128  1.00  0.00     0.008 A 
ATOM      8  C   UNL     1       6.901  -1.260  -1.173  1.00  0.00     0.054 A 
ATOM      9  C   UNL     1       8.693  -0.064  -2.805  1.00  0.00     0.051 A 
ATOM     10  C   UNL     1       7.833  -2.037  -1.877  1.00  0.00     0.166 A 
ATOM     11  C   UNL     1       8.749  -1.437  -2.712  1.00  0.00     0.165 A 
ATOM     12  O   UNL     1       8.097  -3.399  -1.960  1.00  0.00    -0.454 OA
ATOM     13  O   UNL     1       9.553  -2.429  -3.287  1.00  0.00    -0.454 OA
ATOM     14  C   UNL     1       9.426  -3.551  -2.438  1.00  0.00     0.468 C 
ENDBRANCH   5   6
ENDBRANCH   1   5
TORSDOF 3
ENDMDL
MODEL 4
REMARK VINA RESULT:      -6.9      1.855      2.437
REMARK SMILES CC(=O)CCc1ccc2c(c1)OCO2
REMARK SMILES IDX 4 1 2 2 1 3 3 4 5 5 6 6 7 7 11 8 8 9 10 10 9 11 12 12 14 13
REMARK SMILES IDX 13 14
REMARK H PARENT
REMARK Flexibility Score: inf
ROOT
ATOM      1  C   UNL     1       6.618   1.098   1.313  1.00  0.00     0.080 C 
ENDROOT
BRANCH   1   2
ATOM      2  C   UNL     1       5.244   1.572   1.062  1.00  0.00     0.130 C 
ATOM      3  C   UNL     1       4.999   2.150  -0.322  1.00  0.00     0.087 C 
ATOM      4  O   UNL     1       4.311   1.553   1.813  1.00  0.00    -0.300 OA
ENDBRANCH   1   2
BRANCH   1   5
ATOM      5  C   UNL     1       7.540   1.132   0.158  1.00  0.00     0.043 C 
BRANCH   5   6
ATOM      6  C   UNL     1       7.775  -0.130  -0.548  1.00  0.00    -0.044 A 
ATOM      7  C   UNL     1       7.861  -0.200  -1.939  1.00  0.00     0.008 A 
ATOM      8  C   UNL     1       7.948  -1.295   0.163  1.00  0.00     0.054 A 
ATOM      9  C   UNL     1       8.111  -1.410  -2.532  1.00  0.00     0.051 A 
ATOM     10  C   UNL     1       8.203  -2.521  -0.470  1.00  0.00     0.166 A 
ATOM     11  C   UNL     1       8.287  -2.590  -1.843  1.00  0.00     0.165 A 
ATOM     12  O   UNL     1       8.414  -3.820  -0.024  1.00  0.00    -0.454 OA
ATOM     13  O   UNL     1       8.546  -3.916  -2.213  1.00  0.00    -0.454 OA
ATOM     14  C   UNL     1       9.082  -4.527  -1.058  1.00  0.00     0.468 C 
ENDBRANCH   5   6
ENDBRANCH   1   5
TORSDOF 3
ENDMDL
MODEL 5
REMARK VINA RESULT:      -6.8      1.095      1.599
REMARK SMILES CC(=O)CCc1ccc2c(c1)OCO2
REMARK SMILES IDX 4 1 2 2 1 3 3 4 5 5 6 6 7 7 11 8 8 9 10 10 9 11 12 12 14 13
REMARK SMILES IDX 13 14
REMARK H PARENT
REMARK Flexibility Score: inf
ROOT
ATOM      1  C   UNL     1       5.345  -0.043   1.980  1.00  0.00     0.080 C 
ENDROOT
BRANCH   1   2
ATOM      2  C   UNL     1       4.408   1.090   1.876  1.00  0.00     0.130 C 
ATOM      3  C   UNL     1       4.754   2.125   0.819  1.00  0.00     0.087 C 
ATOM      4  O   UNL     1       3.418   1.287   2.521  1.00  0.00    -0.300 OA
ENDBRANCH   1   2
BRANCH   1   5
ATOM      5  C   UNL     1       6.774   0.272   1.773  1.00  0.00     0.043 C 
BRANCH   5   6
ATOM      6  C   UNL     1       7.340  -0.012   0.452  1.00  0.00    -0.044 A 
ATOM      7  C   UNL     1       7.939   0.978  -0.330  1.00  0.00     0.008 A 
ATOM      8  C   UNL     1       7.316  -1.294  -0.046  1.00  0.00     0.054 A 
ATOM      9  C   UNL     1       8.472   0.635  -1.546  1.00  0.00     0.051 A 
ATOM     10  C   UNL     1       7.870  -1.617  -1.295  1.00  0.00     0.166 A 
ATOM     11  C   UNL     1       8.460  -0.640  -2.066  1.00  0.00     0.165 A 
ATOM     12  O   UNL     1       7.989  -2.789  -2.031  1.00  0.00    -0.454 OA
ATOM     13  O   UNL     1       8.927  -1.223  -3.251  1.00  0.00    -0.454 OA
ATOM     14  C   UNL     1       9.038  -2.603  -2.969  1.00  0.00     0.468 C 
ENDBRANCH   5   6
ENDBRANCH   1   5
TORSDOF 3
ENDMDL
