@<TRIPOS>MOLECULE
/home/cewinharhar/GITHUB/reincatalyze/data/processed/docking_pred/2023-May-31-1727_sub9_nm5_bs15_s42_ex16_mel10_mts10000_k50_ec075_g099_lra3e-4_lrc3e-3/e72dfb9ce69b60d9dd63e32278a4acfac8a78322_ligand_9.pdbqt
 14 15 0 0 0
SMALL
GASTEIGER

@<TRIPOS>ATOM
      1  C          5.3570   -0.0790    1.9430 C.3     1  UNL1        0.0800
      2  C          4.4200    1.0560    1.8540 C.2     1  UNL1        0.1300
      3  C          4.7580    2.0960    0.7990 C.3     1  UNL1        0.0870
      4  O          3.4360    1.2500    2.5090 O.2     1  UNL1       -0.3000
      5  C          6.7810    0.2300    1.6980 C.3     1  UNL1        0.0430
      6  C          7.3200   -0.0950    0.3740 C.2     1  UNL1       -0.0440
      7  C          7.7270    0.8900   -0.5260 C.2     1  UNL1        0.0080
      8  C          7.4640   -1.4090   -0.0060 C.2     1  UNL1        0.0540
      9  C          8.2470    0.5130   -1.7370 C.2     1  UNL1        0.0510
     10  C          8.0010   -1.7680   -1.2520 C.2     1  UNL1        0.1660
     11  C          8.4020   -0.7950   -2.1410 C.2     1  UNL1        0.1650
     12  O          8.2580   -2.9760   -1.8880 O.2     1  UNL1       -0.4540
     13  O          8.8940   -1.4160   -3.2960 O.2     1  UNL1       -0.4540
     14  C          9.2230   -2.7320   -2.9010 C.3     1  UNL1        0.4680
@<TRIPOS>BOND
     1    13    14    1
     2    13    11    1
     3    14    12    1
     4    11     9    2
     5    11    10    1
     6    12    10    1
     7     9     7    1
     8    10     8    2
     9     7     6    2
    10     8     6    1
    11     6     5    1
    12     3     2    1
    13     5     1    1
    14     2     1    1
    15     2     4    2
