@<TRIPOS>MOLECULE
/home/cewinharhar/GITHUB/reincatalyze/data/processed/docking_pred/2023-May-31-1727_sub9_nm5_bs15_s42_ex16_mel10_mts10000_k50_ec075_g099_lra3e-4_lrc3e-3/e72dfb9ce69b60d9dd63e32278a4acfac8a78322_ligand_9.pdbqt
 14 15 0 0 0
SMALL
GASTEIGER

@<TRIPOS>ATOM
      1  C          5.4860   -0.0340    2.0780 C.3     1  UNL1        0.0800
      2  C          4.5540    1.0840    1.8460 C.2     1  UNL1        0.1300
      3  C          4.9400    2.0280    0.7200 C.3     1  UNL1        0.0870
      4  O          3.5400    1.3310    2.4340 O.2     1  UNL1       -0.3000
      5  C          6.8500    0.1310    1.5340 C.3     1  UNL1        0.0430
      6  C          7.2680   -0.7970    0.4790 C.2     1  UNL1       -0.0440
      7  C          7.1990   -0.4630   -0.8750 C.2     1  UNL1        0.0080
      8  C          7.7730   -2.0330    0.8090 C.2     1  UNL1        0.0540
      9  C          7.6320   -1.3700   -1.8070 C.2     1  UNL1        0.0510
     10  C          8.2090   -2.9420   -0.1670 C.2     1  UNL1        0.1660
     11  C          8.1410   -2.6130   -1.5020 C.2     1  UNL1        0.1650
     12  O          8.7490   -4.2220   -0.1300 O.2     1  UNL1       -0.4540
     13  O          8.6350   -3.6860   -2.2560 O.2     1  UNL1       -0.4540
     14  C          9.4250   -4.4390   -1.3590 C.3     1  UNL1        0.4680
@<TRIPOS>BOND
     1    13    11    1
     2    13    14    1
     3     9    11    2
     4     9     7    1
     5    11    10    1
     6    14    12    1
     7     7     6    2
     8    10    12    1
     9    10     8    2
    10     6     8    1
    11     6     5    1
    12     3     2    1
    13     5     1    1
    14     2     1    1
    15     2     4    2
