@<TRIPOS>MOLECULE
/home/cewinharhar/GITHUB/reincatalyze/data/processed/docking_pred/2023-May-31-1727_sub9_nm5_bs15_s42_ex16_mel10_mts10000_k50_ec075_g099_lra3e-4_lrc3e-3/e72dfb9ce69b60d9dd63e32278a4acfac8a78322_ligand_9.pdbqt
 14 15 0 0 0
SMALL
GASTEIGER

@<TRIPOS>ATOM
      1  C          5.6490    1.9150    1.2800 C.3     1  UNL1        0.0800
      2  C          5.0810    0.7630    2.0040 C.2     1  UNL1        0.1300
      3  C          6.0220   -0.4140    2.1950 C.3     1  UNL1        0.0870
      4  O          3.9760    0.6500    2.4540 O.2     1  UNL1       -0.3000
      5  C          5.6450    1.8230   -0.1950 C.3     1  UNL1        0.0430
      6  C          6.7180    1.0460   -0.8210 C.2     1  UNL1       -0.0440
      7  C          8.0630    1.3990   -0.6950 C.2     1  UNL1        0.0080
      8  C          6.4180   -0.0890   -1.5380 C.2     1  UNL1        0.0540
      9  C          9.0170    0.6100   -1.2850 C.2     1  UNL1        0.0510
     10  C          7.4150   -0.8780   -2.1310 C.2     1  UNL1        0.1660
     11  C          8.7420   -0.5300   -2.0080 C.2     1  UNL1        0.1650
     12  O          7.4100   -2.0420   -2.8900 O.2     1  UNL1       -0.4540
     13  O          9.5210   -1.4760   -2.6860 O.2     1  UNL1       -0.4540
     14  C          8.7030   -2.6220   -2.7980 C.3     1  UNL1        0.4680
@<TRIPOS>BOND
     1    12    14    1
     2    12    10    1
     3    14    13    1
     4    13    11    1
     5    10    11    2
     6    10     8    1
     7    11     9    1
     8     8     6    2
     9     9     7    2
    10     6     7    1
    11     6     5    1
    12     5     1    1
    13     1     2    1
    14     2     3    1
    15     2     4    2
