MODEL 1
REMARK VINA RESULT:      -7.6      0.000      0.000
REMARK SMILES CC(=O)CCc1ccc2c(c1)OCO2
REMARK SMILES IDX 4 1 2 2 1 3 3 4 5 5 6 6 7 7 11 8 8 9 10 10 9 11 12 12 14 13
REMARK SMILES IDX 13 14
REMARK H PARENT
REMARK Flexibility Score: inf
ROOT
ATOM      1  C   UNL     1       5.649   1.915   1.280  1.00  0.00     0.080 C 
ENDROOT
BRANCH   1   2
ATOM      2  C   UNL     1       5.081   0.763   2.004  1.00  0.00     0.130 C 
ATOM      3  C   UNL     1       6.022  -0.414   2.195  1.00  0.00     0.087 C 
ATOM      4  O   UNL     1       3.976   0.650   2.454  1.00  0.00    -0.300 OA
ENDBRANCH   1   2
BRANCH   1   5
ATOM      5  C   UNL     1       5.645   1.823  -0.195  1.00  0.00     0.043 C 
BRANCH   5   6
ATOM      6  C   UNL     1       6.718   1.046  -0.821  1.00  0.00    -0.044 A 
ATOM      7  C   UNL     1       8.063   1.399  -0.695  1.00  0.00     0.008 A 
ATOM      8  C   UNL     1       6.418  -0.089  -1.538  1.00  0.00     0.054 A 
ATOM      9  C   UNL     1       9.017   0.610  -1.285  1.00  0.00     0.051 A 
ATOM     10  C   UNL     1       7.415  -0.878  -2.131  1.00  0.00     0.166 A 
ATOM     11  C   UNL     1       8.742  -0.530  -2.008  1.00  0.00     0.165 A 
ATOM     12  O   UNL     1       7.410  -2.042  -2.890  1.00  0.00    -0.454 OA
ATOM     13  O   UNL     1       9.521  -1.476  -2.686  1.00  0.00    -0.454 OA
ATOM     14  C   UNL     1       8.703  -2.622  -2.798  1.00  0.00     0.468 C 
ENDBRANCH   5   6
ENDBRANCH   1   5
TORSDOF 3
ENDMDL
MODEL 2
REMARK VINA RESULT:      -7.0      1.832      2.323
REMARK SMILES CC(=O)CCc1ccc2c(c1)OCO2
REMARK SMILES IDX 4 1 2 2 1 3 3 4 5 5 6 6 7 7 11 8 8 9 10 10 9 11 12 12 14 13
REMARK SMILES IDX 13 14
REMARK H PARENT
REMARK Flexibility Score: inf
ROOT
ATOM      1  C   UNL     1       5.884   1.376  -0.264  1.00  0.00     0.080 C 
ENDROOT
BRANCH   1   2
ATOM      2  C   UNL     1       5.209   1.324   1.045  1.00  0.00     0.130 C 
ATOM      3  C   UNL     1       5.459   0.063   1.855  1.00  0.00     0.087 C 
ATOM      4  O   UNL     1       4.494   2.150   1.538  1.00  0.00    -0.300 OA
ENDBRANCH   1   2
BRANCH   1   5
ATOM      5  C   UNL     1       7.309   0.984  -0.279  1.00  0.00     0.043 C 
BRANCH   5   6
ATOM      6  C   UNL     1       7.641  -0.315  -0.870  1.00  0.00    -0.044 A 
ATOM      7  C   UNL     1       7.710  -0.508  -2.250  1.00  0.00     0.008 A 
ATOM      8  C   UNL     1       7.925  -1.388  -0.058  1.00  0.00     0.054 A 
ATOM      9  C   UNL     1       8.053  -1.744  -2.734  1.00  0.00     0.051 A 
ATOM     10  C   UNL     1       8.274  -2.643  -0.580  1.00  0.00     0.166 A 
ATOM     11  C   UNL     1       8.341  -2.834  -1.943  1.00  0.00     0.165 A 
ATOM     12  O   UNL     1       8.603  -3.871  -0.020  1.00  0.00    -0.454 OA
ATOM     13  O   UNL     1       8.707  -4.163  -2.193  1.00  0.00    -0.454 OA
ATOM     14  C   UNL     1       9.312  -4.615  -1.000  1.00  0.00     0.468 C 
ENDBRANCH   5   6
ENDBRANCH   1   5
TORSDOF 3
ENDMDL
MODEL 3
REMARK VINA RESULT:      -7.0      1.080      1.168
REMARK SMILES CC(=O)CCc1ccc2c(c1)OCO2
REMARK SMILES IDX 4 1 2 2 1 3 3 4 5 5 6 6 7 7 11 8 8 9 10 10 9 11 12 12 14 13
REMARK SMILES IDX 13 14
REMARK H PARENT
REMARK Flexibility Score: inf
ROOT
ATOM      1  C   UNL     1       6.206   1.222   0.879  1.00  0.00     0.080 C 
ENDROOT
BRANCH   1   2
ATOM      2  C   UNL     1       5.548   0.395   1.907  1.00  0.00     0.130 C 
ATOM      3  C   UNL     1       6.346  -0.807   2.383  1.00  0.00     0.087 C 
ATOM      4  O   UNL     1       4.471   0.560   2.405  1.00  0.00    -0.300 OA
ENDBRANCH   1   2
BRANCH   1   5
ATOM      5  C   UNL     1       5.868   0.907  -0.524  1.00  0.00     0.043 C 
BRANCH   5   6
ATOM      6  C   UNL     1       6.849   0.137  -1.294  1.00  0.00    -0.044 A 
ATOM      7  C   UNL     1       7.806   0.750  -2.104  1.00  0.00     0.008 A 
ATOM      8  C   UNL     1       6.866  -1.236  -1.209  1.00  0.00     0.054 A 
ATOM      9  C   UNL     1       8.711  -0.031  -2.774  1.00  0.00     0.051 A 
ATOM     10  C   UNL     1       7.805  -2.012  -1.906  1.00  0.00     0.166 A 
ATOM     11  C   UNL     1       8.749  -1.407  -2.707  1.00  0.00     0.165 A 
ATOM     12  O   UNL     1       8.055  -3.375  -2.010  1.00  0.00    -0.454 OA
ATOM     13  O   UNL     1       9.554  -2.398  -3.282  1.00  0.00    -0.454 OA
ATOM     14  C   UNL     1       9.393  -3.534  -2.458  1.00  0.00     0.468 C 
ENDBRANCH   5   6
ENDBRANCH   1   5
TORSDOF 3
ENDMDL
MODEL 4
REMARK VINA RESULT:      -6.8      1.918      2.516
REMARK SMILES CC(=O)CCc1ccc2c(c1)OCO2
REMARK SMILES IDX 4 1 2 2 1 3 3 4 5 5 6 6 7 7 11 8 8 9 10 10 9 11 12 12 14 13
REMARK SMILES IDX 13 14
REMARK H PARENT
REMARK Flexibility Score: inf
ROOT
ATOM      1  C   UNL     1       5.486  -0.034   2.078  1.00  0.00     0.080 C 
ENDROOT
BRANCH   1   2
ATOM      2  C   UNL     1       4.554   1.084   1.846  1.00  0.00     0.130 C 
ATOM      3  C   UNL     1       4.940   2.028   0.720  1.00  0.00     0.087 C 
ATOM      4  O   UNL     1       3.540   1.331   2.434  1.00  0.00    -0.300 OA
ENDBRANCH   1   2
BRANCH   1   5
ATOM      5  C   UNL     1       6.850   0.131   1.534  1.00  0.00     0.043 C 
BRANCH   5   6
ATOM      6  C   UNL     1       7.268  -0.797   0.479  1.00  0.00    -0.044 A 
ATOM      7  C   UNL     1       7.199  -0.463  -0.875  1.00  0.00     0.008 A 
ATOM      8  C   UNL     1       7.773  -2.033   0.809  1.00  0.00     0.054 A 
ATOM      9  C   UNL     1       7.632  -1.370  -1.807  1.00  0.00     0.051 A 
ATOM     10  C   UNL     1       8.209  -2.942  -0.167  1.00  0.00     0.166 A 
ATOM     11  C   UNL     1       8.141  -2.613  -1.502  1.00  0.00     0.165 A 
ATOM     12  O   UNL     1       8.749  -4.222  -0.130  1.00  0.00    -0.454 OA
ATOM     13  O   UNL     1       8.635  -3.686  -2.256  1.00  0.00    -0.454 OA
ATOM     14  C   UNL     1       9.425  -4.439  -1.359  1.00  0.00     0.468 C 
ENDBRANCH   5   6
ENDBRANCH   1   5
TORSDOF 3
ENDMDL
MODEL 5
REMARK VINA RESULT:      -6.7      1.164      1.652
REMARK SMILES CC(=O)CCc1ccc2c(c1)OCO2
REMARK SMILES IDX 4 1 2 2 1 3 3 4 5 5 6 6 7 7 11 8 8 9 10 10 9 11 12 12 14 13
REMARK SMILES IDX 13 14
REMARK H PARENT
REMARK Flexibility Score: inf
ROOT
ATOM      1  C   UNL     1       5.357  -0.079   1.943  1.00  0.00     0.080 C 
ENDROOT
BRANCH   1   2
ATOM      2  C   UNL     1       4.420   1.056   1.854  1.00  0.00     0.130 C 
ATOM      3  C   UNL     1       4.758   2.096   0.799  1.00  0.00     0.087 C 
ATOM      4  O   UNL     1       3.436   1.250   2.509  1.00  0.00    -0.300 OA
ENDBRANCH   1   2
BRANCH   1   5
ATOM      5  C   UNL     1       6.781   0.230   1.698  1.00  0.00     0.043 C 
BRANCH   5   6
ATOM      6  C   UNL     1       7.320  -0.095   0.374  1.00  0.00    -0.044 A 
ATOM      7  C   UNL     1       7.727   0.890  -0.526  1.00  0.00     0.008 A 
ATOM      8  C   UNL     1       7.464  -1.409  -0.006  1.00  0.00     0.054 A 
ATOM      9  C   UNL     1       8.247   0.513  -1.737  1.00  0.00     0.051 A 
ATOM     10  C   UNL     1       8.001  -1.768  -1.252  1.00  0.00     0.166 A 
ATOM     11  C   UNL     1       8.402  -0.795  -2.141  1.00  0.00     0.165 A 
ATOM     12  O   UNL     1       8.258  -2.976  -1.888  1.00  0.00    -0.454 OA
ATOM     13  O   UNL     1       8.894  -1.416  -3.296  1.00  0.00    -0.454 OA
ATOM     14  C   UNL     1       9.223  -2.732  -2.901  1.00  0.00     0.468 C 
ENDBRANCH   5   6
ENDBRANCH   1   5
TORSDOF 3
ENDMDL
