@<TRIPOS>MOLECULE
/home/cewinharhar/GITHUB/reincatalyze/data/processed/docking_pred/2023-May-31-1727_sub9_nm5_bs15_s42_ex16_mel10_mts10000_k50_ec075_g099_lra3e-4_lrc3e-3/e743b996860f571666c6245a074490b4455d41b0_ligand_9.pdbqt
 14 15 0 0 0
SMALL
GASTEIGER

@<TRIPOS>ATOM
      1  C          6.6990    0.8860    1.5120 C.3     1  UNL1        0.0800
      2  C          5.2540    1.1750    1.4970 C.2     1  UNL1        0.1300
      3  C          4.7940    2.1370    0.4150 C.3     1  UNL1        0.0870
      4  O          4.4100    0.7420    2.2300 O.2     1  UNL1       -0.3000
      5  C          7.3970    0.9910    0.2130 C.3     1  UNL1        0.0430
      6  C          7.6560   -0.2570   -0.5110 C.2     1  UNL1       -0.0440
      7  C          7.6480   -0.3240   -1.9050 C.2     1  UNL1        0.0080
      8  C          7.9460   -1.4090    0.1840 C.2     1  UNL1        0.0540
      9  C          7.9260   -1.5190   -2.5160 C.2     1  UNL1        0.0510
     10  C          8.2270   -2.6190   -0.4680 C.2     1  UNL1        0.1660
     11  C          8.2190   -2.6850   -1.8440 C.2     1  UNL1        0.1650
     12  O          8.5440   -3.9020   -0.0400 O.2     1  UNL1       -0.4540
     13  O          8.5280   -3.9940   -2.2340 O.2     1  UNL1       -0.4540
     14  C          9.1780   -4.5710   -1.1210 C.3     1  UNL1        0.4680
@<TRIPOS>BOND
     1     9     7    1
     2     9    11    2
     3    13    11    1
     4    13    14    1
     5     7     6    2
     6    11    10    1
     7    14    12    1
     8     6     8    1
     9     6     5    1
    10    10    12    1
    11    10     8    2
    12     5     1    1
    13     3     2    1
    14     2     1    1
    15     2     4    2
