@<TRIPOS>MOLECULE
/home/cewinharhar/GITHUB/reincatalyze/data/processed/docking_pred/2023-May-31-1727_sub9_nm5_bs15_s42_ex16_mel10_mts10000_k50_ec075_g099_lra3e-4_lrc3e-3/e8fc6854485d68a8d0bf78bf523603f1a9cbeca9_ligand_9.pdbqt
 14 15 0 0 0
SMALL
GASTEIGER

@<TRIPOS>ATOM
      1  C          6.7500    1.2370    0.9290 C.3     1  UNL1        0.0800
      2  C          5.3690    1.7190    0.7480 C.2     1  UNL1        0.1300
      3  C          5.0100    2.1500   -0.6640 C.3     1  UNL1        0.0870
      4  O          4.5070    1.8080    1.5760 O.2     1  UNL1       -0.3000
      5  C          7.5820    1.1720   -0.2910 C.3     1  UNL1        0.0430
      6  C          7.8130   -0.1530   -0.8750 C.2     1  UNL1       -0.0440
      7  C          7.9070   -0.3530   -2.2530 C.2     1  UNL1        0.0080
      8  C          7.9730   -1.2470   -0.0570 C.2     1  UNL1        0.0540
      9  C          8.1510   -1.6150   -2.7280 C.2     1  UNL1        0.0510
     10  C          8.2230   -2.5290   -0.5710 C.2     1  UNL1        0.1660
     11  C          8.3150   -2.7260   -1.9310 C.2     1  UNL1        0.1650
     12  O          8.4210   -3.7810   -0.0030 O.2     1  UNL1       -0.4540
     13  O          8.5660   -4.0830   -2.1730 O.2     1  UNL1       -0.4540
     14  C          9.0910   -4.5870   -0.9620 C.3     1  UNL1        0.4680
@<TRIPOS>BOND
     1     9     7    1
     2     9    11    2
     3     7     6    2
     4    13    11    1
     5    13    14    1
     6    11    10    1
     7    14    12    1
     8     6     5    1
     9     6     8    1
    10     3     2    1
    11    10     8    2
    12    10    12    1
    13     5     1    1
    14     2     1    1
    15     2     4    2
