@<TRIPOS>MOLECULE
/home/cewinharhar/GITHUB/reincatalyze/data/processed/docking_pred/2023-May-31-1727_sub9_nm5_bs15_s42_ex16_mel10_mts10000_k50_ec075_g099_lra3e-4_lrc3e-3/ea9f39b4277e7ba3f00603e8654b95ed05d2571c_ligand_9.pdbqt
 14 15 0 0 0
SMALL
GASTEIGER

@<TRIPOS>ATOM
      1  C          6.8590    1.0300    1.4390 C.3     1  UNL1        0.0800
      2  C          5.3950    1.1890    1.4900 C.2     1  UNL1        0.1300
      3  C          4.8090    2.1500    0.4690 C.3     1  UNL1        0.0870
      4  O          4.6220    0.6540    2.2330 O.2     1  UNL1       -0.3000
      5  C          7.4750    1.0910    0.0970 C.3     1  UNL1        0.0430
      6  C          7.6960   -0.1810   -0.5980 C.2     1  UNL1       -0.0440
      7  C          7.6480   -0.2870   -1.9890 C.2     1  UNL1        0.0080
      8  C          7.9900   -1.3160    0.1210 C.2     1  UNL1        0.0540
      9  C          7.8910   -1.5030   -2.5730 C.2     1  UNL1        0.0510
     10  C          8.2350   -2.5480   -0.5030 C.2     1  UNL1        0.1660
     11  C          8.1870   -2.6530   -1.8760 C.2     1  UNL1        0.1650
     12  O          8.5470   -3.8230   -0.0470 O.2     1  UNL1       -0.4540
     13  O          8.4670   -3.9770   -2.2360 O.2     1  UNL1       -0.4540
     14  C          9.1400   -4.5320   -1.1250 C.3     1  UNL1        0.4680
@<TRIPOS>BOND
     1     9     7    1
     2     9    11    2
     3    13    11    1
     4    13    14    1
     5     7     6    2
     6    11    10    1
     7    14    12    1
     8     6     5    1
     9     6     8    1
    10    10    12    1
    11    10     8    2
    12     5     1    1
    13     3     2    1
    14     1     2    1
    15     2     4    2
