@<TRIPOS>MOLECULE
/home/cewinharhar/GITHUB/reincatalyze/data/processed/docking_pred/2023-May-31-1727_sub9_nm5_bs15_s42_ex16_mel10_mts10000_k50_ec075_g099_lra3e-4_lrc3e-3/eb53456adf8787420c4e8f25112cf644d6bf88f9_ligand_9.pdbqt
 14 15 0 0 0
SMALL
GASTEIGER

@<TRIPOS>ATOM
      1  C          6.4060    0.4390    1.6700 C.3     1  UNL1        0.0800
      2  C          5.1040    1.1290    1.6220 C.2     1  UNL1        0.1300
      3  C          4.9490    2.1470    0.5050 C.3     1  UNL1        0.0870
      4  O          4.1660    0.9810    2.3530 O.2     1  UNL1       -0.3000
      5  C          7.2940    0.6420    0.5050 C.3     1  UNL1        0.0430
      6  C          7.6160   -0.5350   -0.3050 C.2     1  UNL1       -0.0440
      7  C          7.6360   -0.4950   -1.7010 C.2     1  UNL1        0.0080
      8  C          7.9390   -1.7240    0.3060 C.2     1  UNL1        0.0540
      9  C          7.9720   -1.6280   -2.3950 C.2     1  UNL1        0.0510
     10  C          8.2810   -2.8690   -0.4300 C.2     1  UNL1        0.1660
     11  C          8.3000   -2.8300   -1.8070 C.2     1  UNL1        0.1650
     12  O          8.6410   -4.1690   -0.0950 O.2     1  UNL1       -0.4540
     13  O          8.6690   -4.0920   -2.2890 O.2     1  UNL1       -0.4540
     14  C          9.3210   -4.7280   -1.2090 C.3     1  UNL1        0.4680
@<TRIPOS>BOND
     1     9    11    2
     2     9     7    1
     3    13    11    1
     4    13    14    1
     5    11    10    1
     6     7     6    2
     7    14    12    1
     8    10    12    1
     9    10     8    2
    10     6     8    1
    11     6     5    1
    12     3     2    1
    13     5     1    1
    14     2     1    1
    15     2     4    2
