@<TRIPOS>MOLECULE
/home/cewinharhar/GITHUB/reincatalyze/data/processed/docking_pred/2023-May-31-1727_sub9_nm5_bs15_s42_ex16_mel10_mts10000_k50_ec075_g099_lra3e-4_lrc3e-3/eb53456adf8787420c4e8f25112cf644d6bf88f9_ligand_9.pdbqt
 14 15 0 0 0
SMALL
GASTEIGER

@<TRIPOS>ATOM
      1  C          6.1440    1.2170    0.8780 C.3     1  UNL1        0.0800
      2  C          5.5010    0.3830    1.9100 C.2     1  UNL1        0.1300
      3  C          6.2920   -0.8390    2.3440 C.3     1  UNL1        0.0870
      4  O          4.4410    0.5570    2.4400 O.2     1  UNL1       -0.3000
      5  C          5.8240    0.8790   -0.5250 C.3     1  UNL1        0.0430
      6  C          6.8300    0.1260   -1.2790 C.2     1  UNL1       -0.0440
      7  C          7.8290    0.7580   -2.0220 C.2     1  UNL1        0.0080
      8  C          6.8280   -1.2490   -1.2470 C.2     1  UNL1        0.0540
      9  C          8.7540   -0.0090   -2.6820 C.2     1  UNL1        0.0510
     10  C          7.7880   -2.0100   -1.9320 C.2     1  UNL1        0.1660
     11  C          8.7730   -1.3860   -2.6660 C.2     1  UNL1        0.1650
     12  O          8.0270   -3.3710   -2.0770 O.2     1  UNL1       -0.4540
     13  O          9.5920   -2.3660   -3.2430 O.2     1  UNL1       -0.4540
     14  C          9.3810   -3.5300   -2.4720 C.3     1  UNL1        0.4680
@<TRIPOS>BOND
     1    13    11    1
     2    13    14    1
     3     9    11    2
     4     9     7    1
     5    11    10    1
     6    14    12    1
     7    12    10    1
     8     7     6    2
     9    10     8    2
    10     6     8    1
    11     6     5    1
    12     5     1    1
    13     1     2    1
    14     2     3    1
    15     2     4    2
