@<TRIPOS>MOLECULE
/home/cewinharhar/GITHUB/reincatalyze/data/processed/docking_pred/2023-May-31-1727_sub9_nm5_bs15_s42_ex16_mel10_mts10000_k50_ec075_g099_lra3e-4_lrc3e-3/eb53456adf8787420c4e8f25112cf644d6bf88f9_ligand_9.pdbqt
 14 15 0 0 0
SMALL
GASTEIGER

@<TRIPOS>ATOM
      1  C          5.4020   -0.0780    1.9490 C.3     1  UNL1        0.0800
      2  C          4.4520    1.0470    1.8760 C.2     1  UNL1        0.1300
      3  C          4.7550    2.0860    0.8100 C.3     1  UNL1        0.0870
      4  O          3.4800    1.2340    2.5510 O.2     1  UNL1       -0.3000
      5  C          6.8200    0.2490    1.6870 C.3     1  UNL1        0.0430
      6  C          7.3570   -0.1070    0.3710 C.2     1  UNL1       -0.0440
      7  C          7.7900    0.8560   -0.5420 C.2     1  UNL1        0.0080
      8  C          7.4750   -1.4290    0.0100 C.2     1  UNL1        0.0540
      9  C          8.3080    0.4500   -1.7440 C.2     1  UNL1        0.0510
     10  C          8.0090   -1.8170   -1.2280 C.2     1  UNL1        0.1660
     11  C          8.4360   -0.8660   -2.1290 C.2     1  UNL1        0.1650
     12  O          8.2440   -3.0400   -1.8450 O.2     1  UNL1       -0.4540
     13  O          8.9200   -1.5150   -3.2720 O.2     1  UNL1       -0.4540
     14  C          9.2180   -2.8310   -2.8570 C.3     1  UNL1        0.4680
@<TRIPOS>BOND
     1    13    14    1
     2    13    11    1
     3    14    12    1
     4    11     9    2
     5    11    10    1
     6    12    10    1
     7     9     7    1
     8    10     8    2
     9     7     6    2
    10     8     6    1
    11     6     5    1
    12     3     2    1
    13     5     1    1
    14     2     1    1
    15     2     4    2
