@<TRIPOS>MOLECULE
/home/cewinharhar/GITHUB/reincatalyze/data/processed/docking_pred/2023-May-31-1727_sub9_nm5_bs15_s42_ex16_mel10_mts10000_k50_ec075_g099_lra3e-4_lrc3e-3/eb9358f7bad4db9539b7d0967c6d7dee777b6146_ligand_9.pdbqt
 14 15 0 0 0
SMALL
GASTEIGER

@<TRIPOS>ATOM
      1  C          5.7600    1.4580   -0.2540 C.3     1  UNL1        0.0800
      2  C          5.0770    1.3610    1.0490 C.2     1  UNL1        0.1300
      3  C          5.5330    0.2160    1.9380 C.3     1  UNL1        0.0870
      4  O          4.2150    2.0710    1.4820 O.2     1  UNL1       -0.3000
      5  C          7.1910    1.0870   -0.2680 C.3     1  UNL1        0.0430
      6  C          7.5420   -0.2060   -0.8620 C.2     1  UNL1       -0.0440
      7  C          7.6260   -0.3930   -2.2430 C.2     1  UNL1        0.0080
      8  C          7.8300   -1.2800   -0.0520 C.2     1  UNL1        0.0540
      9  C          7.9860   -1.6230   -2.7280 C.2     1  UNL1        0.0510
     10  C          8.1970   -2.5290   -0.5760 C.2     1  UNL1        0.1660
     11  C          8.2790   -2.7130   -1.9390 C.2     1  UNL1        0.1650
     12  O          8.5340   -3.7560   -0.0180 O.2     1  UNL1       -0.4540
     13  O          8.6610   -4.0370   -2.1920 O.2     1  UNL1       -0.4540
     14  C          9.2600   -4.4880   -0.9950 C.3     1  UNL1        0.4680
@<TRIPOS>BOND
     1     9     7    1
     2     9    11    2
     3     7     6    2
     4    13    11    1
     5    13    14    1
     6    11    10    1
     7    14    12    1
     8     6     5    1
     9     6     8    1
    10    10     8    2
    11    10    12    1
    12     5     1    1
    13     1     2    1
    14     2     4    2
    15     2     3    1
