MODEL 1
REMARK VINA RESULT:      -7.7      0.000      0.000
REMARK SMILES CC(=O)CCc1ccc2c(c1)OCO2
REMARK SMILES IDX 4 1 2 2 1 3 3 4 5 5 6 6 7 7 11 8 8 9 10 10 9 11 12 12 14 13
REMARK SMILES IDX 13 14
REMARK H PARENT
REMARK Flexibility Score: inf
ROOT
ATOM      1  C   UNL     1       5.477   1.892   1.212  1.00  0.00     0.080 C 
ENDROOT
BRANCH   1   2
ATOM      2  C   UNL     1       4.949   0.758   1.992  1.00  0.00     0.130 C 
ATOM      3  C   UNL     1       5.864  -0.451   2.082  1.00  0.00     0.087 C 
ATOM      4  O   UNL     1       3.895   0.681   2.557  1.00  0.00    -0.300 OA
ENDBRANCH   1   2
BRANCH   1   5
ATOM      5  C   UNL     1       5.470   1.731  -0.257  1.00  0.00     0.043 C 
BRANCH   5   6
ATOM      6  C   UNL     1       6.588   0.996  -0.856  1.00  0.00    -0.044 A 
ATOM      7  C   UNL     1       7.916   1.383  -0.671  1.00  0.00     0.008 A 
ATOM      8  C   UNL     1       6.348  -0.132  -1.606  1.00  0.00     0.054 A 
ATOM      9  C   UNL     1       8.914   0.632  -1.238  1.00  0.00     0.051 A 
ATOM     10  C   UNL     1       7.388  -0.882  -2.175  1.00  0.00     0.166 A 
ATOM     11  C   UNL     1       8.699  -0.499  -1.993  1.00  0.00     0.165 A 
ATOM     12  O   UNL     1       7.444  -2.029  -2.956  1.00  0.00    -0.454 OA
ATOM     13  O   UNL     1       9.530  -1.410  -2.659  1.00  0.00    -0.454 OA
ATOM     14  C   UNL     1       8.749  -2.575  -2.825  1.00  0.00     0.468 C 
ENDBRANCH   5   6
ENDBRANCH   1   5
TORSDOF 3
ENDMDL
MODEL 2
REMARK VINA RESULT:      -7.0      1.813      2.267
REMARK SMILES CC(=O)CCc1ccc2c(c1)OCO2
REMARK SMILES IDX 4 1 2 2 1 3 3 4 5 5 6 6 7 7 11 8 8 9 10 10 9 11 12 12 14 13
REMARK SMILES IDX 13 14
REMARK H PARENT
REMARK Flexibility Score: inf
ROOT
ATOM      1  C   UNL     1       5.760   1.458  -0.254  1.00  0.00     0.080 C 
ENDROOT
BRANCH   1   2
ATOM      2  C   UNL     1       5.077   1.361   1.049  1.00  0.00     0.130 C 
ATOM      3  C   UNL     1       5.533   0.216   1.938  1.00  0.00     0.087 C 
ATOM      4  O   UNL     1       4.215   2.071   1.482  1.00  0.00    -0.300 OA
ENDBRANCH   1   2
BRANCH   1   5
ATOM      5  C   UNL     1       7.191   1.087  -0.268  1.00  0.00     0.043 C 
BRANCH   5   6
ATOM      6  C   UNL     1       7.542  -0.206  -0.862  1.00  0.00    -0.044 A 
ATOM      7  C   UNL     1       7.626  -0.393  -2.243  1.00  0.00     0.008 A 
ATOM      8  C   UNL     1       7.830  -1.280  -0.052  1.00  0.00     0.054 A 
ATOM      9  C   UNL     1       7.986  -1.623  -2.728  1.00  0.00     0.051 A 
ATOM     10  C   UNL     1       8.197  -2.529  -0.576  1.00  0.00     0.166 A 
ATOM     11  C   UNL     1       8.279  -2.713  -1.939  1.00  0.00     0.165 A 
ATOM     12  O   UNL     1       8.534  -3.756  -0.018  1.00  0.00    -0.454 OA
ATOM     13  O   UNL     1       8.661  -4.037  -2.192  1.00  0.00    -0.454 OA
ATOM     14  C   UNL     1       9.260  -4.488  -0.995  1.00  0.00     0.468 C 
ENDBRANCH   5   6
ENDBRANCH   1   5
TORSDOF 3
ENDMDL
MODEL 3
REMARK VINA RESULT:      -7.0      1.117      1.231
REMARK SMILES CC(=O)CCc1ccc2c(c1)OCO2
REMARK SMILES IDX 4 1 2 2 1 3 3 4 5 5 6 6 7 7 11 8 8 9 10 10 9 11 12 12 14 13
REMARK SMILES IDX 13 14
REMARK H PARENT
REMARK Flexibility Score: inf
ROOT
ATOM      1  C   UNL     1       6.237   1.185   0.900  1.00  0.00     0.080 C 
ENDROOT
BRANCH   1   2
ATOM      2  C   UNL     1       5.559   0.369   1.924  1.00  0.00     0.130 C 
ATOM      3  C   UNL     1       6.333  -0.849   2.401  1.00  0.00     0.087 C 
ATOM      4  O   UNL     1       4.483   0.552   2.417  1.00  0.00    -0.300 OA
ENDBRANCH   1   2
BRANCH   1   5
ATOM      5  C   UNL     1       5.892   0.884  -0.505  1.00  0.00     0.043 C 
BRANCH   5   6
ATOM      6  C   UNL     1       6.865   0.111  -1.283  1.00  0.00    -0.044 A 
ATOM      7  C   UNL     1       7.794   0.720  -2.128  1.00  0.00     0.008 A 
ATOM      8  C   UNL     1       6.901  -1.260  -1.173  1.00  0.00     0.054 A 
ATOM      9  C   UNL     1       8.693  -0.064  -2.805  1.00  0.00     0.051 A 
ATOM     10  C   UNL     1       7.833  -2.037  -1.877  1.00  0.00     0.166 A 
ATOM     11  C   UNL     1       8.749  -1.437  -2.712  1.00  0.00     0.165 A 
ATOM     12  O   UNL     1       8.097  -3.399  -1.960  1.00  0.00    -0.454 OA
ATOM     13  O   UNL     1       9.553  -2.429  -3.287  1.00  0.00    -0.454 OA
ATOM     14  C   UNL     1       9.426  -3.551  -2.438  1.00  0.00     0.468 C 
ENDBRANCH   5   6
ENDBRANCH   1   5
TORSDOF 3
ENDMDL
MODEL 4
REMARK VINA RESULT:      -6.9      1.868      2.396
REMARK SMILES CC(=O)CCc1ccc2c(c1)OCO2
REMARK SMILES IDX 4 1 2 2 1 3 3 4 5 5 6 6 7 7 11 8 8 9 10 10 9 11 12 12 14 13
REMARK SMILES IDX 13 14
REMARK H PARENT
REMARK Flexibility Score: inf
ROOT
ATOM      1  C   UNL     1       6.699   0.886   1.512  1.00  0.00     0.080 C 
ENDROOT
BRANCH   1   2
ATOM      2  C   UNL     1       5.254   1.175   1.497  1.00  0.00     0.130 C 
ATOM      3  C   UNL     1       4.794   2.137   0.415  1.00  0.00     0.087 C 
ATOM      4  O   UNL     1       4.410   0.742   2.230  1.00  0.00    -0.300 OA
ENDBRANCH   1   2
BRANCH   1   5
ATOM      5  C   UNL     1       7.397   0.991   0.213  1.00  0.00     0.043 C 
BRANCH   5   6
ATOM      6  C   UNL     1       7.656  -0.257  -0.511  1.00  0.00    -0.044 A 
ATOM      7  C   UNL     1       7.648  -0.324  -1.905  1.00  0.00     0.008 A 
ATOM      8  C   UNL     1       7.946  -1.409   0.184  1.00  0.00     0.054 A 
ATOM      9  C   UNL     1       7.926  -1.519  -2.516  1.00  0.00     0.051 A 
ATOM     10  C   UNL     1       8.227  -2.619  -0.468  1.00  0.00     0.166 A 
ATOM     11  C   UNL     1       8.219  -2.685  -1.844  1.00  0.00     0.165 A 
ATOM     12  O   UNL     1       8.544  -3.902  -0.040  1.00  0.00    -0.454 OA
ATOM     13  O   UNL     1       8.528  -3.994  -2.234  1.00  0.00    -0.454 OA
ATOM     14  C   UNL     1       9.178  -4.571  -1.121  1.00  0.00     0.468 C 
ENDBRANCH   5   6
ENDBRANCH   1   5
TORSDOF 3
ENDMDL
MODEL 5
REMARK VINA RESULT:      -6.8      1.098      1.599
REMARK SMILES CC(=O)CCc1ccc2c(c1)OCO2
REMARK SMILES IDX 4 1 2 2 1 3 3 4 5 5 6 6 7 7 11 8 8 9 10 10 9 11 12 12 14 13
REMARK SMILES IDX 13 14
REMARK H PARENT
REMARK Flexibility Score: inf
ROOT
ATOM      1  C   UNL     1       5.335  -0.022   1.989  1.00  0.00     0.080 C 
ENDROOT
BRANCH   1   2
ATOM      2  C   UNL     1       4.388   1.101   1.869  1.00  0.00     0.130 C 
ATOM      3  C   UNL     1       4.733   2.132   0.807  1.00  0.00     0.087 C 
ATOM      4  O   UNL     1       3.390   1.293   2.504  1.00  0.00    -0.300 OA
ENDBRANCH   1   2
BRANCH   1   5
ATOM      5  C   UNL     1       6.760   0.300   1.762  1.00  0.00     0.043 C 
BRANCH   5   6
ATOM      6  C   UNL     1       7.312  -0.000   0.438  1.00  0.00    -0.044 A 
ATOM      7  C   UNL     1       7.870   0.987  -0.377  1.00  0.00     0.008 A 
ATOM      8  C   UNL     1       7.317  -1.294  -0.029  1.00  0.00     0.054 A 
ATOM      9  C   UNL     1       8.393   0.630  -1.592  1.00  0.00     0.051 A 
ATOM     10  C   UNL     1       7.859  -1.631  -1.278  1.00  0.00     0.166 A 
ATOM     11  C   UNL     1       8.410  -0.657  -2.082  1.00  0.00     0.165 A 
ATOM     12  O   UNL     1       7.999  -2.817  -1.989  1.00  0.00    -0.454 OA
ATOM     13  O   UNL     1       8.874  -1.256  -3.261  1.00  0.00    -0.454 OA
ATOM     14  C   UNL     1       9.028  -2.625  -2.948  1.00  0.00     0.468 C 
ENDBRANCH   5   6
ENDBRANCH   1   5
TORSDOF 3
ENDMDL
