@<TRIPOS>MOLECULE
/home/cewinharhar/GITHUB/reincatalyze/data/processed/docking_pred/2023-May-31-1727_sub9_nm5_bs15_s42_ex16_mel10_mts10000_k50_ec075_g099_lra3e-4_lrc3e-3/ed1ad9b8abeda1ee150003d6dc323b90052a6efb_ligand_9.pdbqt
 14 15 0 0 0
SMALL
GASTEIGER

@<TRIPOS>ATOM
      1  C          5.5570    0.0560    2.1360 C.3     1  UNL1        0.0800
      2  C          4.5550    1.1050    1.8720 C.2     1  UNL1        0.1300
      3  C          4.9010    2.0680    0.7490 C.3     1  UNL1        0.0870
      4  O          3.5120    1.2840    2.4340 O.2     1  UNL1       -0.3000
      5  C          6.8780    0.2430    1.5000 C.3     1  UNL1        0.0430
      6  C          7.2350   -0.6750    0.4150 C.2     1  UNL1       -0.0440
      7  C          7.0490   -0.3460   -0.9290 C.2     1  UNL1        0.0080
      8  C          7.8000   -1.8950    0.7030 C.2     1  UNL1        0.0540
      9  C          7.4320   -1.2420   -1.8930 C.2     1  UNL1        0.0510
     10  C          8.1830   -2.7940   -0.3040 C.2     1  UNL1        0.1660
     11  C          7.9990   -2.4700   -1.6300 C.2     1  UNL1        0.1650
     12  O          8.7600   -4.0580   -0.3110 O.2     1  UNL1       -0.4540
     13  O          8.4610   -3.5290   -2.4210 O.2     1  UNL1       -0.4540
     14  C          9.3410   -4.2580   -1.5910 C.3     1  UNL1        0.4680
@<TRIPOS>BOND
     1    13    11    1
     2    13    14    1
     3     9    11    2
     4     9     7    1
     5    11    10    1
     6    14    12    1
     7     7     6    2
     8    12    10    1
     9    10     8    2
    10     6     8    1
    11     6     5    1
    12     3     2    1
    13     5     1    1
    14     2     1    1
    15     2     4    2
