@<TRIPOS>MOLECULE
/home/cewinharhar/GITHUB/reincatalyze/data/processed/docking_pred/2023-May-31-1727_sub9_nm5_bs15_s42_ex16_mel10_mts10000_k50_ec075_g099_lra3e-4_lrc3e-3/ed1ad9b8abeda1ee150003d6dc323b90052a6efb_ligand_9.pdbqt
 14 15 0 0 0
SMALL
GASTEIGER

@<TRIPOS>ATOM
      1  C          5.7360    1.3060   -0.3330 C.3     1  UNL1        0.0800
      2  C          5.1040    1.3290    0.9990 C.2     1  UNL1        0.1300
      3  C          5.4660    0.1690    1.9100 C.3     1  UNL1        0.0870
      4  O          4.3470    2.1460    1.4400 O.2     1  UNL1       -0.3000
      5  C          7.1810    0.9980   -0.3620 C.3     1  UNL1        0.0430
      6  C          7.5800   -0.2930   -0.9290 C.2     1  UNL1       -0.0440
      7  C          7.7650   -0.4790   -2.3000 C.2     1  UNL1        0.0080
      8  C          7.8130   -1.3660   -0.1010 C.2     1  UNL1        0.0540
      9  C          8.1660   -1.7070   -2.7580 C.2     1  UNL1        0.0510
     10  C          8.2220   -2.6130   -0.5970 C.2     1  UNL1        0.1660
     11  C          8.4040   -2.7960   -1.9500 C.2     1  UNL1        0.1650
     12  O          8.5230   -3.8390   -0.0160 O.2     1  UNL1       -0.4540
     13  O          8.8100   -4.1180   -2.1750 O.2     1  UNL1       -0.4540
     14  C          9.3220   -4.5670   -0.9370 C.3     1  UNL1        0.4680
@<TRIPOS>BOND
     1     9     7    1
     2     9    11    2
     3     7     6    2
     4    13    11    1
     5    13    14    1
     6    11    10    1
     7    14    12    1
     8     6     5    1
     9     6     8    1
    10    10     8    2
    11    10    12    1
    12     5     1    1
    13     1     2    1
    14     2     4    2
    15     2     3    1
