@<TRIPOS>MOLECULE
/home/cewinharhar/GITHUB/reincatalyze/data/processed/docking_pred/2023-May-31-1727_sub9_nm5_bs15_s42_ex16_mel10_mts10000_k50_ec075_g099_lra3e-4_lrc3e-3/ed9d343121b66b90fb32b78305bbba752ee50376_ligand_9.pdbqt
 14 15 0 0 0
SMALL
GASTEIGER

@<TRIPOS>ATOM
      1  C          5.7930    1.5230    0.8750 C.3     1  UNL1        0.0800
      2  C          5.2750    0.5790    1.8820 C.2     1  UNL1        0.1300
      3  C          6.2010   -0.5750    2.2270 C.3     1  UNL1        0.0870
      4  O          4.2230    0.6170    2.4530 O.2     1  UNL1       -0.3000
      5  C          5.8090    1.0400   -0.5220 C.3     1  UNL1        0.0430
      6  C          7.0220    0.3570   -0.9810 C.2     1  UNL1       -0.0440
      7  C          8.2900    0.9250   -0.8510 C.2     1  UNL1        0.0080
      8  C          6.9370   -0.8980   -1.5380 C.2     1  UNL1        0.0540
      9  C          9.3840    0.2180   -1.2780 C.2     1  UNL1        0.0510
     10  C          8.0740   -1.6000   -1.9660 C.2     1  UNL1        0.1660
     11  C          9.3250   -1.0390   -1.8380 C.2     1  UNL1        0.1650
     12  O          8.2860   -2.8440   -2.5470 O.2     1  UNL1       -0.4540
     13  O         10.2750   -1.9400   -2.3370 O.2     1  UNL1       -0.4540
     14  C          9.6410   -3.2020   -2.3160 C.3     1  UNL1        0.4680
@<TRIPOS>BOND
     1    12    14    1
     2    12    10    1
     3    13    14    1
     4    13    11    1
     5    10    11    2
     6    10     8    1
     7    11     9    1
     8     8     6    2
     9     9     7    2
    10     6     7    1
    11     6     5    1
    12     5     1    1
    13     1     2    1
    14     2     3    1
    15     2     4    2
