@<TRIPOS>MOLECULE
/home/cewinharhar/GITHUB/reincatalyze/data/processed/docking_pred/2023-May-31-1727_sub9_nm5_bs15_s42_ex16_mel10_mts10000_k50_ec075_g099_lra3e-4_lrc3e-3/ed9d343121b66b90fb32b78305bbba752ee50376_ligand_9.pdbqt
 14 15 0 0 0
SMALL
GASTEIGER

@<TRIPOS>ATOM
      1  C          6.5490    0.1940    1.8220 C.3     1  UNL1        0.0800
      2  C          5.2470    0.8730    1.6990 C.2     1  UNL1        0.1300
      3  C          5.1240    1.8340    0.5280 C.3     1  UNL1        0.0870
      4  O          4.2860    0.7560    2.4050 O.2     1  UNL1       -0.3000
      5  C          6.5740   -1.2380    1.4560 C.3     1  UNL1        0.0430
      6  C          7.2770   -1.6030    0.2240 C.2     1  UNL1       -0.0440
      7  C          6.9420   -1.0520   -1.0150 C.2     1  UNL1        0.0080
      8  C          8.3250   -2.4930    0.2660 C.2     1  UNL1        0.0540
      9  C          7.6610   -1.4190   -2.1230 C.2     1  UNL1        0.0510
     10  C          9.0440   -2.8500   -0.8850 C.2     1  UNL1        0.1660
     11  C          8.7120   -2.3080   -2.1070 C.2     1  UNL1        0.1650
     12  O         10.1150   -3.6980   -1.1370 O.2     1  UNL1       -0.4540
     13  O          9.5780   -2.8260   -3.0790 O.2     1  UNL1       -0.4540
     14  C         10.7030   -3.2950   -2.3660 C.3     1  UNL1        0.4680
@<TRIPOS>BOND
     1    13    14    1
     2    13    11    1
     3    14    12    1
     4     9    11    2
     5     9     7    1
     6    11    10    1
     7    12    10    1
     8     7     6    2
     9    10     8    2
    10     6     8    1
    11     6     5    1
    12     3     2    1
    13     5     1    1
    14     2     1    1
    15     2     4    2
