@<TRIPOS>MOLECULE
/home/cewinharhar/GITHUB/reincatalyze/data/processed/docking_pred/2023-May-31-1727_sub9_nm5_bs15_s42_ex16_mel10_mts10000_k50_ec075_g099_lra3e-4_lrc3e-3/ed9d343121b66b90fb32b78305bbba752ee50376_ligand_9.pdbqt
 14 15 0 0 0
SMALL
GASTEIGER

@<TRIPOS>ATOM
      1  C          5.7470    1.0910   -0.2810 C.3     1  UNL1        0.0800
      2  C          5.1950    1.1200    1.0860 C.2     1  UNL1        0.1300
      3  C          5.5950   -0.0460    1.9740 C.3     1  UNL1        0.0870
      4  O          4.4760    1.9470    1.5710 O.2     1  UNL1       -0.3000
      5  C          7.1700    1.4680   -0.4160 C.3     1  UNL1        0.0430
      6  C          8.1060    0.4150   -0.8220 C.2     1  UNL1       -0.0440
      7  C          9.4900    0.5710   -0.7220 C.2     1  UNL1        0.0080
      8  C          7.6300   -0.7850   -1.2940 C.2     1  UNL1        0.0540
      9  C         10.3060   -0.4650   -1.0940 C.2     1  UNL1        0.0510
     10  C          8.4890   -1.8300   -1.6680 C.2     1  UNL1        0.1660
     11  C          9.8540   -1.6760   -1.5700 C.2     1  UNL1        0.1650
     12  O          8.2980   -3.1140   -2.1640 O.2     1  UNL1       -0.4540
     13  O         10.4720   -2.8560   -2.0030 O.2     1  UNL1       -0.4540
     14  C          9.4800   -3.8560   -1.9020 C.3     1  UNL1        0.4680
@<TRIPOS>BOND
     1    12    14    1
     2    12    10    1
     3    13    14    1
     4    13    11    1
     5    10    11    2
     6    10     8    1
     7    11     9    1
     8     8     6    2
     9     9     7    2
    10     6     7    1
    11     6     5    1
    12     5     1    1
    13     1     2    1
    14     2     4    2
    15     2     3    1
