MODEL 1
REMARK VINA RESULT:      -8.2      0.000      0.000
REMARK SMILES CC(=O)CCc1ccc2c(c1)OCO2
REMARK SMILES IDX 4 1 2 2 1 3 3 4 5 5 6 6 7 7 11 8 8 9 10 10 9 11 12 12 14 13
REMARK SMILES IDX 13 14
REMARK H PARENT
REMARK Flexibility Score: inf
ROOT
ATOM      1  C   UNL     1       5.793   1.523   0.875  1.00  0.00     0.080 C 
ENDROOT
BRANCH   1   2
ATOM      2  C   UNL     1       5.275   0.579   1.882  1.00  0.00     0.130 C 
ATOM      3  C   UNL     1       6.201  -0.575   2.227  1.00  0.00     0.087 C 
ATOM      4  O   UNL     1       4.223   0.617   2.453  1.00  0.00    -0.300 OA
ENDBRANCH   1   2
BRANCH   1   5
ATOM      5  C   UNL     1       5.809   1.040  -0.522  1.00  0.00     0.043 C 
BRANCH   5   6
ATOM      6  C   UNL     1       7.022   0.357  -0.981  1.00  0.00    -0.044 A 
ATOM      7  C   UNL     1       8.290   0.925  -0.851  1.00  0.00     0.008 A 
ATOM      8  C   UNL     1       6.937  -0.898  -1.538  1.00  0.00     0.054 A 
ATOM      9  C   UNL     1       9.384   0.218  -1.278  1.00  0.00     0.051 A 
ATOM     10  C   UNL     1       8.074  -1.600  -1.966  1.00  0.00     0.166 A 
ATOM     11  C   UNL     1       9.325  -1.039  -1.838  1.00  0.00     0.165 A 
ATOM     12  O   UNL     1       8.286  -2.844  -2.547  1.00  0.00    -0.454 OA
ATOM     13  O   UNL     1      10.275  -1.940  -2.337  1.00  0.00    -0.454 OA
ATOM     14  C   UNL     1       9.641  -3.202  -2.316  1.00  0.00     0.468 C 
ENDBRANCH   5   6
ENDBRANCH   1   5
TORSDOF 3
ENDMDL
MODEL 2
REMARK VINA RESULT:      -7.5      1.221      1.688
REMARK SMILES CC(=O)CCc1ccc2c(c1)OCO2
REMARK SMILES IDX 4 1 2 2 1 3 3 4 5 5 6 6 7 7 11 8 8 9 10 10 9 11 12 12 14 13
REMARK SMILES IDX 13 14
REMARK H PARENT
REMARK Flexibility Score: inf
ROOT
ATOM      1  C   UNL     1       5.906   1.216  -0.278  1.00  0.00     0.080 C 
ENDROOT
BRANCH   1   2
ATOM      2  C   UNL     1       5.254   1.185   1.043  1.00  0.00     0.130 C 
ATOM      3  C   UNL     1       5.594  -0.017   1.908  1.00  0.00     0.087 C 
ATOM      4  O   UNL     1       4.497   1.989   1.509  1.00  0.00    -0.300 OA
ENDBRANCH   1   2
BRANCH   1   5
ATOM      5  C   UNL     1       7.383   1.144  -0.278  1.00  0.00     0.043 C 
BRANCH   5   6
ATOM      6  C   UNL     1       8.002   0.074  -1.066  1.00  0.00    -0.044 A 
ATOM      7  C   UNL     1       7.753  -0.084  -2.430  1.00  0.00     0.008 A 
ATOM      8  C   UNL     1       8.882  -0.798  -0.470  1.00  0.00     0.054 A 
ATOM      9  C   UNL     1       8.387  -1.091  -3.111  1.00  0.00     0.051 A 
ATOM     10  C   UNL     1       9.518  -1.820  -1.191  1.00  0.00     0.166 A 
ATOM     11  C   UNL     1       9.272  -1.977  -2.537  1.00  0.00     0.165 A 
ATOM     12  O   UNL     1      10.427  -2.819  -0.864  1.00  0.00    -0.454 OA
ATOM     13  O   UNL     1      10.027  -3.059  -3.010  1.00  0.00    -0.454 OA
ATOM     14  C   UNL     1      11.063  -3.232  -2.065  1.00  0.00     0.468 C 
ENDBRANCH   5   6
ENDBRANCH   1   5
TORSDOF 3
ENDMDL
MODEL 3
REMARK VINA RESULT:      -7.4      1.081      1.105
REMARK SMILES CC(=O)CCc1ccc2c(c1)OCO2
REMARK SMILES IDX 4 1 2 2 1 3 3 4 5 5 6 6 7 7 11 8 8 9 10 10 9 11 12 12 14 13
REMARK SMILES IDX 13 14
REMARK H PARENT
REMARK Flexibility Score: inf
ROOT
ATOM      1  C   UNL     1       6.378   1.047   0.800  1.00  0.00     0.080 C 
ENDROOT
BRANCH   1   2
ATOM      2  C   UNL     1       5.640   0.383   1.890  1.00  0.00     0.130 C 
ATOM      3  C   UNL     1       6.308  -0.853   2.468  1.00  0.00     0.087 C 
ATOM      4  O   UNL     1       4.588   0.701   2.367  1.00  0.00    -0.300 OA
ENDBRANCH   1   2
BRANCH   1   5
ATOM      5  C   UNL     1       6.019   0.638  -0.574  1.00  0.00     0.043 C 
BRANCH   5   6
ATOM      6  C   UNL     1       6.985  -0.190  -1.301  1.00  0.00    -0.044 A 
ATOM      7  C   UNL     1       7.627   0.258  -2.456  1.00  0.00     0.008 A 
ATOM      8  C   UNL     1       7.306  -1.443  -0.834  1.00  0.00     0.054 A 
ATOM      9  C   UNL     1       8.540  -0.560  -3.071  1.00  0.00     0.051 A 
ATOM     10  C   UNL     1       8.246  -2.259  -1.483  1.00  0.00     0.166 A 
ATOM     11  C   UNL     1       8.879  -1.818  -2.624  1.00  0.00     0.165 A 
ATOM     12  O   UNL     1       8.755  -3.531  -1.249  1.00  0.00    -0.454 OA
ATOM     13  O   UNL     1       9.758  -2.815  -3.065  1.00  0.00    -0.454 OA
ATOM     14  C   UNL     1       9.992  -3.632  -1.938  1.00  0.00     0.468 C 
ENDBRANCH   5   6
ENDBRANCH   1   5
TORSDOF 3
ENDMDL
MODEL 4
REMARK VINA RESULT:      -7.4      1.350      2.119
REMARK SMILES CC(=O)CCc1ccc2c(c1)OCO2
REMARK SMILES IDX 4 1 2 2 1 3 3 4 5 5 6 6 7 7 11 8 8 9 10 10 9 11 12 12 14 13
REMARK SMILES IDX 13 14
REMARK H PARENT
REMARK Flexibility Score: inf
ROOT
ATOM      1  C   UNL     1       6.549   0.194   1.822  1.00  0.00     0.080 C 
ENDROOT
BRANCH   1   2
ATOM      2  C   UNL     1       5.247   0.873   1.699  1.00  0.00     0.130 C 
ATOM      3  C   UNL     1       5.124   1.834   0.528  1.00  0.00     0.087 C 
ATOM      4  O   UNL     1       4.286   0.756   2.405  1.00  0.00    -0.300 OA
ENDBRANCH   1   2
BRANCH   1   5
ATOM      5  C   UNL     1       6.574  -1.238   1.456  1.00  0.00     0.043 C 
BRANCH   5   6
ATOM      6  C   UNL     1       7.277  -1.603   0.224  1.00  0.00    -0.044 A 
ATOM      7  C   UNL     1       6.942  -1.052  -1.015  1.00  0.00     0.008 A 
ATOM      8  C   UNL     1       8.325  -2.493   0.266  1.00  0.00     0.054 A 
ATOM      9  C   UNL     1       7.661  -1.419  -2.123  1.00  0.00     0.051 A 
ATOM     10  C   UNL     1       9.044  -2.850  -0.885  1.00  0.00     0.166 A 
ATOM     11  C   UNL     1       8.712  -2.308  -2.107  1.00  0.00     0.165 A 
ATOM     12  O   UNL     1      10.115  -3.698  -1.137  1.00  0.00    -0.454 OA
ATOM     13  O   UNL     1       9.578  -2.826  -3.079  1.00  0.00    -0.454 OA
ATOM     14  C   UNL     1      10.703  -3.295  -2.366  1.00  0.00     0.468 C 
ENDBRANCH   5   6
ENDBRANCH   1   5
TORSDOF 3
ENDMDL
MODEL 5
REMARK VINA RESULT:      -7.2      0.881      1.049
REMARK SMILES CC(=O)CCc1ccc2c(c1)OCO2
REMARK SMILES IDX 4 1 2 2 1 3 3 4 5 5 6 6 7 7 11 8 8 9 10 10 9 11 12 12 14 13
REMARK SMILES IDX 13 14
REMARK H PARENT
REMARK Flexibility Score: inf
ROOT
ATOM      1  C   UNL     1       5.747   1.091  -0.281  1.00  0.00     0.080 C 
ENDROOT
BRANCH   1   2
ATOM      2  C   UNL     1       5.195   1.120   1.086  1.00  0.00     0.130 C 
ATOM      3  C   UNL     1       5.595  -0.046   1.974  1.00  0.00     0.087 C 
ATOM      4  O   UNL     1       4.476   1.947   1.571  1.00  0.00    -0.300 OA
ENDBRANCH   1   2
BRANCH   1   5
ATOM      5  C   UNL     1       7.170   1.468  -0.416  1.00  0.00     0.043 C 
BRANCH   5   6
ATOM      6  C   UNL     1       8.106   0.415  -0.822  1.00  0.00    -0.044 A 
ATOM      7  C   UNL     1       9.490   0.571  -0.722  1.00  0.00     0.008 A 
ATOM      8  C   UNL     1       7.630  -0.785  -1.294  1.00  0.00     0.054 A 
ATOM      9  C   UNL     1      10.306  -0.465  -1.094  1.00  0.00     0.051 A 
ATOM     10  C   UNL     1       8.489  -1.830  -1.668  1.00  0.00     0.166 A 
ATOM     11  C   UNL     1       9.854  -1.676  -1.570  1.00  0.00     0.165 A 
ATOM     12  O   UNL     1       8.298  -3.114  -2.164  1.00  0.00    -0.454 OA
ATOM     13  O   UNL     1      10.472  -2.856  -2.003  1.00  0.00    -0.454 OA
ATOM     14  C   UNL     1       9.480  -3.856  -1.902  1.00  0.00     0.468 C 
ENDBRANCH   5   6
ENDBRANCH   1   5
TORSDOF 3
ENDMDL
