@<TRIPOS>MOLECULE
/home/cewinharhar/GITHUB/reincatalyze/data/processed/docking_pred/2023-May-31-1727_sub9_nm5_bs15_s42_ex16_mel10_mts10000_k50_ec075_g099_lra3e-4_lrc3e-3/ed9d343121b66b90fb32b78305bbba752ee50376_ligand_9.pdbqt
 14 15 0 0 0
SMALL
GASTEIGER

@<TRIPOS>ATOM
      1  C          6.3780    1.0470    0.8000 C.3     1  UNL1        0.0800
      2  C          5.6400    0.3830    1.8900 C.2     1  UNL1        0.1300
      3  C          6.3080   -0.8530    2.4680 C.3     1  UNL1        0.0870
      4  O          4.5880    0.7010    2.3670 O.2     1  UNL1       -0.3000
      5  C          6.0190    0.6380   -0.5740 C.3     1  UNL1        0.0430
      6  C          6.9850   -0.1900   -1.3010 C.2     1  UNL1       -0.0440
      7  C          7.6270    0.2580   -2.4560 C.2     1  UNL1        0.0080
      8  C          7.3060   -1.4430   -0.8340 C.2     1  UNL1        0.0540
      9  C          8.5400   -0.5600   -3.0710 C.2     1  UNL1        0.0510
     10  C          8.2460   -2.2590   -1.4830 C.2     1  UNL1        0.1660
     11  C          8.8790   -1.8180   -2.6240 C.2     1  UNL1        0.1650
     12  O          8.7550   -3.5310   -1.2490 O.2     1  UNL1       -0.4540
     13  O          9.7580   -2.8150   -3.0650 O.2     1  UNL1       -0.4540
     14  C          9.9920   -3.6320   -1.9380 C.3     1  UNL1        0.4680
@<TRIPOS>BOND
     1     9    11    2
     2     9     7    1
     3    13    11    1
     4    13    14    1
     5    11    10    1
     6     7     6    2
     7    14    12    1
     8    10    12    1
     9    10     8    2
    10     6     8    1
    11     6     5    1
    12     5     1    1
    13     1     2    1
    14     2     4    2
    15     2     3    1
