@<TRIPOS>MOLECULE
/home/cewinharhar/GITHUB/reincatalyze/data/processed/docking_pred/2023-May-31-1727_sub9_nm5_bs15_s42_ex16_mel10_mts10000_k50_ec075_g099_lra3e-4_lrc3e-3/eeadc03eb41629d2f630482e7f417ab6451359e8_ligand_9.pdbqt
 14 15 0 0 0
SMALL
GASTEIGER

@<TRIPOS>ATOM
      1  C          6.8030    1.0680    1.4070 C.3     1  UNL1        0.0800
      2  C          5.3380    1.1800    1.5350 C.2     1  UNL1        0.1300
      3  C          4.6740    2.1500    0.5720 C.3     1  UNL1        0.0870
      4  O          4.6210    0.6020    2.3000 O.2     1  UNL1       -0.3000
      5  C          7.3430    1.1310    0.0330 C.3     1  UNL1        0.0430
      6  C          7.6160   -0.1430   -0.6400 C.2     1  UNL1       -0.0440
      7  C          7.6120   -0.2660   -2.0300 C.2     1  UNL1        0.0080
      8  C          7.9150   -1.2620    0.1020 C.2     1  UNL1        0.0540
      9  C          7.9020   -1.4820   -2.5920 C.2     1  UNL1        0.0510
     10  C          8.2100   -2.4950   -0.5000 C.2     1  UNL1        0.1660
     11  C          8.2050   -2.6170   -1.8720 C.2     1  UNL1        0.1650
     12  O          8.5380   -3.7570   -0.0200 O.2     1  UNL1       -0.4540
     13  O          8.5280   -3.9380   -2.2080 O.2     1  UNL1       -0.4540
     14  C          9.1810   -4.4630   -1.0710 C.3     1  UNL1        0.4680
@<TRIPOS>BOND
     1     9     7    1
     2     9    11    2
     3    13    11    1
     4    13    14    1
     5     7     6    2
     6    11    10    1
     7    14    12    1
     8     6     5    1
     9     6     8    1
    10    10    12    1
    11    10     8    2
    12     5     1    1
    13     3     2    1
    14     1     2    1
    15     2     4    2
