MODEL 1
REMARK VINA RESULT:      -7.6      0.000      0.000
REMARK SMILES CC(=O)CCc1ccc2c(c1)OCO2
REMARK SMILES IDX 4 1 2 2 1 3 3 4 5 5 6 6 7 7 11 8 8 9 10 10 9 11 12 12 14 13
REMARK SMILES IDX 13 14
REMARK H PARENT
REMARK Flexibility Score: inf
ROOT
ATOM      1  C   UNL     1       5.545   1.899   1.212  1.00  0.00     0.080 C 
ENDROOT
BRANCH   1   2
ATOM      2  C   UNL     1       5.045   0.758   2.001  1.00  0.00     0.130 C 
ATOM      3  C   UNL     1       6.021  -0.393   2.170  1.00  0.00     0.087 C 
ATOM      4  O   UNL     1       3.971   0.637   2.517  1.00  0.00    -0.300 OA
ENDBRANCH   1   2
BRANCH   1   5
ATOM      5  C   UNL     1       5.527   1.733  -0.257  1.00  0.00     0.043 C 
BRANCH   5   6
ATOM      6  C   UNL     1       6.635   0.988  -0.861  1.00  0.00    -0.044 A 
ATOM      7  C   UNL     1       7.968   1.353  -0.670  1.00  0.00     0.008 A 
ATOM      8  C   UNL     1       6.379  -0.128  -1.624  1.00  0.00     0.054 A 
ATOM      9  C   UNL     1       8.956   0.594  -1.244  1.00  0.00     0.051 A 
ATOM     10  C   UNL     1       7.410  -0.887  -2.199  1.00  0.00     0.166 A 
ATOM     11  C   UNL     1       8.726  -0.526  -2.011  1.00  0.00     0.165 A 
ATOM     12  O   UNL     1       7.451  -2.027  -2.992  1.00  0.00    -0.454 OA
ATOM     13  O   UNL     1       9.544  -1.442  -2.685  1.00  0.00    -0.454 OA
ATOM     14  C   UNL     1       8.747  -2.594  -2.865  1.00  0.00     0.468 C 
ENDBRANCH   5   6
ENDBRANCH   1   5
TORSDOF 3
ENDMDL
MODEL 2
REMARK VINA RESULT:      -7.0      1.841      2.309
REMARK SMILES CC(=O)CCc1ccc2c(c1)OCO2
REMARK SMILES IDX 4 1 2 2 1 3 3 4 5 5 6 6 7 7 11 8 8 9 10 10 9 11 12 12 14 13
REMARK SMILES IDX 13 14
REMARK H PARENT
REMARK Flexibility Score: inf
ROOT
ATOM      1  C   UNL     1       5.733   1.315  -0.355  1.00  0.00     0.080 C 
ENDROOT
BRANCH   1   2
ATOM      2  C   UNL     1       5.114   1.342   0.982  1.00  0.00     0.130 C 
ATOM      3  C   UNL     1       5.523   0.212   1.911  1.00  0.00     0.087 C 
ATOM      4  O   UNL     1       4.335   2.143   1.416  1.00  0.00    -0.300 OA
ENDBRANCH   1   2
BRANCH   1   5
ATOM      5  C   UNL     1       7.179   1.012  -0.398  1.00  0.00     0.043 C 
BRANCH   5   6
ATOM      6  C   UNL     1       7.577  -0.281  -0.961  1.00  0.00    -0.044 A 
ATOM      7  C   UNL     1       7.756  -0.472  -2.332  1.00  0.00     0.008 A 
ATOM      8  C   UNL     1       7.814  -1.351  -0.129  1.00  0.00     0.054 A 
ATOM      9  C   UNL     1       8.156  -1.702  -2.787  1.00  0.00     0.051 A 
ATOM     10  C   UNL     1       8.222  -2.599  -0.622  1.00  0.00     0.166 A 
ATOM     11  C   UNL     1       8.399  -2.788  -1.975  1.00  0.00     0.165 A 
ATOM     12  O   UNL     1       8.526  -3.823  -0.037  1.00  0.00    -0.454 OA
ATOM     13  O   UNL     1       8.805  -4.110  -2.196  1.00  0.00    -0.454 OA
ATOM     14  C   UNL     1       9.322  -4.554  -0.959  1.00  0.00     0.468 C 
ENDBRANCH   5   6
ENDBRANCH   1   5
TORSDOF 3
ENDMDL
MODEL 3
REMARK VINA RESULT:      -7.0      1.141      1.255
REMARK SMILES CC(=O)CCc1ccc2c(c1)OCO2
REMARK SMILES IDX 4 1 2 2 1 3 3 4 5 5 6 6 7 7 11 8 8 9 10 10 9 11 12 12 14 13
REMARK SMILES IDX 13 14
REMARK H PARENT
REMARK Flexibility Score: inf
ROOT
ATOM      1  C   UNL     1       6.270   1.146   0.904  1.00  0.00     0.080 C 
ENDROOT
BRANCH   1   2
ATOM      2  C   UNL     1       5.567   0.349   1.926  1.00  0.00     0.130 C 
ATOM      3  C   UNL     1       6.320  -0.870   2.432  1.00  0.00     0.087 C 
ATOM      4  O   UNL     1       4.485   0.550   2.399  1.00  0.00    -0.300 OA
ENDBRANCH   1   2
BRANCH   1   5
ATOM      5  C   UNL     1       5.914   0.861  -0.502  1.00  0.00     0.043 C 
BRANCH   5   6
ATOM      6  C   UNL     1       6.873   0.083  -1.292  1.00  0.00    -0.044 A 
ATOM      7  C   UNL     1       7.758   0.684  -2.188  1.00  0.00     0.008 A 
ATOM      8  C   UNL     1       6.942  -1.282  -1.142  1.00  0.00     0.054 A 
ATOM      9  C   UNL     1       8.648  -0.101  -2.875  1.00  0.00     0.051 A 
ATOM     10  C   UNL     1       7.863  -2.063  -1.858  1.00  0.00     0.166 A 
ATOM     11  C   UNL     1       8.736  -1.470  -2.743  1.00  0.00     0.165 A 
ATOM     12  O   UNL     1       8.152  -3.421  -1.910  1.00  0.00    -0.454 OA
ATOM     13  O   UNL     1       9.538  -2.463  -3.318  1.00  0.00    -0.454 OA
ATOM     14  C   UNL     1       9.465  -3.561  -2.432  1.00  0.00     0.468 C 
ENDBRANCH   5   6
ENDBRANCH   1   5
TORSDOF 3
ENDMDL
MODEL 4
REMARK VINA RESULT:      -6.7      1.162      1.660
REMARK SMILES CC(=O)CCc1ccc2c(c1)OCO2
REMARK SMILES IDX 4 1 2 2 1 3 3 4 5 5 6 6 7 7 11 8 8 9 10 10 9 11 12 12 14 13
REMARK SMILES IDX 13 14
REMARK H PARENT
REMARK Flexibility Score: inf
ROOT
ATOM      1  C   UNL     1       5.370  -0.087   1.937  1.00  0.00     0.080 C 
ENDROOT
BRANCH   1   2
ATOM      2  C   UNL     1       4.442   1.055   1.862  1.00  0.00     0.130 C 
ATOM      3  C   UNL     1       4.778   2.098   0.809  1.00  0.00     0.087 C 
ATOM      4  O   UNL     1       3.464   1.253   2.526  1.00  0.00    -0.300 OA
ENDBRANCH   1   2
BRANCH   1   5
ATOM      5  C   UNL     1       6.798   0.218   1.705  1.00  0.00     0.043 C 
BRANCH   5   6
ATOM      6  C   UNL     1       7.347  -0.106   0.385  1.00  0.00    -0.044 A 
ATOM      7  C   UNL     1       7.788   0.879  -0.499  1.00  0.00     0.008 A 
ATOM      8  C   UNL     1       7.467  -1.419  -0.007  1.00  0.00     0.054 A 
ATOM      9  C   UNL     1       8.315   0.502  -1.707  1.00  0.00     0.051 A 
ATOM     10  C   UNL     1       8.012  -1.777  -1.249  1.00  0.00     0.166 A 
ATOM     11  C   UNL     1       8.446  -0.804  -2.123  1.00  0.00     0.165 A 
ATOM     12  O   UNL     1       8.251  -2.984  -1.895  1.00  0.00    -0.454 OA
ATOM     13  O   UNL     1       8.940  -1.425  -3.278  1.00  0.00    -0.454 OA
ATOM     14  C   UNL     1       9.234  -2.751  -2.892  1.00  0.00     0.468 C 
ENDBRANCH   5   6
ENDBRANCH   1   5
TORSDOF 3
ENDMDL
MODEL 5
REMARK VINA RESULT:      -6.7      1.921      2.485
REMARK SMILES CC(=O)CCc1ccc2c(c1)OCO2
REMARK SMILES IDX 4 1 2 2 1 3 3 4 5 5 6 6 7 7 11 8 8 9 10 10 9 11 12 12 14 13
REMARK SMILES IDX 13 14
REMARK H PARENT
REMARK Flexibility Score: inf
ROOT
ATOM      1  C   UNL     1       6.751   0.746   1.412  1.00  0.00     0.080 C 
ENDROOT
BRANCH   1   2
ATOM      2  C   UNL     1       5.335   1.143   1.519  1.00  0.00     0.130 C 
ATOM      3  C   UNL     1       4.862   2.150   0.484  1.00  0.00     0.087 C 
ATOM      4  O   UNL     1       4.524   0.767   2.317  1.00  0.00    -0.300 OA
ENDBRANCH   1   2
BRANCH   1   5
ATOM      5  C   UNL     1       7.352   0.835   0.065  1.00  0.00     0.043 C 
BRANCH   5   6
ATOM      6  C   UNL     1       7.654  -0.426  -0.619  1.00  0.00    -0.044 A 
ATOM      7  C   UNL     1       7.665  -0.534  -2.011  1.00  0.00     0.008 A 
ATOM      8  C   UNL     1       7.967  -1.548   0.112  1.00  0.00     0.054 A 
ATOM      9  C   UNL     1       7.982  -1.738  -2.584  1.00  0.00     0.051 A 
ATOM     10  C   UNL     1       8.289  -2.769  -0.501  1.00  0.00     0.166 A 
ATOM     11  C   UNL     1       8.299  -2.875  -1.874  1.00  0.00     0.165 A 
ATOM     12  O   UNL     1       8.636  -4.030  -0.032  1.00  0.00    -0.454 OA
ATOM     13  O   UNL     1       8.648  -4.186  -2.222  1.00  0.00    -0.454 OA
ATOM     14  C   UNL     1       9.301  -4.712  -1.085  1.00  0.00     0.468 C 
ENDBRANCH   5   6
ENDBRANCH   1   5
TORSDOF 3
ENDMDL
