@<TRIPOS>MOLECULE
/home/cewinharhar/GITHUB/reincatalyze/data/processed/docking_pred/2023-May-31-1727_sub9_nm5_bs15_s42_ex16_mel10_mts10000_k50_ec075_g099_lra3e-4_lrc3e-3/f338baa35ded8d3cb3d8a5b9e0cebf8a24c11f6d_ligand_9.pdbqt
 14 15 0 0 0
SMALL
GASTEIGER

@<TRIPOS>ATOM
      1  C          5.6380    1.8580    1.2660 C.3     1  UNL1        0.0800
      2  C          5.0660    0.7240    2.0140 C.2     1  UNL1        0.1300
      3  C          5.9850   -0.4740    2.1820 C.3     1  UNL1        0.0870
      4  O          3.9730    0.6390    2.4980 O.2     1  UNL1       -0.3000
      5  C          5.6200    1.7420   -0.2080 C.3     1  UNL1        0.0430
      6  C          6.7050    0.9820   -0.8340 C.2     1  UNL1       -0.0440
      7  C          8.0460    1.3450   -0.6930 C.2     1  UNL1        0.0080
      8  C          6.4210   -0.1470   -1.5670 C.2     1  UNL1        0.0540
      9  C          9.0110    0.5710   -1.2840 C.2     1  UNL1        0.0510
     10  C          7.4300   -0.9210   -2.1610 C.2     1  UNL1        0.1660
     11  C          8.7530   -0.5620   -2.0230 C.2     1  UNL1        0.1650
     12  O          7.4410   -2.0750   -2.9340 O.2     1  UNL1       -0.4540
     13  O          9.5450   -1.4930   -2.7060 O.2     1  UNL1       -0.4540
     14  C          8.7380   -2.6440   -2.8390 C.3     1  UNL1        0.4680
@<TRIPOS>BOND
     1    12    14    1
     2    12    10    1
     3    14    13    1
     4    13    11    1
     5    10    11    2
     6    10     8    1
     7    11     9    1
     8     8     6    2
     9     9     7    2
    10     6     7    1
    11     6     5    1
    12     5     1    1
    13     1     2    1
    14     2     3    1
    15     2     4    2
