@<TRIPOS>MOLECULE
/home/cewinharhar/GITHUB/reincatalyze/data/processed/docking_pred/2023-May-31-1727_sub9_nm5_bs15_s42_ex16_mel10_mts10000_k50_ec075_g099_lra3e-4_lrc3e-3/f3c5d297feb9947f67baa3310bcd1cfc63c32b25_ligand_9.pdbqt
 14 15 0 0 0
SMALL
GASTEIGER

@<TRIPOS>ATOM
      1  C          5.4770    1.8920    1.2120 C.3     1  UNL1        0.0800
      2  C          4.9490    0.7580    1.9920 C.2     1  UNL1        0.1300
      3  C          5.8640   -0.4510    2.0820 C.3     1  UNL1        0.0870
      4  O          3.8950    0.6810    2.5570 O.2     1  UNL1       -0.3000
      5  C          5.4700    1.7310   -0.2570 C.3     1  UNL1        0.0430
      6  C          6.5880    0.9960   -0.8560 C.2     1  UNL1       -0.0440
      7  C          7.9160    1.3830   -0.6710 C.2     1  UNL1        0.0080
      8  C          6.3480   -0.1320   -1.6060 C.2     1  UNL1        0.0540
      9  C          8.9140    0.6320   -1.2380 C.2     1  UNL1        0.0510
     10  C          7.3880   -0.8820   -2.1750 C.2     1  UNL1        0.1660
     11  C          8.6990   -0.4990   -1.9930 C.2     1  UNL1        0.1650
     12  O          7.4440   -2.0290   -2.9560 O.2     1  UNL1       -0.4540
     13  O          9.5300   -1.4100   -2.6590 O.2     1  UNL1       -0.4540
     14  C          8.7490   -2.5750   -2.8250 C.3     1  UNL1        0.4680
@<TRIPOS>BOND
     1    12    14    1
     2    12    10    1
     3    14    13    1
     4    13    11    1
     5    10    11    2
     6    10     8    1
     7    11     9    1
     8     8     6    2
     9     9     7    2
    10     6     7    1
    11     6     5    1
    12     5     1    1
    13     1     2    1
    14     2     3    1
    15     2     4    2
