@<TRIPOS>MOLECULE
/home/cewinharhar/GITHUB/reincatalyze/data/processed/docking_pred/2023-May-31-1727_sub9_nm5_bs15_s42_ex16_mel10_mts10000_k50_ec075_g099_lra3e-4_lrc3e-3/f43d8cd6194682d8f3e5600fbc578d0750565092_ligand_9.pdbqt
 14 15 0 0 0
SMALL
GASTEIGER

@<TRIPOS>ATOM
      1  C          6.5890    0.0620    1.8990 C.3     1  UNL1        0.0800
      2  C          5.2950    0.7550    1.7680 C.2     1  UNL1        0.1300
      3  C          5.1940    1.7330    0.6100 C.3     1  UNL1        0.0870
      4  O          4.3240    0.6370    2.4610 O.2     1  UNL1       -0.3000
      5  C          6.6110   -1.3590    1.4950 C.3     1  UNL1        0.0430
      6  C          7.3160   -1.6920    0.2530 C.2     1  UNL1       -0.0440
      7  C          6.9720   -1.1210   -0.9730 C.2     1  UNL1        0.0080
      8  C          8.3720   -2.5730    0.2760 C.2     1  UNL1        0.0540
      9  C          7.6920   -1.4580   -2.0900 C.2     1  UNL1        0.0510
     10  C          9.0920   -2.9000   -0.8830 C.2     1  UNL1        0.1660
     11  C          8.7530   -2.3370   -2.0930 C.2     1  UNL1        0.1650
     12  O         10.1710   -3.7320   -1.1540 O.2     1  UNL1       -0.4540
     13  O          9.6210   -2.8270   -3.0770 O.2     1  UNL1       -0.4540
     14  C         10.7520   -3.2990   -2.3750 C.3     1  UNL1        0.4680
@<TRIPOS>BOND
     1    13    14    1
     2    13    11    1
     3    14    12    1
     4    11     9    2
     5    11    10    1
     6     9     7    1
     7    12    10    1
     8     7     6    2
     9    10     8    2
    10     6     8    1
    11     6     5    1
    12     3     2    1
    13     5     1    1
    14     2     1    1
    15     2     4    2
