MODEL 1
REMARK VINA RESULT:      -8.3      0.000      0.000
REMARK SMILES CC(=O)CCc1ccc2c(c1)OCO2
REMARK SMILES IDX 4 1 2 2 1 3 3 4 5 5 6 6 7 7 11 8 8 9 10 10 9 11 12 12 14 13
REMARK SMILES IDX 13 14
REMARK H PARENT
REMARK Flexibility Score: inf
ROOT
ATOM      1  C   UNL     1       5.769   1.544   0.871  1.00  0.00     0.080 C 
ENDROOT
BRANCH   1   2
ATOM      2  C   UNL     1       5.242   0.612   1.884  1.00  0.00     0.130 C 
ATOM      3  C   UNL     1       6.164  -0.539   2.250  1.00  0.00     0.087 C 
ATOM      4  O   UNL     1       4.184   0.656   2.445  1.00  0.00    -0.300 OA
ENDBRANCH   1   2
BRANCH   1   5
ATOM      5  C   UNL     1       5.786   1.051  -0.522  1.00  0.00     0.043 C 
BRANCH   5   6
ATOM      6  C   UNL     1       7.002   0.373  -0.978  1.00  0.00    -0.044 A 
ATOM      7  C   UNL     1       8.267   0.951  -0.856  1.00  0.00     0.008 A 
ATOM      8  C   UNL     1       6.925  -0.888  -1.522  1.00  0.00     0.054 A 
ATOM      9  C   UNL     1       9.365   0.248  -1.280  1.00  0.00     0.051 A 
ATOM     10  C   UNL     1       8.066  -1.586  -1.947  1.00  0.00     0.166 A 
ATOM     11  C   UNL     1       9.314  -1.014  -1.828  1.00  0.00     0.165 A 
ATOM     12  O   UNL     1       8.286  -2.834  -2.517  1.00  0.00    -0.454 OA
ATOM     13  O   UNL     1      10.269  -1.912  -2.321  1.00  0.00    -0.454 OA
ATOM     14  C   UNL     1       9.644  -3.179  -2.286  1.00  0.00     0.468 C 
ENDBRANCH   5   6
ENDBRANCH   1   5
TORSDOF 3
ENDMDL
MODEL 2
REMARK VINA RESULT:      -7.6      1.226      1.674
REMARK SMILES CC(=O)CCc1ccc2c(c1)OCO2
REMARK SMILES IDX 4 1 2 2 1 3 3 4 5 5 6 6 7 7 11 8 8 9 10 10 9 11 12 12 14 13
REMARK SMILES IDX 13 14
REMARK H PARENT
REMARK Flexibility Score: inf
ROOT
ATOM      1  C   UNL     1       5.915   1.250  -0.269  1.00  0.00     0.080 C 
ENDROOT
BRANCH   1   2
ATOM      2  C   UNL     1       5.248   1.188   1.045  1.00  0.00     0.130 C 
ATOM      3  C   UNL     1       5.613  -0.011   1.903  1.00  0.00     0.087 C 
ATOM      4  O   UNL     1       4.463   1.965   1.508  1.00  0.00    -0.300 OA
ENDBRANCH   1   2
BRANCH   1   5
ATOM      5  C   UNL     1       7.389   1.147  -0.256  1.00  0.00     0.043 C 
BRANCH   5   6
ATOM      6  C   UNL     1       7.993   0.076  -1.053  1.00  0.00    -0.044 A 
ATOM      7  C   UNL     1       7.743  -0.067  -2.419  1.00  0.00     0.008 A 
ATOM      8  C   UNL     1       8.861  -0.814  -0.465  1.00  0.00     0.054 A 
ATOM      9  C   UNL     1       8.364  -1.076  -3.109  1.00  0.00     0.051 A 
ATOM     10  C   UNL     1       9.484  -1.838  -1.195  1.00  0.00     0.166 A 
ATOM     11  C   UNL     1       9.236  -1.979  -2.543  1.00  0.00     0.165 A 
ATOM     12  O   UNL     1      10.378  -2.852  -0.877  1.00  0.00    -0.454 OA
ATOM     13  O   UNL     1       9.975  -3.067  -3.025  1.00  0.00    -0.454 OA
ATOM     14  C   UNL     1      11.009  -3.263  -2.082  1.00  0.00     0.468 C 
ENDBRANCH   5   6
ENDBRANCH   1   5
TORSDOF 3
ENDMDL
MODEL 3
REMARK VINA RESULT:      -7.5      1.088      1.119
REMARK SMILES CC(=O)CCc1ccc2c(c1)OCO2
REMARK SMILES IDX 4 1 2 2 1 3 3 4 5 5 6 6 7 7 11 8 8 9 10 10 9 11 12 12 14 13
REMARK SMILES IDX 13 14
REMARK H PARENT
REMARK Flexibility Score: inf
ROOT
ATOM      1  C   UNL     1       6.386   1.074   0.736  1.00  0.00     0.080 C 
ENDROOT
BRANCH   1   2
ATOM      2  C   UNL     1       5.644   0.449   1.846  1.00  0.00     0.130 C 
ATOM      3  C   UNL     1       6.303  -0.774   2.461  1.00  0.00     0.087 C 
ATOM      4  O   UNL     1       4.594   0.789   2.314  1.00  0.00    -0.300 OA
ENDBRANCH   1   2
BRANCH   1   5
ATOM      5  C   UNL     1       6.027   0.621  -0.624  1.00  0.00     0.043 C 
BRANCH   5   6
ATOM      6  C   UNL     1       7.003  -0.211  -1.333  1.00  0.00    -0.044 A 
ATOM      7  C   UNL     1       7.666   0.233  -2.478  1.00  0.00     0.008 A 
ATOM      8  C   UNL     1       7.313  -1.464  -0.858  1.00  0.00     0.054 A 
ATOM      9  C   UNL     1       8.588  -0.589  -3.074  1.00  0.00     0.051 A 
ATOM     10  C   UNL     1       8.261  -2.284  -1.488  1.00  0.00     0.166 A 
ATOM     11  C   UNL     1       8.915  -1.847  -2.619  1.00  0.00     0.165 A 
ATOM     12  O   UNL     1       8.763  -3.556  -1.242  1.00  0.00    -0.454 OA
ATOM     13  O   UNL     1       9.799  -2.847  -3.043  1.00  0.00    -0.454 OA
ATOM     14  C   UNL     1      10.012  -3.663  -1.910  1.00  0.00     0.468 C 
ENDBRANCH   5   6
ENDBRANCH   1   5
TORSDOF 3
ENDMDL
MODEL 4
REMARK VINA RESULT:      -7.4      1.354      2.156
REMARK SMILES CC(=O)CCc1ccc2c(c1)OCO2
REMARK SMILES IDX 4 1 2 2 1 3 3 4 5 5 6 6 7 7 11 8 8 9 10 10 9 11 12 12 14 13
REMARK SMILES IDX 13 14
REMARK H PARENT
REMARK Flexibility Score: inf
ROOT
ATOM      1  C   UNL     1       6.589   0.062   1.899  1.00  0.00     0.080 C 
ENDROOT
BRANCH   1   2
ATOM      2  C   UNL     1       5.295   0.755   1.768  1.00  0.00     0.130 C 
ATOM      3  C   UNL     1       5.194   1.733   0.610  1.00  0.00     0.087 C 
ATOM      4  O   UNL     1       4.324   0.637   2.461  1.00  0.00    -0.300 OA
ENDBRANCH   1   2
BRANCH   1   5
ATOM      5  C   UNL     1       6.611  -1.359   1.495  1.00  0.00     0.043 C 
BRANCH   5   6
ATOM      6  C   UNL     1       7.316  -1.692   0.253  1.00  0.00    -0.044 A 
ATOM      7  C   UNL     1       6.972  -1.121  -0.973  1.00  0.00     0.008 A 
ATOM      8  C   UNL     1       8.372  -2.573   0.276  1.00  0.00     0.054 A 
ATOM      9  C   UNL     1       7.692  -1.458  -2.090  1.00  0.00     0.051 A 
ATOM     10  C   UNL     1       9.092  -2.900  -0.883  1.00  0.00     0.166 A 
ATOM     11  C   UNL     1       8.753  -2.337  -2.093  1.00  0.00     0.165 A 
ATOM     12  O   UNL     1      10.171  -3.732  -1.154  1.00  0.00    -0.454 OA
ATOM     13  O   UNL     1       9.621  -2.827  -3.077  1.00  0.00    -0.454 OA
ATOM     14  C   UNL     1      10.752  -3.299  -2.375  1.00  0.00     0.468 C 
ENDBRANCH   5   6
ENDBRANCH   1   5
TORSDOF 3
ENDMDL
MODEL 5
REMARK VINA RESULT:      -7.2      1.366      1.801
REMARK SMILES CC(=O)CCc1ccc2c(c1)OCO2
REMARK SMILES IDX 4 1 2 2 1 3 3 4 5 5 6 6 7 7 11 8 8 9 10 10 9 11 12 12 14 13
REMARK SMILES IDX 13 14
REMARK H PARENT
REMARK Flexibility Score: inf
ROOT
ATOM      1  C   UNL     1       6.280   0.608   1.648  1.00  0.00     0.080 C 
ENDROOT
BRANCH   1   2
ATOM      2  C   UNL     1       5.190   1.459   1.137  1.00  0.00     0.130 C 
ATOM      3  C   UNL     1       5.325   1.884  -0.316  1.00  0.00     0.087 C 
ATOM      4  O   UNL     1       4.221   1.847   1.726  1.00  0.00    -0.300 OA
ENDBRANCH   1   2
BRANCH   1   5
ATOM      5  C   UNL     1       6.379  -0.746   1.064  1.00  0.00     0.043 C 
BRANCH   5   6
ATOM      6  C   UNL     1       7.610  -1.075   0.341  1.00  0.00    -0.044 A 
ATOM      7  C   UNL     1       8.875  -0.888   0.901  1.00  0.00     0.008 A 
ATOM      8  C   UNL     1       7.543  -1.614  -0.923  1.00  0.00     0.054 A 
ATOM      9  C   UNL     1       9.983  -1.243   0.178  1.00  0.00     0.051 A 
ATOM     10  C   UNL     1       8.695  -1.970  -1.641  1.00  0.00     0.166 A 
ATOM     11  C   UNL     1       9.943  -1.784  -1.088  1.00  0.00     0.165 A 
ATOM     12  O   UNL     1       8.926  -2.518  -2.897  1.00  0.00    -0.454 OA
ATOM     13  O   UNL     1      10.910  -2.217  -2.005  1.00  0.00    -0.454 OA
ATOM     14  C   UNL     1      10.228  -3.087  -2.884  1.00  0.00     0.468 C 
ENDBRANCH   5   6
ENDBRANCH   1   5
TORSDOF 3
ENDMDL
