@<TRIPOS>MOLECULE
/home/cewinharhar/GITHUB/reincatalyze/data/processed/docking_pred/2023-May-31-1727_sub9_nm5_bs15_s42_ex16_mel10_mts10000_k50_ec075_g099_lra3e-4_lrc3e-3/f43d8cd6194682d8f3e5600fbc578d0750565092_ligand_9.pdbqt
 14 15 0 0 0
SMALL
GASTEIGER

@<TRIPOS>ATOM
      1  C          6.3860    1.0740    0.7360 C.3     1  UNL1        0.0800
      2  C          5.6440    0.4490    1.8460 C.2     1  UNL1        0.1300
      3  C          6.3030   -0.7740    2.4610 C.3     1  UNL1        0.0870
      4  O          4.5940    0.7890    2.3140 O.2     1  UNL1       -0.3000
      5  C          6.0270    0.6210   -0.6240 C.3     1  UNL1        0.0430
      6  C          7.0030   -0.2110   -1.3330 C.2     1  UNL1       -0.0440
      7  C          7.6660    0.2330   -2.4780 C.2     1  UNL1        0.0080
      8  C          7.3130   -1.4640   -0.8580 C.2     1  UNL1        0.0540
      9  C          8.5880   -0.5890   -3.0740 C.2     1  UNL1        0.0510
     10  C          8.2610   -2.2840   -1.4880 C.2     1  UNL1        0.1660
     11  C          8.9150   -1.8470   -2.6190 C.2     1  UNL1        0.1650
     12  O          8.7630   -3.5560   -1.2420 O.2     1  UNL1       -0.4540
     13  O          9.7990   -2.8470   -3.0430 O.2     1  UNL1       -0.4540
     14  C         10.0120   -3.6630   -1.9100 C.3     1  UNL1        0.4680
@<TRIPOS>BOND
     1     9    11    2
     2     9     7    1
     3    13    11    1
     4    13    14    1
     5    11    10    1
     6     7     6    2
     7    14    12    1
     8    10    12    1
     9    10     8    2
    10     6     8    1
    11     6     5    1
    12     5     1    1
    13     1     2    1
    14     2     4    2
    15     2     3    1
