@<TRIPOS>MOLECULE
/home/cewinharhar/GITHUB/reincatalyze/data/processed/docking_pred/2023-May-31-1727_sub9_nm5_bs15_s42_ex16_mel10_mts10000_k50_ec075_g099_lra3e-4_lrc3e-3/f56adf6440abdf94ed5aca5eaefea0329b307251_ligand_9.pdbqt
 14 15 0 0 0
SMALL
GASTEIGER

@<TRIPOS>ATOM
      1  C          5.7600    1.4060   -0.2910 C.3     1  UNL1        0.0800
      2  C          5.1260    1.3540    1.0380 C.2     1  UNL1        0.1300
      3  C          5.5760    0.2080    1.9290 C.3     1  UNL1        0.0870
      4  O          4.3070    2.1020    1.4930 O.2     1  UNL1       -0.3000
      5  C          7.1910    1.0430   -0.3450 C.3     1  UNL1        0.0430
      6  C          7.5300   -0.2640   -0.9140 C.2     1  UNL1       -0.0440
      7  C          7.5990   -0.4810   -2.2920 C.2     1  UNL1        0.0080
      8  C          7.8230   -1.3220   -0.0850 C.2     1  UNL1        0.0540
      9  C          7.9490   -1.7230   -2.7540 C.2     1  UNL1        0.0510
     10  C          8.1790   -2.5830   -0.5860 C.2     1  UNL1        0.1660
     11  C          8.2450   -2.7970   -1.9450 C.2     1  UNL1        0.1650
     12  O          8.5160   -3.8000   -0.0050 O.2     1  UNL1       -0.4540
     13  O          8.6190   -4.1280   -2.1740 O.2     1  UNL1       -0.4540
     14  C          9.2290   -4.5560   -0.9740 C.3     1  UNL1        0.4680
@<TRIPOS>BOND
     1     9     7    1
     2     9    11    2
     3     7     6    2
     4    13    11    1
     5    13    14    1
     6    11    10    1
     7    14    12    1
     8     6     5    1
     9     6     8    1
    10    10     8    2
    11    10    12    1
    12     5     1    1
    13     1     2    1
    14     2     4    2
    15     2     3    1
