@<TRIPOS>MOLECULE
/home/cewinharhar/GITHUB/reincatalyze/data/processed/docking_pred/2023-May-31-1727_sub9_nm5_bs15_s42_ex16_mel10_mts10000_k50_ec075_g099_lra3e-4_lrc3e-3/f56adf6440abdf94ed5aca5eaefea0329b307251_ligand_9.pdbqt
 14 15 0 0 0
SMALL
GASTEIGER

@<TRIPOS>ATOM
      1  C          6.1920    1.1990    0.9000 C.3     1  UNL1        0.0800
      2  C          5.5370    0.3640    1.9240 C.2     1  UNL1        0.1300
      3  C          6.3370   -0.8420    2.3880 C.3     1  UNL1        0.0870
      4  O          4.4620    0.5250    2.4270 O.2     1  UNL1       -0.3000
      5  C          5.8630    0.8830   -0.5050 C.3     1  UNL1        0.0430
      6  C          6.8540    0.1210   -1.2700 C.2     1  UNL1       -0.0440
      7  C          7.8290    0.7420   -2.0530 C.2     1  UNL1        0.0080
      8  C          6.8620   -1.2540   -1.2100 C.2     1  UNL1        0.0540
      9  C          8.7410   -0.0330   -2.7200 C.2     1  UNL1        0.0510
     10  C          7.8080   -2.0230   -1.9030 C.2     1  UNL1        0.1660
     11  C          8.7700   -1.4090   -2.6760 C.2     1  UNL1        0.1650
     12  O          8.0520   -3.3850   -2.0260 O.2     1  UNL1       -0.4540
     13  O          9.5800   -2.3960   -3.2540 O.2     1  UNL1       -0.4540
     14  C          9.3970   -3.5450   -2.4530 C.3     1  UNL1        0.4680
@<TRIPOS>BOND
     1    13    11    1
     2    13    14    1
     3     9    11    2
     4     9     7    1
     5    11    10    1
     6    14    12    1
     7     7     6    2
     8    12    10    1
     9    10     8    2
    10     6     8    1
    11     6     5    1
    12     5     1    1
    13     1     2    1
    14     2     3    1
    15     2     4    2
