MODEL 1
REMARK VINA RESULT:      -7.7      0.000      0.000
REMARK SMILES CC(=O)CCc1ccc2c(c1)OCO2
REMARK SMILES IDX 4 1 2 2 1 3 3 4 5 5 6 6 7 7 11 8 8 9 10 10 9 11 12 12 14 13
REMARK SMILES IDX 13 14
REMARK H PARENT
REMARK Flexibility Score: inf
ROOT
ATOM      1  C   UNL     1       5.559   1.852   1.239  1.00  0.00     0.080 C 
ENDROOT
BRANCH   1   2
ATOM      2  C   UNL     1       4.979   0.721   1.987  1.00  0.00     0.130 C 
ATOM      3  C   UNL     1       5.837  -0.532   2.038  1.00  0.00     0.087 C 
ATOM      4  O   UNL     1       3.923   0.677   2.551  1.00  0.00    -0.300 OA
ENDBRANCH   1   2
BRANCH   1   5
ATOM      5  C   UNL     1       5.556   1.729  -0.234  1.00  0.00     0.043 C 
BRANCH   5   6
ATOM      6  C   UNL     1       6.656   0.979  -0.846  1.00  0.00    -0.044 A 
ATOM      7  C   UNL     1       7.992   1.348  -0.679  1.00  0.00     0.008 A 
ATOM      8  C   UNL     1       6.391  -0.146  -1.591  1.00  0.00     0.054 A 
ATOM      9  C   UNL     1       8.971   0.584  -1.259  1.00  0.00     0.051 A 
ATOM     10  C   UNL     1       7.414  -0.910  -2.173  1.00  0.00     0.166 A 
ATOM     11  C   UNL     1       8.732  -0.545  -2.009  1.00  0.00     0.165 A 
ATOM     12  O   UNL     1       7.445  -2.060  -2.954  1.00  0.00    -0.454 OA
ATOM     13  O   UNL     1       9.542  -1.468  -2.685  1.00  0.00    -0.454 OA
ATOM     14  C   UNL     1       8.743  -2.623  -2.839  1.00  0.00     0.468 C 
ENDBRANCH   5   6
ENDBRANCH   1   5
TORSDOF 3
ENDMDL
MODEL 2
REMARK VINA RESULT:      -7.1      1.815      2.290
REMARK SMILES CC(=O)CCc1ccc2c(c1)OCO2
REMARK SMILES IDX 4 1 2 2 1 3 3 4 5 5 6 6 7 7 11 8 8 9 10 10 9 11 12 12 14 13
REMARK SMILES IDX 13 14
REMARK H PARENT
REMARK Flexibility Score: inf
ROOT
ATOM      1  C   UNL     1       5.760   1.406  -0.291  1.00  0.00     0.080 C 
ENDROOT
BRANCH   1   2
ATOM      2  C   UNL     1       5.126   1.354   1.038  1.00  0.00     0.130 C 
ATOM      3  C   UNL     1       5.576   0.208   1.929  1.00  0.00     0.087 C 
ATOM      4  O   UNL     1       4.307   2.102   1.493  1.00  0.00    -0.300 OA
ENDBRANCH   1   2
BRANCH   1   5
ATOM      5  C   UNL     1       7.191   1.043  -0.345  1.00  0.00     0.043 C 
BRANCH   5   6
ATOM      6  C   UNL     1       7.530  -0.264  -0.914  1.00  0.00    -0.044 A 
ATOM      7  C   UNL     1       7.599  -0.481  -2.292  1.00  0.00     0.008 A 
ATOM      8  C   UNL     1       7.823  -1.322  -0.085  1.00  0.00     0.054 A 
ATOM      9  C   UNL     1       7.949  -1.723  -2.754  1.00  0.00     0.051 A 
ATOM     10  C   UNL     1       8.179  -2.583  -0.586  1.00  0.00     0.166 A 
ATOM     11  C   UNL     1       8.245  -2.797  -1.945  1.00  0.00     0.165 A 
ATOM     12  O   UNL     1       8.516  -3.800  -0.005  1.00  0.00    -0.454 OA
ATOM     13  O   UNL     1       8.619  -4.128  -2.174  1.00  0.00    -0.454 OA
ATOM     14  C   UNL     1       9.229  -4.556  -0.974  1.00  0.00     0.468 C 
ENDBRANCH   5   6
ENDBRANCH   1   5
TORSDOF 3
ENDMDL
MODEL 3
REMARK VINA RESULT:      -7.0      1.075      1.156
REMARK SMILES CC(=O)CCc1ccc2c(c1)OCO2
REMARK SMILES IDX 4 1 2 2 1 3 3 4 5 5 6 6 7 7 11 8 8 9 10 10 9 11 12 12 14 13
REMARK SMILES IDX 13 14
REMARK H PARENT
REMARK Flexibility Score: inf
ROOT
ATOM      1  C   UNL     1       6.192   1.199   0.900  1.00  0.00     0.080 C 
ENDROOT
BRANCH   1   2
ATOM      2  C   UNL     1       5.537   0.364   1.924  1.00  0.00     0.130 C 
ATOM      3  C   UNL     1       6.337  -0.842   2.388  1.00  0.00     0.087 C 
ATOM      4  O   UNL     1       4.462   0.525   2.427  1.00  0.00    -0.300 OA
ENDBRANCH   1   2
BRANCH   1   5
ATOM      5  C   UNL     1       5.863   0.883  -0.505  1.00  0.00     0.043 C 
BRANCH   5   6
ATOM      6  C   UNL     1       6.854   0.121  -1.270  1.00  0.00    -0.044 A 
ATOM      7  C   UNL     1       7.829   0.742  -2.053  1.00  0.00     0.008 A 
ATOM      8  C   UNL     1       6.862  -1.254  -1.210  1.00  0.00     0.054 A 
ATOM      9  C   UNL     1       8.741  -0.033  -2.720  1.00  0.00     0.051 A 
ATOM     10  C   UNL     1       7.808  -2.023  -1.903  1.00  0.00     0.166 A 
ATOM     11  C   UNL     1       8.770  -1.409  -2.676  1.00  0.00     0.165 A 
ATOM     12  O   UNL     1       8.052  -3.385  -2.026  1.00  0.00    -0.454 OA
ATOM     13  O   UNL     1       9.580  -2.396  -3.254  1.00  0.00    -0.454 OA
ATOM     14  C   UNL     1       9.397  -3.545  -2.453  1.00  0.00     0.468 C 
ENDBRANCH   5   6
ENDBRANCH   1   5
TORSDOF 3
ENDMDL
MODEL 4
REMARK VINA RESULT:      -6.8      1.800      2.349
REMARK SMILES CC(=O)CCc1ccc2c(c1)OCO2
REMARK SMILES IDX 4 1 2 2 1 3 3 4 5 5 6 6 7 7 11 8 8 9 10 10 9 11 12 12 14 13
REMARK SMILES IDX 13 14
REMARK H PARENT
REMARK Flexibility Score: inf
ROOT
ATOM      1  C   UNL     1       6.586   1.236   1.381  1.00  0.00     0.080 C 
ENDROOT
BRANCH   1   2
ATOM      2  C   UNL     1       5.214   1.671   1.062  1.00  0.00     0.130 C 
ATOM      3  C   UNL     1       4.998   2.149  -0.364  1.00  0.00     0.087 C 
ATOM      4  O   UNL     1       4.261   1.689   1.788  1.00  0.00    -0.300 OA
ENDBRANCH   1   2
BRANCH   1   5
ATOM      5  C   UNL     1       7.550   1.248   0.260  1.00  0.00     0.043 C 
BRANCH   5   6
ATOM      6  C   UNL     1       7.755  -0.011  -0.462  1.00  0.00    -0.044 A 
ATOM      7  C   UNL     1       7.787  -0.072  -1.856  1.00  0.00     0.008 A 
ATOM      8  C   UNL     1       7.951  -1.180   0.235  1.00  0.00     0.054 A 
ATOM      9  C   UNL     1       8.011  -1.280  -2.465  1.00  0.00     0.051 A 
ATOM     10  C   UNL     1       8.178  -2.403  -0.414  1.00  0.00     0.166 A 
ATOM     11  C   UNL     1       8.210  -2.464  -1.789  1.00  0.00     0.165 A 
ATOM     12  O   UNL     1       8.403  -3.705   0.017  1.00  0.00    -0.454 OA
ATOM     13  O   UNL     1       8.451  -3.788  -2.176  1.00  0.00    -0.454 OA
ATOM     14  C   UNL     1       9.029  -4.408  -1.046  1.00  0.00     0.468 C 
ENDBRANCH   5   6
ENDBRANCH   1   5
TORSDOF 3
ENDMDL
MODEL 5
REMARK VINA RESULT:      -6.8      1.168      1.635
REMARK SMILES CC(=O)CCc1ccc2c(c1)OCO2
REMARK SMILES IDX 4 1 2 2 1 3 3 4 5 5 6 6 7 7 11 8 8 9 10 10 9 11 12 12 14 13
REMARK SMILES IDX 13 14
REMARK H PARENT
REMARK Flexibility Score: inf
ROOT
ATOM      1  C   UNL     1       5.382  -0.037   1.954  1.00  0.00     0.080 C 
ENDROOT
BRANCH   1   2
ATOM      2  C   UNL     1       4.425   1.079   1.849  1.00  0.00     0.130 C 
ATOM      3  C   UNL     1       4.744   2.111   0.780  1.00  0.00     0.087 C 
ATOM      4  O   UNL     1       3.436   1.264   2.500  1.00  0.00    -0.300 OA
ENDBRANCH   1   2
BRANCH   1   5
ATOM      5  C   UNL     1       6.798   0.292   1.689  1.00  0.00     0.043 C 
BRANCH   5   6
ATOM      6  C   UNL     1       7.333  -0.061   0.372  1.00  0.00    -0.044 A 
ATOM      7  C   UNL     1       7.752   0.905  -0.545  1.00  0.00     0.008 A 
ATOM      8  C   UNL     1       7.464  -1.383   0.013  1.00  0.00     0.054 A 
ATOM      9  C   UNL     1       8.268   0.501  -1.750  1.00  0.00     0.051 A 
ATOM     10  C   UNL     1       7.996  -1.768  -1.227  1.00  0.00     0.166 A 
ATOM     11  C   UNL     1       8.408  -0.814  -2.132  1.00  0.00     0.165 A 
ATOM     12  O   UNL     1       8.240  -2.989  -1.842  1.00  0.00    -0.454 OA
ATOM     13  O   UNL     1       8.894  -1.460  -3.276  1.00  0.00    -0.454 OA
ATOM     14  C   UNL     1       9.208  -2.773  -2.859  1.00  0.00     0.468 C 
ENDBRANCH   5   6
ENDBRANCH   1   5
TORSDOF 3
ENDMDL
