@<TRIPOS>MOLECULE
/home/cewinharhar/GITHUB/reincatalyze/data/processed/docking_pred/2023-May-31-1727_sub9_nm5_bs15_s42_ex16_mel10_mts10000_k50_ec075_g099_lra3e-4_lrc3e-3/f56adf6440abdf94ed5aca5eaefea0329b307251_ligand_9.pdbqt
 14 15 0 0 0
SMALL
GASTEIGER

@<TRIPOS>ATOM
      1  C          5.5590    1.8520    1.2390 C.3     1  UNL1        0.0800
      2  C          4.9790    0.7210    1.9870 C.2     1  UNL1        0.1300
      3  C          5.8370   -0.5320    2.0380 C.3     1  UNL1        0.0870
      4  O          3.9230    0.6770    2.5510 O.2     1  UNL1       -0.3000
      5  C          5.5560    1.7290   -0.2340 C.3     1  UNL1        0.0430
      6  C          6.6560    0.9790   -0.8460 C.2     1  UNL1       -0.0440
      7  C          7.9920    1.3480   -0.6790 C.2     1  UNL1        0.0080
      8  C          6.3910   -0.1460   -1.5910 C.2     1  UNL1        0.0540
      9  C          8.9710    0.5840   -1.2590 C.2     1  UNL1        0.0510
     10  C          7.4140   -0.9100   -2.1730 C.2     1  UNL1        0.1660
     11  C          8.7320   -0.5450   -2.0090 C.2     1  UNL1        0.1650
     12  O          7.4450   -2.0600   -2.9540 O.2     1  UNL1       -0.4540
     13  O          9.5420   -1.4680   -2.6850 O.2     1  UNL1       -0.4540
     14  C          8.7430   -2.6230   -2.8390 C.3     1  UNL1        0.4680
@<TRIPOS>BOND
     1    12    14    1
     2    12    10    1
     3    14    13    1
     4    13    11    1
     5    10    11    2
     6    10     8    1
     7    11     9    1
     8     8     6    2
     9     9     7    2
    10     6     7    1
    11     6     5    1
    12     5     1    1
    13     1     2    1
    14     2     3    1
    15     2     4    2
