@<TRIPOS>MOLECULE
/home/cewinharhar/GITHUB/reincatalyze/data/processed/docking_pred/2023-May-31-1727_sub9_nm5_bs15_s42_ex16_mel10_mts10000_k50_ec075_g099_lra3e-4_lrc3e-3/f5d21a1fca5b46740ede221944c3c0743e15dd7f_ligand_9.pdbqt
 14 15 0 0 0
SMALL
GASTEIGER

@<TRIPOS>ATOM
      1  C          5.6970    0.0760    1.9710 C.3     1  UNL1        0.0800
      2  C          4.6960    1.1230    1.7000 C.2     1  UNL1        0.1300
      3  C          5.0210    2.0480    0.5390 C.3     1  UNL1        0.0870
      4  O          3.6690    1.3270    2.2820 O.2     1  UNL1       -0.3000
      5  C          7.0140    0.2490    1.3230 C.3     1  UNL1        0.0430
      6  C          7.4000   -0.7400    0.3130 C.2     1  UNL1       -0.0440
      7  C          7.3550   -0.4640   -1.0550 C.2     1  UNL1        0.0080
      8  C          7.8500   -1.9800    0.7010 C.2     1  UNL1        0.0540
      9  C          7.7570   -1.4280   -1.9430 C.2     1  UNL1        0.0510
     10  C          8.2560   -2.9490   -0.2300 C.2     1  UNL1        0.1660
     11  C          8.2110   -2.6760   -1.5790 C.2     1  UNL1        0.1650
     12  O          8.7410   -4.2470   -0.1320 O.2     1  UNL1       -0.4540
     13  O          8.6650   -3.8010   -2.2810 O.2     1  UNL1       -0.4540
     14  C          9.4170   -4.5460   -1.3450 C.3     1  UNL1        0.4680
@<TRIPOS>BOND
     1    13    11    1
     2    13    14    1
     3     9    11    2
     4     9     7    1
     5    11    10    1
     6    14    12    1
     7     7     6    2
     8    10    12    1
     9    10     8    2
    10     6     8    1
    11     6     5    1
    12     3     2    1
    13     5     1    1
    14     2     1    1
    15     2     4    2
