@<TRIPOS>MOLECULE
/home/cewinharhar/GITHUB/reincatalyze/data/processed/docking_pred/2023-May-31-1727_sub9_nm5_bs15_s42_ex16_mel10_mts10000_k50_ec075_g099_lra3e-4_lrc3e-3/f5fb071253116e33fb6a6057d91faa3d89d34546_ligand_9.pdbqt
 14 15 0 0 0
SMALL
GASTEIGER

@<TRIPOS>ATOM
      1  C          6.3600    1.1010    0.9540 C.3     1  UNL1        0.0800
      2  C          5.5850    0.3610    1.9670 C.2     1  UNL1        0.1300
      3  C          6.2650   -0.8740    2.5320 C.3     1  UNL1        0.0870
      4  O          4.4940    0.6190    2.3900 O.2     1  UNL1       -0.3000
      5  C          5.9830    0.8650   -0.4550 C.3     1  UNL1        0.0430
      6  C          6.8890    0.0430   -1.2630 C.2     1  UNL1       -0.0440
      7  C          7.6170    0.5690   -2.3310 C.2     1  UNL1        0.0080
      8  C          7.0670   -1.2870   -0.9600 C.2     1  UNL1        0.0540
      9  C          8.4670   -0.2510   -3.0270 C.2     1  UNL1        0.0510
     10  C          7.9450   -2.1040   -1.6890 C.2     1  UNL1        0.1660
     11  C          8.6620   -1.5850   -2.7440 C.2     1  UNL1        0.1650
     12  O          8.3160   -3.4410   -1.6140 O.2     1  UNL1       -0.4540
     13  O          9.4540   -2.6010   -3.2930 O.2     1  UNL1       -0.4540
     14  C          9.5630   -3.5790   -2.2790 C.3     1  UNL1        0.4680
@<TRIPOS>BOND
     1    13    11    1
     2    13    14    1
     3     9    11    2
     4     9     7    1
     5    11    10    1
     6     7     6    2
     7    14    12    1
     8    10    12    1
     9    10     8    2
    10     6     8    1
    11     6     5    1
    12     5     1    1
    13     1     2    1
    14     2     4    2
    15     2     3    1
