MODEL 1
REMARK VINA RESULT:      -7.6      0.000      0.000
REMARK SMILES CC(=O)CCc1ccc2c(c1)OCO2
REMARK SMILES IDX 4 1 2 2 1 3 3 4 5 5 6 6 7 7 11 8 8 9 10 10 9 11 12 12 14 13
REMARK SMILES IDX 13 14
REMARK H PARENT
REMARK Flexibility Score: inf
ROOT
ATOM      1  C   UNL     1       5.449   1.903   1.198  1.00  0.00     0.080 C 
ENDROOT
BRANCH   1   2
ATOM      2  C   UNL     1       4.926   0.770   1.983  1.00  0.00     0.130 C 
ATOM      3  C   UNL     1       5.848  -0.432   2.083  1.00  0.00     0.087 C 
ATOM      4  O   UNL     1       3.870   0.690   2.544  1.00  0.00    -0.300 OA
ENDBRANCH   1   2
BRANCH   1   5
ATOM      5  C   UNL     1       5.448   1.734  -0.270  1.00  0.00     0.043 C 
BRANCH   5   6
ATOM      6  C   UNL     1       6.568   0.997  -0.861  1.00  0.00    -0.044 A 
ATOM      7  C   UNL     1       7.896   1.379  -0.664  1.00  0.00     0.008 A 
ATOM      8  C   UNL     1       6.331  -0.128  -1.616  1.00  0.00     0.054 A 
ATOM      9  C   UNL     1       8.896   0.627  -1.225  1.00  0.00     0.051 A 
ATOM     10  C   UNL     1       7.374  -0.879  -2.178  1.00  0.00     0.166 A 
ATOM     11  C   UNL     1       8.685  -0.502  -1.984  1.00  0.00     0.165 A 
ATOM     12  O   UNL     1       7.433  -2.025  -2.962  1.00  0.00    -0.454 OA
ATOM     13  O   UNL     1       9.518  -1.413  -2.645  1.00  0.00    -0.454 OA
ATOM     14  C   UNL     1       8.735  -2.576  -2.821  1.00  0.00     0.468 C 
ENDBRANCH   5   6
ENDBRANCH   1   5
TORSDOF 3
ENDMDL
MODEL 2
REMARK VINA RESULT:      -7.0      1.811      2.287
REMARK SMILES CC(=O)CCc1ccc2c(c1)OCO2
REMARK SMILES IDX 4 1 2 2 1 3 3 4 5 5 6 6 7 7 11 8 8 9 10 10 9 11 12 12 14 13
REMARK SMILES IDX 13 14
REMARK H PARENT
REMARK Flexibility Score: inf
ROOT
ATOM      1  C   UNL     1       5.832   1.519  -0.250  1.00  0.00     0.080 C 
ENDROOT
BRANCH   1   2
ATOM      2  C   UNL     1       5.133   1.379   1.040  1.00  0.00     0.130 C 
ATOM      3  C   UNL     1       5.592   0.219   1.907  1.00  0.00     0.087 C 
ATOM      4  O   UNL     1       4.255   2.067   1.479  1.00  0.00    -0.300 OA
ENDBRANCH   1   2
BRANCH   1   5
ATOM      5  C   UNL     1       7.250   1.099  -0.271  1.00  0.00     0.043 C 
BRANCH   5   6
ATOM      6  C   UNL     1       7.553  -0.206  -0.863  1.00  0.00    -0.044 A 
ATOM      7  C   UNL     1       7.584  -0.407  -2.244  1.00  0.00     0.008 A 
ATOM      8  C   UNL     1       7.848  -1.278  -0.053  1.00  0.00     0.054 A 
ATOM      9  C   UNL     1       7.903  -1.649  -2.730  1.00  0.00     0.051 A 
ATOM     10  C   UNL     1       8.172  -2.539  -0.577  1.00  0.00     0.166 A 
ATOM     11  C   UNL     1       8.202  -2.737  -1.940  1.00  0.00     0.165 A 
ATOM     12  O   UNL     1       8.504  -3.767  -0.019  1.00  0.00    -0.454 OA
ATOM     13  O   UNL     1       8.548  -4.071  -2.193  1.00  0.00    -0.454 OA
ATOM     14  C   UNL     1       9.180  -4.523  -1.014  1.00  0.00     0.468 C 
ENDBRANCH   5   6
ENDBRANCH   1   5
TORSDOF 3
ENDMDL
MODEL 3
REMARK VINA RESULT:      -6.9      1.239      1.405
REMARK SMILES CC(=O)CCc1ccc2c(c1)OCO2
REMARK SMILES IDX 4 1 2 2 1 3 3 4 5 5 6 6 7 7 11 8 8 9 10 10 9 11 12 12 14 13
REMARK SMILES IDX 13 14
REMARK H PARENT
REMARK Flexibility Score: inf
ROOT
ATOM      1  C   UNL     1       6.360   1.101   0.954  1.00  0.00     0.080 C 
ENDROOT
BRANCH   1   2
ATOM      2  C   UNL     1       5.585   0.361   1.967  1.00  0.00     0.130 C 
ATOM      3  C   UNL     1       6.265  -0.874   2.532  1.00  0.00     0.087 C 
ATOM      4  O   UNL     1       4.494   0.619   2.390  1.00  0.00    -0.300 OA
ENDBRANCH   1   2
BRANCH   1   5
ATOM      5  C   UNL     1       5.983   0.865  -0.455  1.00  0.00     0.043 C 
BRANCH   5   6
ATOM      6  C   UNL     1       6.889   0.043  -1.263  1.00  0.00    -0.044 A 
ATOM      7  C   UNL     1       7.617   0.569  -2.331  1.00  0.00     0.008 A 
ATOM      8  C   UNL     1       7.067  -1.287  -0.960  1.00  0.00     0.054 A 
ATOM      9  C   UNL     1       8.467  -0.251  -3.027  1.00  0.00     0.051 A 
ATOM     10  C   UNL     1       7.945  -2.104  -1.689  1.00  0.00     0.166 A 
ATOM     11  C   UNL     1       8.662  -1.585  -2.744  1.00  0.00     0.165 A 
ATOM     12  O   UNL     1       8.316  -3.441  -1.614  1.00  0.00    -0.454 OA
ATOM     13  O   UNL     1       9.454  -2.601  -3.293  1.00  0.00    -0.454 OA
ATOM     14  C   UNL     1       9.563  -3.579  -2.279  1.00  0.00     0.468 C 
ENDBRANCH   5   6
ENDBRANCH   1   5
TORSDOF 3
ENDMDL
MODEL 4
REMARK VINA RESULT:      -6.8      1.159      1.649
REMARK SMILES CC(=O)CCc1ccc2c(c1)OCO2
REMARK SMILES IDX 4 1 2 2 1 3 3 4 5 5 6 6 7 7 11 8 8 9 10 10 9 11 12 12 14 13
REMARK SMILES IDX 13 14
REMARK H PARENT
REMARK Flexibility Score: inf
ROOT
ATOM      1  C   UNL     1       5.383  -0.029   1.955  1.00  0.00     0.080 C 
ENDROOT
BRANCH   1   2
ATOM      2  C   UNL     1       4.434   1.096   1.863  1.00  0.00     0.130 C 
ATOM      3  C   UNL     1       4.760   2.135   0.804  1.00  0.00     0.087 C 
ATOM      4  O   UNL     1       3.449   1.282   2.518  1.00  0.00    -0.300 OA
ENDBRANCH   1   2
BRANCH   1   5
ATOM      5  C   UNL     1       6.802   0.292   1.695  1.00  0.00     0.043 C 
BRANCH   5   6
ATOM      6  C   UNL     1       7.337  -0.057   0.376  1.00  0.00    -0.044 A 
ATOM      7  C   UNL     1       7.761   0.912  -0.535  1.00  0.00     0.008 A 
ATOM      8  C   UNL     1       7.461  -1.377   0.010  1.00  0.00     0.054 A 
ATOM      9  C   UNL     1       8.277   0.513  -1.741  1.00  0.00     0.051 A 
ATOM     10  C   UNL     1       7.993  -1.758  -1.231  1.00  0.00     0.166 A 
ATOM     11  C   UNL     1       8.411  -0.802  -2.130  1.00  0.00     0.165 A 
ATOM     12  O   UNL     1       8.232  -2.977  -1.854  1.00  0.00    -0.454 OA
ATOM     13  O   UNL     1       8.895  -1.443  -3.278  1.00  0.00    -0.454 OA
ATOM     14  C   UNL     1       9.202  -2.760  -2.868  1.00  0.00     0.468 C 
ENDBRANCH   5   6
ENDBRANCH   1   5
TORSDOF 3
ENDMDL
MODEL 5
REMARK VINA RESULT:      -6.7      1.938      2.538
REMARK SMILES CC(=O)CCc1ccc2c(c1)OCO2
REMARK SMILES IDX 4 1 2 2 1 3 3 4 5 5 6 6 7 7 11 8 8 9 10 10 9 11 12 12 14 13
REMARK SMILES IDX 13 14
REMARK H PARENT
REMARK Flexibility Score: inf
ROOT
ATOM      1  C   UNL     1       5.459  -0.064   2.064  1.00  0.00     0.080 C 
ENDROOT
BRANCH   1   2
ATOM      2  C   UNL     1       4.545   1.073   1.848  1.00  0.00     0.130 C 
ATOM      3  C   UNL     1       4.961   2.043   0.755  1.00  0.00     0.087 C 
ATOM      4  O   UNL     1       3.525   1.316   2.428  1.00  0.00    -0.300 OA
ENDBRANCH   1   2
BRANCH   1   5
ATOM      5  C   UNL     1       6.832   0.096   1.539  1.00  0.00     0.043 C 
BRANCH   5   6
ATOM      6  C   UNL     1       7.256  -0.825   0.481  1.00  0.00    -0.044 A 
ATOM      7  C   UNL     1       7.193  -0.484  -0.871  1.00  0.00     0.008 A 
ATOM      8  C   UNL     1       7.761  -2.062   0.807  1.00  0.00     0.054 A 
ATOM      9  C   UNL     1       7.632  -1.385  -1.806  1.00  0.00     0.051 A 
ATOM     10  C   UNL     1       8.204  -2.965  -0.172  1.00  0.00     0.166 A 
ATOM     11  C   UNL     1       8.142  -2.629  -1.506  1.00  0.00     0.165 A 
ATOM     12  O   UNL     1       8.746  -4.244  -0.140  1.00  0.00    -0.454 OA
ATOM     13  O   UNL     1       8.642  -3.696  -2.263  1.00  0.00    -0.454 OA
ATOM     14  C   UNL     1       9.429  -4.453  -1.367  1.00  0.00     0.468 C 
ENDBRANCH   5   6
ENDBRANCH   1   5
TORSDOF 3
ENDMDL
