@<TRIPOS>MOLECULE
/home/cewinharhar/GITHUB/reincatalyze/data/processed/docking_pred/2023-May-31-1727_sub9_nm5_bs15_s42_ex16_mel10_mts10000_k50_ec075_g099_lra3e-4_lrc3e-3/f5fb071253116e33fb6a6057d91faa3d89d34546_ligand_9.pdbqt
 14 15 0 0 0
SMALL
GASTEIGER

@<TRIPOS>ATOM
      1  C          5.8320    1.5190   -0.2500 C.3     1  UNL1        0.0800
      2  C          5.1330    1.3790    1.0400 C.2     1  UNL1        0.1300
      3  C          5.5920    0.2190    1.9070 C.3     1  UNL1        0.0870
      4  O          4.2550    2.0670    1.4790 O.2     1  UNL1       -0.3000
      5  C          7.2500    1.0990   -0.2710 C.3     1  UNL1        0.0430
      6  C          7.5530   -0.2060   -0.8630 C.2     1  UNL1       -0.0440
      7  C          7.5840   -0.4070   -2.2440 C.2     1  UNL1        0.0080
      8  C          7.8480   -1.2780   -0.0530 C.2     1  UNL1        0.0540
      9  C          7.9030   -1.6490   -2.7300 C.2     1  UNL1        0.0510
     10  C          8.1720   -2.5390   -0.5770 C.2     1  UNL1        0.1660
     11  C          8.2020   -2.7370   -1.9400 C.2     1  UNL1        0.1650
     12  O          8.5040   -3.7670   -0.0190 O.2     1  UNL1       -0.4540
     13  O          8.5480   -4.0710   -2.1930 O.2     1  UNL1       -0.4540
     14  C          9.1800   -4.5230   -1.0140 C.3     1  UNL1        0.4680
@<TRIPOS>BOND
     1     9     7    1
     2     9    11    2
     3     7     6    2
     4    13    11    1
     5    13    14    1
     6    11    10    1
     7    14    12    1
     8     6     5    1
     9     6     8    1
    10    10     8    2
    11    10    12    1
    12     5     1    1
    13     1     2    1
    14     2     4    2
    15     2     3    1
