@<TRIPOS>MOLECULE
/home/cewinharhar/GITHUB/reincatalyze/data/processed/docking_pred/2023-May-31-1727_sub9_nm5_bs15_s42_ex16_mel10_mts10000_k50_ec075_g099_lra3e-4_lrc3e-3/f5fb071253116e33fb6a6057d91faa3d89d34546_ligand_9.pdbqt
 14 15 0 0 0
SMALL
GASTEIGER

@<TRIPOS>ATOM
      1  C          5.4590   -0.0640    2.0640 C.3     1  UNL1        0.0800
      2  C          4.5450    1.0730    1.8480 C.2     1  UNL1        0.1300
      3  C          4.9610    2.0430    0.7550 C.3     1  UNL1        0.0870
      4  O          3.5250    1.3160    2.4280 O.2     1  UNL1       -0.3000
      5  C          6.8320    0.0960    1.5390 C.3     1  UNL1        0.0430
      6  C          7.2560   -0.8250    0.4810 C.2     1  UNL1       -0.0440
      7  C          7.1930   -0.4840   -0.8710 C.2     1  UNL1        0.0080
      8  C          7.7610   -2.0620    0.8070 C.2     1  UNL1        0.0540
      9  C          7.6320   -1.3850   -1.8060 C.2     1  UNL1        0.0510
     10  C          8.2040   -2.9650   -0.1720 C.2     1  UNL1        0.1660
     11  C          8.1420   -2.6290   -1.5060 C.2     1  UNL1        0.1650
     12  O          8.7460   -4.2440   -0.1400 O.2     1  UNL1       -0.4540
     13  O          8.6420   -3.6960   -2.2630 O.2     1  UNL1       -0.4540
     14  C          9.4290   -4.4530   -1.3670 C.3     1  UNL1        0.4680
@<TRIPOS>BOND
     1    13    11    1
     2    13    14    1
     3     9    11    2
     4     9     7    1
     5    11    10    1
     6    14    12    1
     7     7     6    2
     8    10    12    1
     9    10     8    2
    10     6     8    1
    11     6     5    1
    12     3     2    1
    13     5     1    1
    14     2     1    1
    15     2     4    2
