@<TRIPOS>MOLECULE
/home/cewinharhar/GITHUB/reincatalyze/data/processed/docking_pred/2023-May-31-1727_sub9_nm5_bs15_s42_ex16_mel10_mts10000_k50_ec075_g099_lra3e-4_lrc3e-3/f5fb071253116e33fb6a6057d91faa3d89d34546_ligand_9.pdbqt
 14 15 0 0 0
SMALL
GASTEIGER

@<TRIPOS>ATOM
      1  C          5.4490    1.9030    1.1980 C.3     1  UNL1        0.0800
      2  C          4.9260    0.7700    1.9830 C.2     1  UNL1        0.1300
      3  C          5.8480   -0.4320    2.0830 C.3     1  UNL1        0.0870
      4  O          3.8700    0.6900    2.5440 O.2     1  UNL1       -0.3000
      5  C          5.4480    1.7340   -0.2700 C.3     1  UNL1        0.0430
      6  C          6.5680    0.9970   -0.8610 C.2     1  UNL1       -0.0440
      7  C          7.8960    1.3790   -0.6640 C.2     1  UNL1        0.0080
      8  C          6.3310   -0.1280   -1.6160 C.2     1  UNL1        0.0540
      9  C          8.8960    0.6270   -1.2250 C.2     1  UNL1        0.0510
     10  C          7.3740   -0.8790   -2.1780 C.2     1  UNL1        0.1660
     11  C          8.6850   -0.5020   -1.9840 C.2     1  UNL1        0.1650
     12  O          7.4330   -2.0250   -2.9620 O.2     1  UNL1       -0.4540
     13  O          9.5180   -1.4130   -2.6450 O.2     1  UNL1       -0.4540
     14  C          8.7350   -2.5760   -2.8210 C.3     1  UNL1        0.4680
@<TRIPOS>BOND
     1    12    14    1
     2    12    10    1
     3    14    13    1
     4    13    11    1
     5    10    11    2
     6    10     8    1
     7    11     9    1
     8     8     6    2
     9     9     7    2
    10     6     7    1
    11     6     5    1
    12     5     1    1
    13     1     2    1
    14     2     3    1
    15     2     4    2
