@<TRIPOS>MOLECULE
/home/cewinharhar/GITHUB/reincatalyze/data/processed/docking_pred/2023-May-31-1727_sub9_nm5_bs15_s42_ex16_mel10_mts10000_k50_ec075_g099_lra3e-4_lrc3e-3/f5fb071253116e33fb6a6057d91faa3d89d34546_ligand_9.pdbqt
 14 15 0 0 0
SMALL
GASTEIGER

@<TRIPOS>ATOM
      1  C          5.3830   -0.0290    1.9550 C.3     1  UNL1        0.0800
      2  C          4.4340    1.0960    1.8630 C.2     1  UNL1        0.1300
      3  C          4.7600    2.1350    0.8040 C.3     1  UNL1        0.0870
      4  O          3.4490    1.2820    2.5180 O.2     1  UNL1       -0.3000
      5  C          6.8020    0.2920    1.6950 C.3     1  UNL1        0.0430
      6  C          7.3370   -0.0570    0.3760 C.2     1  UNL1       -0.0440
      7  C          7.7610    0.9120   -0.5350 C.2     1  UNL1        0.0080
      8  C          7.4610   -1.3770    0.0100 C.2     1  UNL1        0.0540
      9  C          8.2770    0.5130   -1.7410 C.2     1  UNL1        0.0510
     10  C          7.9930   -1.7580   -1.2310 C.2     1  UNL1        0.1660
     11  C          8.4110   -0.8020   -2.1300 C.2     1  UNL1        0.1650
     12  O          8.2320   -2.9770   -1.8540 O.2     1  UNL1       -0.4540
     13  O          8.8950   -1.4430   -3.2780 O.2     1  UNL1       -0.4540
     14  C          9.2020   -2.7600   -2.8680 C.3     1  UNL1        0.4680
@<TRIPOS>BOND
     1    13    14    1
     2    13    11    1
     3    14    12    1
     4    11     9    2
     5    11    10    1
     6    12    10    1
     7     9     7    1
     8    10     8    2
     9     7     6    2
    10     8     6    1
    11     6     5    1
    12     3     2    1
    13     5     1    1
    14     2     1    1
    15     2     4    2
