@<TRIPOS>MOLECULE
/home/cewinharhar/GITHUB/reincatalyze/data/processed/docking_pred/2023-May-31-1727_sub9_nm5_bs15_s42_ex16_mel10_mts10000_k50_ec075_g099_lra3e-4_lrc3e-3/f6b0a6d65051a5b20d9eb350202399160ef0f891_ligand_9.pdbqt
 14 15 0 0 0
SMALL
GASTEIGER

@<TRIPOS>ATOM
      1  C          6.8330    0.7050    1.4710 C.3     1  UNL1        0.0800
      2  C          5.4020    1.0340    1.5990 C.2     1  UNL1        0.1300
      3  C          4.9020    2.1310    0.6750 C.3     1  UNL1        0.0870
      4  O          4.5970    0.5410    2.3380 O.2     1  UNL1       -0.3000
      5  C          7.4090    0.8180    0.1150 C.3     1  UNL1        0.0430
      6  C          7.6870   -0.4290   -0.6020 C.2     1  UNL1       -0.0440
      7  C          7.6820   -0.5030   -1.9960 C.2     1  UNL1        0.0080
      8  C          7.9920   -1.5730    0.0980 C.2     1  UNL1        0.0540
      9  C          7.9780   -1.6970   -2.6010 C.2     1  UNL1        0.0510
     10  C          8.2920   -2.7820   -0.5470 C.2     1  UNL1        0.1660
     11  C          8.2860   -2.8550   -1.9220 C.2     1  UNL1        0.1650
     12  O          8.6260   -4.0590   -0.1120 O.2     1  UNL1       -0.4540
     13  O          8.6150   -4.1620   -2.3050 O.2     1  UNL1       -0.4540
     14  C          9.2720   -4.7240   -1.1880 C.3     1  UNL1        0.4680
@<TRIPOS>BOND
     1     9     7    1
     2     9    11    2
     3    13    11    1
     4    13    14    1
     5     7     6    2
     6    11    10    1
     7    14    12    1
     8     6     8    1
     9     6     5    1
    10    10    12    1
    11    10     8    2
    12     5     1    1
    13     3     2    1
    14     1     2    1
    15     2     4    2
