@<TRIPOS>MOLECULE
/home/cewinharhar/GITHUB/reincatalyze/data/processed/docking_pred/2023-May-31-1727_sub9_nm5_bs15_s42_ex16_mel10_mts10000_k50_ec075_g099_lra3e-4_lrc3e-3/f6b0a6d65051a5b20d9eb350202399160ef0f891_ligand_9.pdbqt
 14 15 0 0 0
SMALL
GASTEIGER

@<TRIPOS>ATOM
      1  C          5.3860   -0.0270    1.9430 C.3     1  UNL1        0.0800
      2  C          4.4410    1.0990    1.8350 C.2     1  UNL1        0.1300
      3  C          4.7770    2.1300    0.7700 C.3     1  UNL1        0.0870
      4  O          3.4510    1.2930    2.4810 O.2     1  UNL1       -0.3000
      5  C          6.8110    0.2940    1.7140 C.3     1  UNL1        0.0430
      6  C          7.3830   -0.0820    0.4190 C.2     1  UNL1       -0.0440
      7  C          7.8880    0.8640   -0.4740 C.2     1  UNL1        0.0080
      8  C          7.4620   -1.4080    0.0600 C.2     1  UNL1        0.0540
      9  C          8.4340    0.4390   -1.6580 C.2     1  UNL1        0.0510
     10  C          8.0270   -1.8150   -1.1590 C.2     1  UNL1        0.1660
     11  C          8.5250   -0.8810   -2.0400 C.2     1  UNL1        0.1650
     12  O          8.2360   -3.0460   -1.7700 O.2     1  UNL1       -0.4540
     13  O          9.0260   -1.5470   -3.1660 O.2     1  UNL1       -0.4540
     14  C          9.2550   -2.8750   -2.7430 C.3     1  UNL1        0.4680
@<TRIPOS>BOND
     1    13    14    1
     2    13    11    1
     3    14    12    1
     4    11     9    2
     5    11    10    1
     6    12    10    1
     7     9     7    1
     8    10     8    2
     9     7     6    2
    10     8     6    1
    11     6     5    1
    12     3     2    1
    13     5     1    1
    14     2     1    1
    15     2     4    2
