@<TRIPOS>MOLECULE
/home/cewinharhar/GITHUB/reincatalyze/data/processed/docking_pred/2023-May-31-1727_sub9_nm5_bs15_s42_ex16_mel10_mts10000_k50_ec075_g099_lra3e-4_lrc3e-3/f6b0a6d65051a5b20d9eb350202399160ef0f891_ligand_9.pdbqt
 14 15 0 0 0
SMALL
GASTEIGER

@<TRIPOS>ATOM
      1  C          5.6450    1.8260    1.2940 C.3     1  UNL1        0.0800
      2  C          5.0220    0.7010    2.0150 C.2     1  UNL1        0.1300
      3  C          5.8690   -0.5570    2.1110 C.3     1  UNL1        0.0870
      4  O          3.9400    0.6650    2.5280 O.2     1  UNL1       -0.3000
      5  C          5.6350    1.7390   -0.1820 C.3     1  UNL1        0.0430
      6  C          6.7180    0.9810   -0.8150 C.2     1  UNL1       -0.0440
      7  C          8.0600    1.3320   -0.6630 C.2     1  UNL1        0.0080
      8  C          6.4290   -0.1340   -1.5680 C.2     1  UNL1        0.0540
      9  C          9.0230    0.5610   -1.2620 C.2     1  UNL1        0.0510
     10  C          7.4350   -0.9050   -2.1700 C.2     1  UNL1        0.1660
     11  C          8.7590   -0.5580   -2.0200 C.2     1  UNL1        0.1650
     12  O          7.4410   -2.0470   -2.9610 O.2     1  UNL1       -0.4540
     13  O          9.5490   -1.4840   -2.7140 O.2     1  UNL1       -0.4540
     14  C          8.7340   -2.6270   -2.8690 C.3     1  UNL1        0.4680
@<TRIPOS>BOND
     1    12    14    1
     2    12    10    1
     3    14    13    1
     4    13    11    1
     5    10    11    2
     6    10     8    1
     7    11     9    1
     8     8     6    2
     9     9     7    2
    10     6     7    1
    11     6     5    1
    12     5     1    1
    13     1     2    1
    14     2     3    1
    15     2     4    2
