@<TRIPOS>MOLECULE
/home/cewinharhar/GITHUB/reincatalyze/data/processed/docking_pred/2023-May-31-1727_sub9_nm5_bs15_s42_ex16_mel10_mts10000_k50_ec075_g099_lra3e-4_lrc3e-3/f74925e0f2dbd9eb14447f51d5c862455f02ecd6_ligand_9.pdbqt
 14 15 0 0 0
SMALL
GASTEIGER

@<TRIPOS>ATOM
      1  C          5.5010    1.9060    1.2070 C.3     1  UNL1        0.0800
      2  C          5.0000    0.7690    2.0010 C.2     1  UNL1        0.1300
      3  C          5.9590   -0.4020    2.1340 C.3     1  UNL1        0.0870
      4  O          3.9390    0.6640    2.5470 O.2     1  UNL1       -0.3000
      5  C          5.4860    1.7330   -0.2600 C.3     1  UNL1        0.0430
      6  C          6.6030    0.9980   -0.8600 C.2     1  UNL1       -0.0440
      7  C          7.9320    1.3820   -0.6720 C.2     1  UNL1        0.0080
      8  C          6.3630   -0.1260   -1.6140 C.2     1  UNL1        0.0540
      9  C          8.9290    0.6330   -1.2400 C.2     1  UNL1        0.0510
     10  C          7.4030   -0.8760   -2.1840 C.2     1  UNL1        0.1660
     11  C          8.7140   -0.4960   -1.9990 C.2     1  UNL1        0.1650
     12  O          7.4590   -2.0210   -2.9700 O.2     1  UNL1       -0.4540
     13  O          9.5450   -1.4060   -2.6670 O.2     1  UNL1       -0.4540
     14  C          8.7620   -2.5690   -2.8380 C.3     1  UNL1        0.4680
@<TRIPOS>BOND
     1    12    14    1
     2    12    10    1
     3    14    13    1
     4    13    11    1
     5    10    11    2
     6    10     8    1
     7    11     9    1
     8     8     6    2
     9     9     7    2
    10     6     7    1
    11     6     5    1
    12     5     1    1
    13     1     2    1
    14     2     3    1
    15     2     4    2
