@<TRIPOS>MOLECULE
/home/cewinharhar/GITHUB/reincatalyze/data/processed/docking_pred/2023-May-31-1727_sub9_nm5_bs15_s42_ex16_mel10_mts10000_k50_ec075_g099_lra3e-4_lrc3e-3/faf685cb0c2e1ff185f0c147bdf23d27aa2a460b_ligand_9.pdbqt
 14 15 0 0 0
SMALL
GASTEIGER

@<TRIPOS>ATOM
      1  C          5.3490   -0.0310    1.9950 C.3     1  UNL1        0.0800
      2  C          4.4020    1.0930    1.8730 C.2     1  UNL1        0.1300
      3  C          4.7480    2.1230    0.8110 C.3     1  UNL1        0.0870
      4  O          3.4040    1.2850    2.5070 O.2     1  UNL1       -0.3000
      5  C          6.7740    0.2920    1.7760 C.3     1  UNL1        0.0430
      6  C          7.3350   -0.0100    0.4560 C.2     1  UNL1       -0.0440
      7  C          7.9190    0.9710   -0.3470 C.2     1  UNL1        0.0080
      8  C          7.3240   -1.3010   -0.0180 C.2     1  UNL1        0.0540
      9  C          8.4480    0.6130   -1.5590 C.2     1  UNL1        0.0510
     10  C          7.8740   -1.6410   -1.2630 C.2     1  UNL1        0.1660
     11  C          8.4480   -0.6720   -2.0560 C.2     1  UNL1        0.1650
     12  O          8.0010   -2.8250   -1.9790 O.2     1  UNL1       -0.4540
     13  O          8.9150   -1.2720   -3.2330 O.2     1  UNL1       -0.4540
     14  C          9.0430   -2.6450   -2.9260 C.3     1  UNL1        0.4680
@<TRIPOS>BOND
     1    13    14    1
     2    13    11    1
     3    14    12    1
     4    11     9    2
     5    11    10    1
     6    12    10    1
     7     9     7    1
     8    10     8    2
     9     7     6    2
    10     8     6    1
    11     6     5    1
    12     3     2    1
    13     5     1    1
    14     2     1    1
    15     2     4    2
