@<TRIPOS>MOLECULE
/home/cewinharhar/GITHUB/reincatalyze/data/processed/docking_pred/2023-May-31-1727_sub9_nm5_bs15_s42_ex16_mel10_mts10000_k50_ec075_g099_lra3e-4_lrc3e-3/faf685cb0c2e1ff185f0c147bdf23d27aa2a460b_ligand_9.pdbqt
 14 15 0 0 0
SMALL
GASTEIGER

@<TRIPOS>ATOM
      1  C          5.5050    1.8910    1.2220 C.3     1  UNL1        0.0800
      2  C          4.9310    0.7790    2.0000 C.2     1  UNL1        0.1300
      3  C          5.8060   -0.4590    2.1070 C.3     1  UNL1        0.0870
      4  O          3.8680    0.7380    2.5520 O.2     1  UNL1       -0.3000
      5  C          5.4920    1.7330   -0.2480 C.3     1  UNL1        0.0430
      6  C          6.5990    0.9870   -0.8520 C.2     1  UNL1       -0.0440
      7  C          7.9310    1.3730   -0.6900 C.2     1  UNL1        0.0080
      8  C          6.3460   -0.1500   -1.5830 C.2     1  UNL1        0.0540
      9  C          8.9190    0.6120   -1.2600 C.2     1  UNL1        0.0510
     10  C          7.3770   -0.9100   -2.1560 C.2     1  UNL1        0.1660
     11  C          8.6920   -0.5290   -1.9970 C.2     1  UNL1        0.1650
     12  O          7.4200   -2.0680   -2.9230 O.2     1  UNL1       -0.4540
     13  O          9.5110   -1.4500   -2.6620 O.2     1  UNL1       -0.4540
     14  C          8.7250   -2.6150   -2.8020 C.3     1  UNL1        0.4680
@<TRIPOS>BOND
     1    12    14    1
     2    12    10    1
     3    14    13    1
     4    13    11    1
     5    10    11    2
     6    10     8    1
     7    11     9    1
     8     8     6    2
     9     9     7    2
    10     6     7    1
    11     6     5    1
    12     5     1    1
    13     1     2    1
    14     2     3    1
    15     2     4    2
