MODEL 1
REMARK VINA RESULT:      -7.6      0.000      0.000
REMARK SMILES CC(=O)CCc1ccc2c(c1)OCO2
REMARK SMILES IDX 4 1 2 2 1 3 3 4 5 5 6 6 7 7 11 8 8 9 10 10 9 11 12 12 14 13
REMARK SMILES IDX 13 14
REMARK H PARENT
REMARK Flexibility Score: inf
ROOT
ATOM      1  C   UNL     1       5.505   1.891   1.222  1.00  0.00     0.080 C 
ENDROOT
BRANCH   1   2
ATOM      2  C   UNL     1       4.931   0.779   2.000  1.00  0.00     0.130 C 
ATOM      3  C   UNL     1       5.806  -0.459   2.107  1.00  0.00     0.087 C 
ATOM      4  O   UNL     1       3.868   0.738   2.552  1.00  0.00    -0.300 OA
ENDBRANCH   1   2
BRANCH   1   5
ATOM      5  C   UNL     1       5.492   1.733  -0.248  1.00  0.00     0.043 C 
BRANCH   5   6
ATOM      6  C   UNL     1       6.599   0.987  -0.852  1.00  0.00    -0.044 A 
ATOM      7  C   UNL     1       7.931   1.373  -0.690  1.00  0.00     0.008 A 
ATOM      8  C   UNL     1       6.346  -0.150  -1.583  1.00  0.00     0.054 A 
ATOM      9  C   UNL     1       8.919   0.612  -1.260  1.00  0.00     0.051 A 
ATOM     10  C   UNL     1       7.377  -0.910  -2.156  1.00  0.00     0.166 A 
ATOM     11  C   UNL     1       8.692  -0.529  -1.997  1.00  0.00     0.165 A 
ATOM     12  O   UNL     1       7.420  -2.068  -2.923  1.00  0.00    -0.454 OA
ATOM     13  O   UNL     1       9.511  -1.450  -2.662  1.00  0.00    -0.454 OA
ATOM     14  C   UNL     1       8.725  -2.615  -2.802  1.00  0.00     0.468 C 
ENDBRANCH   5   6
ENDBRANCH   1   5
TORSDOF 3
ENDMDL
MODEL 2
REMARK VINA RESULT:      -7.0      1.819      2.280
REMARK SMILES CC(=O)CCc1ccc2c(c1)OCO2
REMARK SMILES IDX 4 1 2 2 1 3 3 4 5 5 6 6 7 7 11 8 8 9 10 10 9 11 12 12 14 13
REMARK SMILES IDX 13 14
REMARK H PARENT
REMARK Flexibility Score: inf
ROOT
ATOM      1  C   UNL     1       5.934   1.506  -0.226  1.00  0.00     0.080 C 
ENDROOT
BRANCH   1   2
ATOM      2  C   UNL     1       5.178   1.405   1.035  1.00  0.00     0.130 C 
ATOM      3  C   UNL     1       5.548   0.229   1.923  1.00  0.00     0.087 C 
ATOM      4  O   UNL     1       4.316   2.134   1.436  1.00  0.00    -0.300 OA
ENDBRANCH   1   2
BRANCH   1   5
ATOM      5  C   UNL     1       7.339   1.049  -0.181  1.00  0.00     0.043 C 
BRANCH   5   6
ATOM      6  C   UNL     1       7.645  -0.242  -0.803  1.00  0.00    -0.044 A 
ATOM      7  C   UNL     1       7.717  -0.402  -2.188  1.00  0.00     0.008 A 
ATOM      8  C   UNL     1       7.900  -1.342  -0.018  1.00  0.00     0.054 A 
ATOM      9  C   UNL     1       8.034  -1.633  -2.701  1.00  0.00     0.051 A 
ATOM     10  C   UNL     1       8.223  -2.590  -0.570  1.00  0.00     0.166 A 
ATOM     11  C   UNL     1       8.293  -2.748  -1.936  1.00  0.00     0.165 A 
ATOM     12  O   UNL     1       8.521  -3.840  -0.039  1.00  0.00    -0.454 OA
ATOM     13  O   UNL     1       8.631  -4.078  -2.219  1.00  0.00    -0.454 OA
ATOM     14  C   UNL     1       9.219  -4.574  -1.034  1.00  0.00     0.468 C 
ENDBRANCH   5   6
ENDBRANCH   1   5
TORSDOF 3
ENDMDL
MODEL 3
REMARK VINA RESULT:      -7.0      1.107      1.207
REMARK SMILES CC(=O)CCc1ccc2c(c1)OCO2
REMARK SMILES IDX 4 1 2 2 1 3 3 4 5 5 6 6 7 7 11 8 8 9 10 10 9 11 12 12 14 13
REMARK SMILES IDX 13 14
REMARK H PARENT
REMARK Flexibility Score: inf
ROOT
ATOM      1  C   UNL     1       6.230   1.193   0.900  1.00  0.00     0.080 C 
ENDROOT
BRANCH   1   2
ATOM      2  C   UNL     1       5.555   0.375   1.924  1.00  0.00     0.130 C 
ATOM      3  C   UNL     1       6.332  -0.840   2.401  1.00  0.00     0.087 C 
ATOM      4  O   UNL     1       4.478   0.556   2.417  1.00  0.00    -0.300 OA
ENDBRANCH   1   2
BRANCH   1   5
ATOM      5  C   UNL     1       5.887   0.890  -0.506  1.00  0.00     0.043 C 
BRANCH   5   6
ATOM      6  C   UNL     1       6.861   0.117  -1.282  1.00  0.00    -0.044 A 
ATOM      7  C   UNL     1       7.795   0.726  -2.121  1.00  0.00     0.008 A 
ATOM      8  C   UNL     1       6.894  -1.254  -1.175  1.00  0.00     0.054 A 
ATOM      9  C   UNL     1       8.695  -0.058  -2.796  1.00  0.00     0.051 A 
ATOM     10  C   UNL     1       7.827  -2.032  -1.877  1.00  0.00     0.166 A 
ATOM     11  C   UNL     1       8.748  -1.431  -2.707  1.00  0.00     0.165 A 
ATOM     12  O   UNL     1       8.088  -3.394  -1.963  1.00  0.00    -0.454 OA
ATOM     13  O   UNL     1       9.552  -2.424  -3.281  1.00  0.00    -0.454 OA
ATOM     14  C   UNL     1       9.419  -3.547  -2.435  1.00  0.00     0.468 C 
ENDBRANCH   5   6
ENDBRANCH   1   5
TORSDOF 3
ENDMDL
MODEL 4
REMARK VINA RESULT:      -6.8      1.982      2.554
REMARK SMILES CC(=O)CCc1ccc2c(c1)OCO2
REMARK SMILES IDX 4 1 2 2 1 3 3 4 5 5 6 6 7 7 11 8 8 9 10 10 9 11 12 12 14 13
REMARK SMILES IDX 13 14
REMARK H PARENT
REMARK Flexibility Score: inf
ROOT
ATOM      1  C   UNL     1       5.634  -0.048   2.050  1.00  0.00     0.080 C 
ENDROOT
BRANCH   1   2
ATOM      2  C   UNL     1       4.688   1.044   1.755  1.00  0.00     0.130 C 
ATOM      3  C   UNL     1       5.075   1.942   0.592  1.00  0.00     0.087 C 
ATOM      4  O   UNL     1       3.663   1.300   2.318  1.00  0.00    -0.300 OA
ENDBRANCH   1   2
BRANCH   1   5
ATOM      5  C   UNL     1       6.990   0.093   1.479  1.00  0.00     0.043 C 
BRANCH   5   6
ATOM      6  C   UNL     1       7.380  -0.859   0.435  1.00  0.00    -0.044 A 
ATOM      7  C   UNL     1       7.307  -0.545  -0.923  1.00  0.00     0.008 A 
ATOM      8  C   UNL     1       7.863  -2.100   0.780  1.00  0.00     0.054 A 
ATOM      9  C   UNL     1       7.714  -1.475  -1.845  1.00  0.00     0.051 A 
ATOM     10  C   UNL     1       8.273  -3.033  -0.185  1.00  0.00     0.166 A 
ATOM     11  C   UNL     1       8.200  -2.723  -1.525  1.00  0.00     0.165 A 
ATOM     12  O   UNL     1       8.786  -4.323  -0.133  1.00  0.00    -0.454 OA
ATOM     13  O   UNL     1       8.666  -3.817  -2.266  1.00  0.00    -0.454 OA
ATOM     14  C   UNL     1       9.448  -4.572  -1.364  1.00  0.00     0.468 C 
ENDBRANCH   5   6
ENDBRANCH   1   5
TORSDOF 3
ENDMDL
MODEL 5
REMARK VINA RESULT:      -6.7      1.088      1.589
REMARK SMILES CC(=O)CCc1ccc2c(c1)OCO2
REMARK SMILES IDX 4 1 2 2 1 3 3 4 5 5 6 6 7 7 11 8 8 9 10 10 9 11 12 12 14 13
REMARK SMILES IDX 13 14
REMARK H PARENT
REMARK Flexibility Score: inf
ROOT
ATOM      1  C   UNL     1       5.349  -0.031   1.995  1.00  0.00     0.080 C 
ENDROOT
BRANCH   1   2
ATOM      2  C   UNL     1       4.402   1.093   1.873  1.00  0.00     0.130 C 
ATOM      3  C   UNL     1       4.748   2.123   0.811  1.00  0.00     0.087 C 
ATOM      4  O   UNL     1       3.404   1.285   2.507  1.00  0.00    -0.300 OA
ENDBRANCH   1   2
BRANCH   1   5
ATOM      5  C   UNL     1       6.774   0.292   1.776  1.00  0.00     0.043 C 
BRANCH   5   6
ATOM      6  C   UNL     1       7.335  -0.010   0.456  1.00  0.00    -0.044 A 
ATOM      7  C   UNL     1       7.919   0.971  -0.347  1.00  0.00     0.008 A 
ATOM      8  C   UNL     1       7.324  -1.301  -0.018  1.00  0.00     0.054 A 
ATOM      9  C   UNL     1       8.448   0.613  -1.559  1.00  0.00     0.051 A 
ATOM     10  C   UNL     1       7.874  -1.641  -1.263  1.00  0.00     0.166 A 
ATOM     11  C   UNL     1       8.448  -0.672  -2.056  1.00  0.00     0.165 A 
ATOM     12  O   UNL     1       8.001  -2.825  -1.979  1.00  0.00    -0.454 OA
ATOM     13  O   UNL     1       8.915  -1.272  -3.233  1.00  0.00    -0.454 OA
ATOM     14  C   UNL     1       9.043  -2.645  -2.926  1.00  0.00     0.468 C 
ENDBRANCH   5   6
ENDBRANCH   1   5
TORSDOF 3
ENDMDL
