@<TRIPOS>MOLECULE
/home/cewinharhar/GITHUB/reincatalyze/data/processed/docking_pred/2023-May-31-1727_sub9_nm5_bs15_s42_ex16_mel10_mts10000_k50_ec075_g099_lra3e-4_lrc3e-3/faf685cb0c2e1ff185f0c147bdf23d27aa2a460b_ligand_9.pdbqt
 14 15 0 0 0
SMALL
GASTEIGER

@<TRIPOS>ATOM
      1  C          5.6340   -0.0480    2.0500 C.3     1  UNL1        0.0800
      2  C          4.6880    1.0440    1.7550 C.2     1  UNL1        0.1300
      3  C          5.0750    1.9420    0.5920 C.3     1  UNL1        0.0870
      4  O          3.6630    1.3000    2.3180 O.2     1  UNL1       -0.3000
      5  C          6.9900    0.0930    1.4790 C.3     1  UNL1        0.0430
      6  C          7.3800   -0.8590    0.4350 C.2     1  UNL1       -0.0440
      7  C          7.3070   -0.5450   -0.9230 C.2     1  UNL1        0.0080
      8  C          7.8630   -2.1000    0.7800 C.2     1  UNL1        0.0540
      9  C          7.7140   -1.4750   -1.8450 C.2     1  UNL1        0.0510
     10  C          8.2730   -3.0330   -0.1850 C.2     1  UNL1        0.1660
     11  C          8.2000   -2.7230   -1.5250 C.2     1  UNL1        0.1650
     12  O          8.7860   -4.3230   -0.1330 O.2     1  UNL1       -0.4540
     13  O          8.6660   -3.8170   -2.2660 O.2     1  UNL1       -0.4540
     14  C          9.4480   -4.5720   -1.3640 C.3     1  UNL1        0.4680
@<TRIPOS>BOND
     1    13    11    1
     2    13    14    1
     3     9    11    2
     4     9     7    1
     5    11    10    1
     6    14    12    1
     7     7     6    2
     8    10    12    1
     9    10     8    2
    10     6     8    1
    11     6     5    1
    12     3     2    1
    13     5     1    1
    14     2     1    1
    15     2     4    2
