@<TRIPOS>MOLECULE
/home/cewinharhar/GITHUB/reincatalyze/data/processed/docking_pred/2023-May-31-1727_sub9_nm5_bs15_s42_ex16_mel10_mts10000_k50_ec075_g099_lra3e-4_lrc3e-3/fbb46063794dc265e75c2cefc4e8ae8bb502d9b1_ligand_9.pdbqt
 14 15 0 0 0
SMALL
GASTEIGER

@<TRIPOS>ATOM
      1  C          5.4480    1.4940    0.3650 C.3     1  UNL1        0.0800
      2  C          5.1420    1.2760    1.7900 C.2     1  UNL1        0.1300
      3  C          6.3000    0.7670    2.6330 C.3     1  UNL1        0.0870
      4  O          4.1000    1.4530    2.3540 O.2     1  UNL1       -0.3000
      5  C          6.8630    1.3340   -0.0300 C.3     1  UNL1        0.0430
      6  C          7.2240    0.1070   -0.7470 C.2     1  UNL1       -0.0440
      7  C          7.2120    0.0290   -2.1400 C.2     1  UNL1        0.0080
      8  C          7.6190   -1.0090   -0.0460 C.2     1  UNL1        0.0540
      9  C          7.5880   -1.1420   -2.7450 C.2     1  UNL1        0.0510
     10  C          8.0000   -2.1950   -0.6910 C.2     1  UNL1        0.1660
     11  C          7.9870   -2.2730   -2.0670 C.2     1  UNL1        0.1650
     12  O          8.4310   -3.4420   -0.2570 O.2     1  UNL1       -0.4540
     13  O          8.4070   -3.5530   -2.4490 O.2     1  UNL1       -0.4540
     14  C          9.1130   -4.0620   -1.3370 C.3     1  UNL1        0.4680
@<TRIPOS>BOND
     1     9     7    1
     2     9    11    2
     3    13    11    1
     4    13    14    1
     5     7     6    2
     6    11    10    1
     7    14    12    1
     8     6     8    1
     9     6     5    1
    10    10    12    1
    11    10     8    2
    12     5     1    1
    13     1     2    1
    14     2     4    2
    15     2     3    1
