MODEL 1
REMARK VINA RESULT:      -7.9      0.000      0.000
REMARK SMILES CC(=O)CCc1ccc2c(c1)OCO2
REMARK SMILES IDX 4 1 2 2 1 3 3 4 5 5 6 6 7 7 11 8 8 9 10 10 9 11 12 12 14 13
REMARK SMILES IDX 13 14
REMARK H PARENT
REMARK Flexibility Score: inf
ROOT
ATOM      1  C   UNL     1       5.367   2.150   1.208  1.00  0.00     0.080 C 
ENDROOT
BRANCH   1   2
ATOM      2  C   UNL     1       4.687   1.128   2.023  1.00  0.00     0.130 C 
ATOM      3  C   UNL     1       5.374  -0.227   2.073  1.00  0.00     0.087 C 
ATOM      4  O   UNL     1       3.668   1.240   2.644  1.00  0.00    -0.300 OA
ENDBRANCH   1   2
BRANCH   1   5
ATOM      5  C   UNL     1       5.374   1.919  -0.252  1.00  0.00     0.043 C 
BRANCH   5   6
ATOM      6  C   UNL     1       6.503   1.166  -0.806  1.00  0.00    -0.044 A 
ATOM      7  C   UNL     1       7.829   1.482  -0.503  1.00  0.00     0.008 A 
ATOM      8  C   UNL     1       6.274   0.091  -1.633  1.00  0.00     0.054 A 
ATOM      9  C   UNL     1       8.834   0.717  -1.035  1.00  0.00     0.051 A 
ATOM     10  C   UNL     1       7.323  -0.675  -2.164  1.00  0.00     0.166 A 
ATOM     11  C   UNL     1       8.631  -0.363  -1.865  1.00  0.00     0.165 A 
ATOM     12  O   UNL     1       7.390  -1.783  -3.000  1.00  0.00    -0.454 OA
ATOM     13  O   UNL     1       9.471  -1.275  -2.517  1.00  0.00    -0.454 OA
ATOM     14  C   UNL     1       8.657  -2.393  -2.804  1.00  0.00     0.468 C 
ENDBRANCH   5   6
ENDBRANCH   1   5
TORSDOF 3
ENDMDL
MODEL 2
REMARK VINA RESULT:      -7.4      0.990      1.085
REMARK SMILES CC(=O)CCc1ccc2c(c1)OCO2
REMARK SMILES IDX 4 1 2 2 1 3 3 4 5 5 6 6 7 7 11 8 8 9 10 10 9 11 12 12 14 13
REMARK SMILES IDX 13 14
REMARK H PARENT
REMARK Flexibility Score: inf
ROOT
ATOM      1  C   UNL     1       5.049   1.051   1.520  1.00  0.00     0.080 C 
ENDROOT
BRANCH   1   2
ATOM      2  C   UNL     1       6.042   0.330   2.337  1.00  0.00     0.130 C 
ATOM      3  C   UNL     1       6.151  -1.160   2.063  1.00  0.00     0.087 C 
ATOM      4  O   UNL     1       6.765   0.779   3.181  1.00  0.00    -0.300 OA
ENDBRANCH   1   2
BRANCH   1   5
ATOM      5  C   UNL     1       5.568   1.737   0.318  1.00  0.00     0.043 C 
BRANCH   5   6
ATOM      6  C   UNL     1       6.626   1.060  -0.436  1.00  0.00    -0.044 A 
ATOM      7  C   UNL     1       7.962   1.455  -0.362  1.00  0.00     0.008 A 
ATOM      8  C   UNL     1       6.322  -0.023  -1.229  1.00  0.00     0.054 A 
ATOM      9  C   UNL     1       8.904   0.759  -1.074  1.00  0.00     0.051 A 
ATOM     10  C   UNL     1       7.306  -0.718  -1.947  1.00  0.00     0.166 A 
ATOM     11  C   UNL     1       8.625  -0.327  -1.874  1.00  0.00     0.165 A 
ATOM     12  O   UNL     1       7.294  -1.813  -2.801  1.00  0.00    -0.454 OA
ATOM     13  O   UNL     1       9.392  -1.180  -2.677  1.00  0.00    -0.454 OA
ATOM     14  C   UNL     1       8.610  -2.345  -2.838  1.00  0.00     0.468 C 
ENDBRANCH   5   6
ENDBRANCH   1   5
TORSDOF 3
ENDMDL
MODEL 3
REMARK VINA RESULT:      -7.0      1.210      1.692
REMARK SMILES CC(=O)CCc1ccc2c(c1)OCO2
REMARK SMILES IDX 4 1 2 2 1 3 3 4 5 5 6 6 7 7 11 8 8 9 10 10 9 11 12 12 14 13
REMARK SMILES IDX 13 14
REMARK H PARENT
REMARK Flexibility Score: inf
ROOT
ATOM      1  C   UNL     1       5.359   0.017   1.992  1.00  0.00     0.080 C 
ENDROOT
BRANCH   1   2
ATOM      2  C   UNL     1       4.457   1.182   1.937  1.00  0.00     0.130 C 
ATOM      3  C   UNL     1       4.715   2.150   0.795  1.00  0.00     0.087 C 
ATOM      4  O   UNL     1       3.555   1.449   2.679  1.00  0.00    -0.300 OA
ENDBRANCH   1   2
BRANCH   1   5
ATOM      5  C   UNL     1       6.790   0.289   1.746  1.00  0.00     0.043 C 
BRANCH   5   6
ATOM      6  C   UNL     1       7.319  -0.049   0.421  1.00  0.00    -0.044 A 
ATOM      7  C   UNL     1       7.743   0.927  -0.482  1.00  0.00     0.008 A 
ATOM      8  C   UNL     1       7.436  -1.366   0.042  1.00  0.00     0.054 A 
ATOM      9  C   UNL     1       8.252   0.538  -1.693  1.00  0.00     0.051 A 
ATOM     10  C   UNL     1       7.962  -1.737  -1.205  1.00  0.00     0.166 A 
ATOM     11  C   UNL     1       8.380  -0.773  -2.096  1.00  0.00     0.165 A 
ATOM     12  O   UNL     1       8.194  -2.951  -1.840  1.00  0.00    -0.454 OA
ATOM     13  O   UNL     1       8.857  -1.405  -3.252  1.00  0.00    -0.454 OA
ATOM     14  C   UNL     1       9.160  -2.727  -2.856  1.00  0.00     0.468 C 
ENDBRANCH   5   6
ENDBRANCH   1   5
TORSDOF 3
ENDMDL
MODEL 4
REMARK VINA RESULT:      -7.0      2.004      2.514
REMARK SMILES CC(=O)CCc1ccc2c(c1)OCO2
REMARK SMILES IDX 4 1 2 2 1 3 3 4 5 5 6 6 7 7 11 8 8 9 10 10 9 11 12 12 14 13
REMARK SMILES IDX 13 14
REMARK H PARENT
REMARK Flexibility Score: inf
ROOT
ATOM      1  C   UNL     1       5.747   0.261   2.192  1.00  0.00     0.080 C 
ENDROOT
BRANCH   1   2
ATOM      2  C   UNL     1       4.700   1.265   1.926  1.00  0.00     0.130 C 
ATOM      3  C   UNL     1       4.926   2.130   0.698  1.00  0.00     0.087 C 
ATOM      4  O   UNL     1       3.704   1.474   2.558  1.00  0.00    -0.300 OA
ENDBRANCH   1   2
BRANCH   1   5
ATOM      5  C   UNL     1       7.021   0.441   1.465  1.00  0.00     0.043 C 
BRANCH   5   6
ATOM      6  C   UNL     1       7.346  -0.545   0.429  1.00  0.00    -0.044 A 
ATOM      7  C   UNL     1       7.232  -0.259  -0.932  1.00  0.00     0.008 A 
ATOM      8  C   UNL     1       7.807  -1.791   0.785  1.00  0.00     0.054 A 
ATOM      9  C   UNL     1       7.579  -1.219  -1.846  1.00  0.00     0.051 A 
ATOM     10  C   UNL     1       8.156  -2.755  -0.172  1.00  0.00     0.166 A 
ATOM     11  C   UNL     1       8.043  -2.473  -1.516  1.00  0.00     0.165 A 
ATOM     12  O   UNL     1       8.636  -4.058  -0.109  1.00  0.00    -0.454 OA
ATOM     13  O   UNL     1       8.451  -3.596  -2.247  1.00  0.00    -0.454 OA
ATOM     14  C   UNL     1       9.245  -4.353  -1.357  1.00  0.00     0.468 C 
ENDBRANCH   5   6
ENDBRANCH   1   5
TORSDOF 3
ENDMDL
MODEL 5
REMARK VINA RESULT:      -7.0      1.647      2.047
REMARK SMILES CC(=O)CCc1ccc2c(c1)OCO2
REMARK SMILES IDX 4 1 2 2 1 3 3 4 5 5 6 6 7 7 11 8 8 9 10 10 9 11 12 12 14 13
REMARK SMILES IDX 13 14
REMARK H PARENT
REMARK Flexibility Score: inf
ROOT
ATOM      1  C   UNL     1       5.448   1.494   0.365  1.00  0.00     0.080 C 
ENDROOT
BRANCH   1   2
ATOM      2  C   UNL     1       5.142   1.276   1.790  1.00  0.00     0.130 C 
ATOM      3  C   UNL     1       6.300   0.767   2.633  1.00  0.00     0.087 C 
ATOM      4  O   UNL     1       4.100   1.453   2.354  1.00  0.00    -0.300 OA
ENDBRANCH   1   2
BRANCH   1   5
ATOM      5  C   UNL     1       6.863   1.334  -0.030  1.00  0.00     0.043 C 
BRANCH   5   6
ATOM      6  C   UNL     1       7.224   0.107  -0.747  1.00  0.00    -0.044 A 
ATOM      7  C   UNL     1       7.212   0.029  -2.140  1.00  0.00     0.008 A 
ATOM      8  C   UNL     1       7.619  -1.009  -0.046  1.00  0.00     0.054 A 
ATOM      9  C   UNL     1       7.588  -1.142  -2.745  1.00  0.00     0.051 A 
ATOM     10  C   UNL     1       8.000  -2.195  -0.691  1.00  0.00     0.166 A 
ATOM     11  C   UNL     1       7.987  -2.273  -2.067  1.00  0.00     0.165 A 
ATOM     12  O   UNL     1       8.431  -3.442  -0.257  1.00  0.00    -0.454 OA
ATOM     13  O   UNL     1       8.407  -3.553  -2.449  1.00  0.00    -0.454 OA
ATOM     14  C   UNL     1       9.113  -4.062  -1.337  1.00  0.00     0.468 C 
ENDBRANCH   5   6
ENDBRANCH   1   5
TORSDOF 3
ENDMDL
