@<TRIPOS>MOLECULE
/home/cewinharhar/GITHUB/reincatalyze/data/processed/docking_pred/2023-May-31-1727_sub9_nm5_bs15_s42_ex16_mel10_mts10000_k50_ec075_g099_lra3e-4_lrc3e-3/fbb46063794dc265e75c2cefc4e8ae8bb502d9b1_ligand_9.pdbqt
 14 15 0 0 0
SMALL
GASTEIGER

@<TRIPOS>ATOM
      1  C          5.0490    1.0510    1.5200 C.3     1  UNL1        0.0800
      2  C          6.0420    0.3300    2.3370 C.2     1  UNL1        0.1300
      3  C          6.1510   -1.1600    2.0630 C.3     1  UNL1        0.0870
      4  O          6.7650    0.7790    3.1810 O.2     1  UNL1       -0.3000
      5  C          5.5680    1.7370    0.3180 C.3     1  UNL1        0.0430
      6  C          6.6260    1.0600   -0.4360 C.2     1  UNL1       -0.0440
      7  C          7.9620    1.4550   -0.3620 C.2     1  UNL1        0.0080
      8  C          6.3220   -0.0230   -1.2290 C.2     1  UNL1        0.0540
      9  C          8.9040    0.7590   -1.0740 C.2     1  UNL1        0.0510
     10  C          7.3060   -0.7180   -1.9470 C.2     1  UNL1        0.1660
     11  C          8.6250   -0.3270   -1.8740 C.2     1  UNL1        0.1650
     12  O          7.2940   -1.8130   -2.8010 O.2     1  UNL1       -0.4540
     13  O          9.3920   -1.1800   -2.6770 O.2     1  UNL1       -0.4540
     14  C          8.6100   -2.3450   -2.8380 C.3     1  UNL1        0.4680
@<TRIPOS>BOND
     1    14    12    1
     2    14    13    1
     3    12    10    1
     4    13    11    1
     5    10    11    2
     6    10     8    1
     7    11     9    1
     8     8     6    2
     9     9     7    2
    10     6     7    1
    11     6     5    1
    12     5     1    1
    13     1     2    1
    14     3     2    1
    15     2     4    2
