@<TRIPOS>MOLECULE
/home/cewinharhar/GITHUB/reincatalyze/data/processed/docking_pred/2023-May-31-1727_sub9_nm5_bs15_s42_ex16_mel10_mts10000_k50_ec075_g099_lra3e-4_lrc3e-3/fd751eb3811fc03d22e30b1993ea0072812fb772_ligand_9.pdbqt
 14 15 0 0 0
SMALL
GASTEIGER

@<TRIPOS>ATOM
      1  C          6.2770    1.1640    0.9070 C.3     1  UNL1        0.0800
      2  C          5.5610    0.3770    1.9270 C.2     1  UNL1        0.1300
      3  C          6.2930   -0.8570    2.4280 C.3     1  UNL1        0.0870
      4  O          4.4820    0.5940    2.4010 O.2     1  UNL1       -0.3000
      5  C          5.9240    0.8820   -0.5000 C.3     1  UNL1        0.0430
      6  C          6.8800    0.0980   -1.2860 C.2     1  UNL1       -0.0440
      7  C          7.7740    0.6920   -2.1780 C.2     1  UNL1        0.0080
      8  C          6.9360   -1.2690   -1.1380 C.2     1  UNL1        0.0540
      9  C          8.6600   -0.1010   -2.8610 C.2     1  UNL1        0.0510
     10  C          7.8540   -2.0560   -1.8500 C.2     1  UNL1        0.1660
     11  C          8.7360   -1.4700   -2.7310 C.2     1  UNL1        0.1650
     12  O          8.1310   -3.4170   -1.9020 O.2     1  UNL1       -0.4540
     13  O          9.5330   -2.4700   -3.3030 O.2     1  UNL1       -0.4540
     14  C          9.4460   -3.5680   -2.4180 C.3     1  UNL1        0.4680
@<TRIPOS>BOND
     1    13    11    1
     2    13    14    1
     3     9    11    2
     4     9     7    1
     5    11    10    1
     6    14    12    1
     7     7     6    2
     8    12    10    1
     9    10     8    2
    10     6     8    1
    11     6     5    1
    12     5     1    1
    13     1     2    1
    14     2     4    2
    15     2     3    1
