MODEL 1
REMARK VINA RESULT:      -7.7      0.000      0.000
REMARK SMILES CC(=O)CCc1ccc2c(c1)OCO2
REMARK SMILES IDX 4 1 2 2 1 3 3 4 5 5 6 6 7 7 11 8 8 9 10 10 9 11 12 12 14 13
REMARK SMILES IDX 13 14
REMARK H PARENT
REMARK Flexibility Score: inf
ROOT
ATOM      1  C   UNL     1       5.455   1.932   1.183  1.00  0.00     0.080 C 
ENDROOT
BRANCH   1   2
ATOM      2  C   UNL     1       4.985   0.788   1.986  1.00  0.00     0.130 C 
ATOM      3  C   UNL     1       5.967  -0.364   2.113  1.00  0.00     0.087 C 
ATOM      4  O   UNL     1       3.932   0.664   2.544  1.00  0.00    -0.300 OA
ENDBRANCH   1   2
BRANCH   1   5
ATOM      5  C   UNL     1       5.451   1.744  -0.283  1.00  0.00     0.043 C 
BRANCH   5   6
ATOM      6  C   UNL     1       6.573   1.004  -0.866  1.00  0.00    -0.044 A 
ATOM      7  C   UNL     1       7.901   1.384  -0.662  1.00  0.00     0.008 A 
ATOM      8  C   UNL     1       6.338  -0.121  -1.622  1.00  0.00     0.054 A 
ATOM      9  C   UNL     1       8.902   0.630  -1.216  1.00  0.00     0.051 A 
ATOM     10  C   UNL     1       7.383  -0.876  -2.177  1.00  0.00     0.166 A 
ATOM     11  C   UNL     1       8.693  -0.500  -1.976  1.00  0.00     0.165 A 
ATOM     12  O   UNL     1       7.445  -2.022  -2.959  1.00  0.00    -0.454 OA
ATOM     13  O   UNL     1       9.529  -1.414  -2.631  1.00  0.00    -0.454 OA
ATOM     14  C   UNL     1       8.744  -2.575  -2.810  1.00  0.00     0.468 C 
ENDBRANCH   5   6
ENDBRANCH   1   5
TORSDOF 3
ENDMDL
MODEL 2
REMARK VINA RESULT:      -7.1      1.820      2.297
REMARK SMILES CC(=O)CCc1ccc2c(c1)OCO2
REMARK SMILES IDX 4 1 2 2 1 3 3 4 5 5 6 6 7 7 11 8 8 9 10 10 9 11 12 12 14 13
REMARK SMILES IDX 13 14
REMARK H PARENT
REMARK Flexibility Score: inf
ROOT
ATOM      1  C   UNL     1       5.796   1.476  -0.263  1.00  0.00     0.080 C 
ENDROOT
BRANCH   1   2
ATOM      2  C   UNL     1       5.078   1.381   1.021  1.00  0.00     0.130 C 
ATOM      3  C   UNL     1       5.486   0.218   1.910  1.00  0.00     0.087 C 
ATOM      4  O   UNL     1       4.221   2.107   1.440  1.00  0.00    -0.300 OA
ENDBRANCH   1   2
BRANCH   1   5
ATOM      5  C   UNL     1       7.214   1.060  -0.248  1.00  0.00     0.043 C 
BRANCH   5   6
ATOM      6  C   UNL     1       7.539  -0.237  -0.849  1.00  0.00    -0.044 A 
ATOM      7  C   UNL     1       7.580  -0.426  -2.232  1.00  0.00     0.008 A 
ATOM      8  C   UNL     1       7.843  -1.311  -0.047  1.00  0.00     0.054 A 
ATOM      9  C   UNL     1       7.918  -1.659  -2.726  1.00  0.00     0.051 A 
ATOM     10  C   UNL     1       8.186  -2.563  -0.579  1.00  0.00     0.166 A 
ATOM     11  C   UNL     1       8.226  -2.750  -1.943  1.00  0.00     0.165 A 
ATOM     12  O   UNL     1       8.531  -3.792  -0.029  1.00  0.00    -0.454 OA
ATOM     13  O   UNL     1       8.592  -4.077  -2.205  1.00  0.00    -0.454 OA
ATOM     14  C   UNL     1       9.223  -4.530  -1.026  1.00  0.00     0.468 C 
ENDBRANCH   5   6
ENDBRANCH   1   5
TORSDOF 3
ENDMDL
MODEL 3
REMARK VINA RESULT:      -7.0      1.145      1.273
REMARK SMILES CC(=O)CCc1ccc2c(c1)OCO2
REMARK SMILES IDX 4 1 2 2 1 3 3 4 5 5 6 6 7 7 11 8 8 9 10 10 9 11 12 12 14 13
REMARK SMILES IDX 13 14
REMARK H PARENT
REMARK Flexibility Score: inf
ROOT
ATOM      1  C   UNL     1       6.277   1.164   0.907  1.00  0.00     0.080 C 
ENDROOT
BRANCH   1   2
ATOM      2  C   UNL     1       5.561   0.377   1.927  1.00  0.00     0.130 C 
ATOM      3  C   UNL     1       6.293  -0.857   2.428  1.00  0.00     0.087 C 
ATOM      4  O   UNL     1       4.482   0.594   2.401  1.00  0.00    -0.300 OA
ENDBRANCH   1   2
BRANCH   1   5
ATOM      5  C   UNL     1       5.924   0.882  -0.500  1.00  0.00     0.043 C 
BRANCH   5   6
ATOM      6  C   UNL     1       6.880   0.098  -1.286  1.00  0.00    -0.044 A 
ATOM      7  C   UNL     1       7.774   0.692  -2.178  1.00  0.00     0.008 A 
ATOM      8  C   UNL     1       6.936  -1.269  -1.138  1.00  0.00     0.054 A 
ATOM      9  C   UNL     1       8.660  -0.101  -2.861  1.00  0.00     0.051 A 
ATOM     10  C   UNL     1       7.854  -2.056  -1.850  1.00  0.00     0.166 A 
ATOM     11  C   UNL     1       8.736  -1.470  -2.731  1.00  0.00     0.165 A 
ATOM     12  O   UNL     1       8.131  -3.417  -1.902  1.00  0.00    -0.454 OA
ATOM     13  O   UNL     1       9.533  -2.470  -3.303  1.00  0.00    -0.454 OA
ATOM     14  C   UNL     1       9.446  -3.568  -2.418  1.00  0.00     0.468 C 
ENDBRANCH   5   6
ENDBRANCH   1   5
TORSDOF 3
ENDMDL
MODEL 4
REMARK VINA RESULT:      -6.8      1.966      2.528
REMARK SMILES CC(=O)CCc1ccc2c(c1)OCO2
REMARK SMILES IDX 4 1 2 2 1 3 3 4 5 5 6 6 7 7 11 8 8 9 10 10 9 11 12 12 14 13
REMARK SMILES IDX 13 14
REMARK H PARENT
REMARK Flexibility Score: inf
ROOT
ATOM      1  C   UNL     1       5.733   0.061   2.017  1.00  0.00     0.080 C 
ENDROOT
BRANCH   1   2
ATOM      2  C   UNL     1       4.729   1.100   1.724  1.00  0.00     0.130 C 
ATOM      3  C   UNL     1       5.072   2.029   0.572  1.00  0.00     0.087 C 
ATOM      4  O   UNL     1       3.687   1.294   2.283  1.00  0.00    -0.300 OA
ENDBRANCH   1   2
BRANCH   1   5
ATOM      5  C   UNL     1       7.051   0.228   1.370  1.00  0.00     0.043 C 
BRANCH   5   6
ATOM      6  C   UNL     1       7.425  -0.752   0.346  1.00  0.00    -0.044 A 
ATOM      7  C   UNL     1       7.375  -0.460  -1.018  1.00  0.00     0.008 A 
ATOM      8  C   UNL     1       7.869  -2.000   0.717  1.00  0.00     0.054 A 
ATOM      9  C   UNL     1       7.765  -1.416  -1.919  1.00  0.00     0.051 A 
ATOM     10  C   UNL     1       8.262  -2.960  -0.227  1.00  0.00     0.166 A 
ATOM     11  C   UNL     1       8.212  -2.672  -1.573  1.00  0.00     0.165 A 
ATOM     12  O   UNL     1       8.739  -4.263  -0.148  1.00  0.00    -0.454 OA
ATOM     13  O   UNL     1       8.655  -3.791  -2.290  1.00  0.00    -0.454 OA
ATOM     14  C   UNL     1       9.406  -4.552  -1.368  1.00  0.00     0.468 C 
ENDBRANCH   5   6
ENDBRANCH   1   5
TORSDOF 3
ENDMDL
MODEL 5
REMARK VINA RESULT:      -6.8      1.095      1.612
REMARK SMILES CC(=O)CCc1ccc2c(c1)OCO2
REMARK SMILES IDX 4 1 2 2 1 3 3 4 5 5 6 6 7 7 11 8 8 9 10 10 9 11 12 12 14 13
REMARK SMILES IDX 13 14
REMARK H PARENT
REMARK Flexibility Score: inf
ROOT
ATOM      1  C   UNL     1       5.352  -0.016   1.979  1.00  0.00     0.080 C 
ENDROOT
BRANCH   1   2
ATOM      2  C   UNL     1       4.409   1.111   1.863  1.00  0.00     0.130 C 
ATOM      3  C   UNL     1       4.752   2.139   0.799  1.00  0.00     0.087 C 
ATOM      4  O   UNL     1       3.415   1.307   2.504  1.00  0.00    -0.300 OA
ENDBRANCH   1   2
BRANCH   1   5
ATOM      5  C   UNL     1       6.779   0.303   1.763  1.00  0.00     0.043 C 
BRANCH   5   6
ATOM      6  C   UNL     1       7.343  -0.005   0.447  1.00  0.00    -0.044 A 
ATOM      7  C   UNL     1       7.937   0.972  -0.355  1.00  0.00     0.008 A 
ATOM      8  C   UNL     1       7.324  -1.296  -0.026  1.00  0.00     0.054 A 
ATOM      9  C   UNL     1       8.469   0.607  -1.565  1.00  0.00     0.051 A 
ATOM     10  C   UNL     1       7.877  -1.642  -1.268  1.00  0.00     0.166 A 
ATOM     11  C   UNL     1       8.462  -0.678  -2.060  1.00  0.00     0.165 A 
ATOM     12  O   UNL     1       7.999  -2.828  -1.982  1.00  0.00    -0.454 OA
ATOM     13  O   UNL     1       8.929  -1.283  -3.234  1.00  0.00    -0.454 OA
ATOM     14  C   UNL     1       9.046  -2.656  -2.926  1.00  0.00     0.468 C 
ENDBRANCH   5   6
ENDBRANCH   1   5
TORSDOF 3
ENDMDL
