@<TRIPOS>MOLECULE
/home/cewinharhar/GITHUB/reincatalyze/data/processed/docking_pred/2023-May-31-1727_sub9_nm5_bs15_s42_ex16_mel10_mts10000_k50_ec075_g099_lra3e-4_lrc3e-3/fd751eb3811fc03d22e30b1993ea0072812fb772_ligand_9.pdbqt
 14 15 0 0 0
SMALL
GASTEIGER

@<TRIPOS>ATOM
      1  C          5.7330    0.0610    2.0170 C.3     1  UNL1        0.0800
      2  C          4.7290    1.1000    1.7240 C.2     1  UNL1        0.1300
      3  C          5.0720    2.0290    0.5720 C.3     1  UNL1        0.0870
      4  O          3.6870    1.2940    2.2830 O.2     1  UNL1       -0.3000
      5  C          7.0510    0.2280    1.3700 C.3     1  UNL1        0.0430
      6  C          7.4250   -0.7520    0.3460 C.2     1  UNL1       -0.0440
      7  C          7.3750   -0.4600   -1.0180 C.2     1  UNL1        0.0080
      8  C          7.8690   -2.0000    0.7170 C.2     1  UNL1        0.0540
      9  C          7.7650   -1.4160   -1.9190 C.2     1  UNL1        0.0510
     10  C          8.2620   -2.9600   -0.2270 C.2     1  UNL1        0.1660
     11  C          8.2120   -2.6720   -1.5730 C.2     1  UNL1        0.1650
     12  O          8.7390   -4.2630   -0.1480 O.2     1  UNL1       -0.4540
     13  O          8.6550   -3.7910   -2.2900 O.2     1  UNL1       -0.4540
     14  C          9.4060   -4.5520   -1.3680 C.3     1  UNL1        0.4680
@<TRIPOS>BOND
     1    13    11    1
     2    13    14    1
     3     9    11    2
     4     9     7    1
     5    11    10    1
     6    14    12    1
     7     7     6    2
     8    10    12    1
     9    10     8    2
    10     6     8    1
    11     6     5    1
    12     3     2    1
    13     5     1    1
    14     2     1    1
    15     2     4    2
