@<TRIPOS>MOLECULE
/home/cewinharhar/GITHUB/reincatalyze/data/processed/docking_pred/2023-May-31-1727_sub9_nm5_bs15_s42_ex16_mel10_mts10000_k50_ec075_g099_lra3e-4_lrc3e-3/fd751eb3811fc03d22e30b1993ea0072812fb772_ligand_9.pdbqt
 14 15 0 0 0
SMALL
GASTEIGER

@<TRIPOS>ATOM
      1  C          5.4550    1.9320    1.1830 C.3     1  UNL1        0.0800
      2  C          4.9850    0.7880    1.9860 C.2     1  UNL1        0.1300
      3  C          5.9670   -0.3640    2.1130 C.3     1  UNL1        0.0870
      4  O          3.9320    0.6640    2.5440 O.2     1  UNL1       -0.3000
      5  C          5.4510    1.7440   -0.2830 C.3     1  UNL1        0.0430
      6  C          6.5730    1.0040   -0.8660 C.2     1  UNL1       -0.0440
      7  C          7.9010    1.3840   -0.6620 C.2     1  UNL1        0.0080
      8  C          6.3380   -0.1210   -1.6220 C.2     1  UNL1        0.0540
      9  C          8.9020    0.6300   -1.2160 C.2     1  UNL1        0.0510
     10  C          7.3830   -0.8760   -2.1770 C.2     1  UNL1        0.1660
     11  C          8.6930   -0.5000   -1.9760 C.2     1  UNL1        0.1650
     12  O          7.4450   -2.0220   -2.9590 O.2     1  UNL1       -0.4540
     13  O          9.5290   -1.4140   -2.6310 O.2     1  UNL1       -0.4540
     14  C          8.7440   -2.5750   -2.8100 C.3     1  UNL1        0.4680
@<TRIPOS>BOND
     1    12    14    1
     2    12    10    1
     3    14    13    1
     4    13    11    1
     5    10    11    2
     6    10     8    1
     7    11     9    1
     8     8     6    2
     9     9     7    2
    10     6     7    1
    11     6     5    1
    12     5     1    1
    13     1     2    1
    14     2     3    1
    15     2     4    2
