@<TRIPOS>MOLECULE
/home/cewinharhar/GITHUB/reincatalyze/data/processed/docking_pred/2023-May-31-1727_sub9_nm5_bs15_s42_ex16_mel10_mts10000_k50_ec075_g099_lra3e-4_lrc3e-3/fd751eb3811fc03d22e30b1993ea0072812fb772_ligand_9.pdbqt
 14 15 0 0 0
SMALL
GASTEIGER

@<TRIPOS>ATOM
      1  C          5.3520   -0.0160    1.9790 C.3     1  UNL1        0.0800
      2  C          4.4090    1.1110    1.8630 C.2     1  UNL1        0.1300
      3  C          4.7520    2.1390    0.7990 C.3     1  UNL1        0.0870
      4  O          3.4150    1.3070    2.5040 O.2     1  UNL1       -0.3000
      5  C          6.7790    0.3030    1.7630 C.3     1  UNL1        0.0430
      6  C          7.3430   -0.0050    0.4470 C.2     1  UNL1       -0.0440
      7  C          7.9370    0.9720   -0.3550 C.2     1  UNL1        0.0080
      8  C          7.3240   -1.2960   -0.0260 C.2     1  UNL1        0.0540
      9  C          8.4690    0.6070   -1.5650 C.2     1  UNL1        0.0510
     10  C          7.8770   -1.6420   -1.2680 C.2     1  UNL1        0.1660
     11  C          8.4620   -0.6780   -2.0600 C.2     1  UNL1        0.1650
     12  O          7.9990   -2.8280   -1.9820 O.2     1  UNL1       -0.4540
     13  O          8.9290   -1.2830   -3.2340 O.2     1  UNL1       -0.4540
     14  C          9.0460   -2.6560   -2.9260 C.3     1  UNL1        0.4680
@<TRIPOS>BOND
     1    13    14    1
     2    13    11    1
     3    14    12    1
     4    11     9    2
     5    11    10    1
     6    12    10    1
     7     9     7    1
     8    10     8    2
     9     7     6    2
    10     8     6    1
    11     6     5    1
    12     3     2    1
    13     5     1    1
    14     2     1    1
    15     2     4    2
