@<TRIPOS>MOLECULE
/home/cewinharhar/GITHUB/reincatalyze/data/processed/docking_pred/2023-May-31-1727_sub9_nm5_bs15_s42_ex16_mel10_mts10000_k50_ec075_g099_lra3e-4_lrc3e-3/ff0363d9ee1910d446632d9597fe578fef33cb13_ligand_9.pdbqt
 14 15 0 0 0
SMALL
GASTEIGER

@<TRIPOS>ATOM
      1  C          5.3700   -0.0760    1.9540 C.3     1  UNL1        0.0800
      2  C          4.4260    1.0520    1.8560 C.2     1  UNL1        0.1300
      3  C          4.7570    2.0860    0.7940 C.3     1  UNL1        0.0870
      4  O          3.4400    1.2440    2.5090 O.2     1  UNL1       -0.3000
      5  C          6.7920    0.2400    1.7000 C.3     1  UNL1        0.0430
      6  C          7.3260   -0.0910    0.3770 C.2     1  UNL1       -0.0440
      7  C          7.7310    0.8910   -0.5290 C.2     1  UNL1        0.0080
      8  C          7.4690   -1.4070    0.0010 C.2     1  UNL1        0.0540
      9  C          8.2480    0.5080   -1.7400 C.2     1  UNL1        0.0510
     10  C          8.0010   -1.7700   -1.2450 C.2     1  UNL1        0.1660
     11  C          8.4000   -0.8010   -2.1390 C.2     1  UNL1        0.1650
     12  O          8.2560   -2.9810   -1.8770 O.2     1  UNL1       -0.4540
     13  O          8.8890   -1.4270   -3.2930 O.2     1  UNL1       -0.4540
     14  C          9.2180   -2.7420   -2.8940 C.3     1  UNL1        0.4680
@<TRIPOS>BOND
     1    13    14    1
     2    13    11    1
     3    14    12    1
     4    11     9    2
     5    11    10    1
     6    12    10    1
     7     9     7    1
     8    10     8    2
     9     7     6    2
    10     8     6    1
    11     6     5    1
    12     3     2    1
    13     5     1    1
    14     2     1    1
    15     2     4    2
