@<TRIPOS>MOLECULE
/home/cewinharhar/GITHUB/reincatalyze/data/processed/docking_pred/2023-May-31-1727_sub9_nm5_bs15_s42_ex16_mel10_mts10000_k50_ec075_g099_lra3e-4_lrc3e-3/ff0363d9ee1910d446632d9597fe578fef33cb13_ligand_9.pdbqt
 14 15 0 0 0
SMALL
GASTEIGER

@<TRIPOS>ATOM
      1  C          5.3830    1.7400    0.6090 C.3     1  UNL1        0.0800
      2  C          4.6930    1.0580    1.7190 C.2     1  UNL1        0.1300
      3  C          5.3880   -0.1820    2.2530 C.3     1  UNL1        0.0870
      4  O          3.6600    1.3670    2.2420 O.2     1  UNL1       -0.3000
      5  C          6.8040    1.3850    0.4100 C.3     1  UNL1        0.0430
      6  C          7.0950    0.2450   -0.4640 C.2     1  UNL1       -0.0440
      7  C          6.8650    0.2850   -1.8400 C.2     1  UNL1        0.0080
      8  C          7.6390   -0.9040    0.0610 C.2     1  UNL1        0.0540
      9  C          7.1860   -0.8090   -2.6010 C.2     1  UNL1        0.0510
     10  C          7.9580   -2.0090   -0.7420 C.2     1  UNL1        0.1660
     11  C          7.7300   -1.9700   -2.1000 C.2     1  UNL1        0.1650
     12  O          8.5010   -3.2650   -0.4960 O.2     1  UNL1       -0.4540
     13  O          8.1340   -3.1900   -2.6590 O.2     1  UNL1       -0.4540
     14  C          9.0270   -3.7530   -1.7210 C.3     1  UNL1        0.4680
@<TRIPOS>BOND
     1    13    11    1
     2    13    14    1
     3     9    11    2
     4     9     7    1
     5    11    10    1
     6     7     6    2
     7    14    12    1
     8    10    12    1
     9    10     8    2
    10     6     8    1
    11     6     5    1
    12     5     1    1
    13     1     2    1
    14     2     4    2
    15     2     3    1
