@<TRIPOS>MOLECULE
/home/cewinharhar/GITHUB/reincatalyze/data/processed/docking_pred/2023-May-31-1727_sub9_nm5_bs15_s42_ex16_mel10_mts10000_k50_ec075_g099_lra3e-4_lrc3e-3/ff0363d9ee1910d446632d9597fe578fef33cb13_ligand_9.pdbqt
 14 15 0 0 0
SMALL
GASTEIGER

@<TRIPOS>ATOM
      1  C          6.8360    1.0720    1.3850 C.3     1  UNL1        0.0800
      2  C          5.3710    1.2060    1.4830 C.2     1  UNL1        0.1300
      3  C          4.7350    2.1500    0.4770 C.3     1  UNL1        0.0870
      4  O          4.6330    0.6620    2.2550 O.2     1  UNL1       -0.3000
      5  C          7.4040    1.1200    0.0210 C.3     1  UNL1        0.0430
      6  C          7.6460   -0.1610   -0.6490 C.2     1  UNL1       -0.0440
      7  C          7.6240   -0.2890   -2.0390 C.2     1  UNL1        0.0080
      8  C          7.9340   -1.2820    0.0930 C.2     1  UNL1        0.0540
      9  C          7.8870   -1.5120   -2.5990 C.2     1  UNL1        0.0510
     10  C          8.2000   -2.5230   -0.5070 C.2     1  UNL1        0.1660
     11  C          8.1770   -2.6490   -1.8790 C.2     1  UNL1        0.1650
     12  O          8.5110   -3.7880   -0.0260 O.2     1  UNL1       -0.4540
     13  O          8.4730   -3.9770   -2.2130 O.2     1  UNL1       -0.4540
     14  C          9.1300   -4.5100   -1.0810 C.3     1  UNL1        0.4680
@<TRIPOS>BOND
     1     9     7    1
     2     9    11    2
     3    13    11    1
     4    13    14    1
     5     7     6    2
     6    11    10    1
     7    14    12    1
     8     6     5    1
     9     6     8    1
    10    10    12    1
    11    10     8    2
    12     5     1    1
    13     3     2    1
    14     1     2    1
    15     2     4    2
