MODEL 1
REMARK VINA RESULT:      -7.6      0.000      0.000
REMARK SMILES CC(=O)CCc1ccc2c(c1)OCO2
REMARK SMILES IDX 4 1 2 2 1 3 3 4 5 5 6 6 7 7 11 8 8 9 10 10 9 11 12 12 14 13
REMARK SMILES IDX 13 14
REMARK H PARENT
REMARK Flexibility Score: inf
ROOT
ATOM      1  C   UNL     1       5.638   1.858   1.266  1.00  0.00     0.080 C 
ENDROOT
BRANCH   1   2
ATOM      2  C   UNL     1       5.066   0.724   2.014  1.00  0.00     0.130 C 
ATOM      3  C   UNL     1       5.985  -0.474   2.182  1.00  0.00     0.087 C 
ATOM      4  O   UNL     1       3.973   0.639   2.498  1.00  0.00    -0.300 OA
ENDBRANCH   1   2
BRANCH   1   5
ATOM      5  C   UNL     1       5.620   1.742  -0.208  1.00  0.00     0.043 C 
BRANCH   5   6
ATOM      6  C   UNL     1       6.705   0.982  -0.834  1.00  0.00    -0.044 A 
ATOM      7  C   UNL     1       8.046   1.345  -0.693  1.00  0.00     0.008 A 
ATOM      8  C   UNL     1       6.421  -0.147  -1.567  1.00  0.00     0.054 A 
ATOM      9  C   UNL     1       9.011   0.571  -1.284  1.00  0.00     0.051 A 
ATOM     10  C   UNL     1       7.430  -0.921  -2.161  1.00  0.00     0.166 A 
ATOM     11  C   UNL     1       8.753  -0.562  -2.023  1.00  0.00     0.165 A 
ATOM     12  O   UNL     1       7.441  -2.075  -2.934  1.00  0.00    -0.454 OA
ATOM     13  O   UNL     1       9.545  -1.493  -2.706  1.00  0.00    -0.454 OA
ATOM     14  C   UNL     1       8.738  -2.644  -2.839  1.00  0.00     0.468 C 
ENDBRANCH   5   6
ENDBRANCH   1   5
TORSDOF 3
ENDMDL
MODEL 2
REMARK VINA RESULT:      -6.9      1.092      1.173
REMARK SMILES CC(=O)CCc1ccc2c(c1)OCO2
REMARK SMILES IDX 4 1 2 2 1 3 3 4 5 5 6 6 7 7 11 8 8 9 10 10 9 11 12 12 14 13
REMARK SMILES IDX 13 14
REMARK H PARENT
REMARK Flexibility Score: inf
ROOT
ATOM      1  C   UNL     1       6.237   1.185   0.900  1.00  0.00     0.080 C 
ENDROOT
BRANCH   1   2
ATOM      2  C   UNL     1       5.559   0.369   1.924  1.00  0.00     0.130 C 
ATOM      3  C   UNL     1       6.333  -0.849   2.401  1.00  0.00     0.087 C 
ATOM      4  O   UNL     1       4.483   0.552   2.417  1.00  0.00    -0.300 OA
ENDBRANCH   1   2
BRANCH   1   5
ATOM      5  C   UNL     1       5.892   0.884  -0.505  1.00  0.00     0.043 C 
BRANCH   5   6
ATOM      6  C   UNL     1       6.865   0.111  -1.283  1.00  0.00    -0.044 A 
ATOM      7  C   UNL     1       7.794   0.720  -2.128  1.00  0.00     0.008 A 
ATOM      8  C   UNL     1       6.901  -1.260  -1.173  1.00  0.00     0.054 A 
ATOM      9  C   UNL     1       8.693  -0.064  -2.805  1.00  0.00     0.051 A 
ATOM     10  C   UNL     1       7.833  -2.037  -1.877  1.00  0.00     0.166 A 
ATOM     11  C   UNL     1       8.749  -1.437  -2.712  1.00  0.00     0.165 A 
ATOM     12  O   UNL     1       8.097  -3.399  -1.960  1.00  0.00    -0.454 OA
ATOM     13  O   UNL     1       9.553  -2.429  -3.287  1.00  0.00    -0.454 OA
ATOM     14  C   UNL     1       9.426  -3.551  -2.438  1.00  0.00     0.468 C 
ENDBRANCH   5   6
ENDBRANCH   1   5
TORSDOF 3
ENDMDL
MODEL 3
REMARK VINA RESULT:      -6.8      1.809      2.332
REMARK SMILES CC(=O)CCc1ccc2c(c1)OCO2
REMARK SMILES IDX 4 1 2 2 1 3 3 4 5 5 6 6 7 7 11 8 8 9 10 10 9 11 12 12 14 13
REMARK SMILES IDX 13 14
REMARK H PARENT
REMARK Flexibility Score: inf
ROOT
ATOM      1  C   UNL     1       6.836   1.072   1.385  1.00  0.00     0.080 C 
ENDROOT
BRANCH   1   2
ATOM      2  C   UNL     1       5.371   1.206   1.483  1.00  0.00     0.130 C 
ATOM      3  C   UNL     1       4.735   2.150   0.477  1.00  0.00     0.087 C 
ATOM      4  O   UNL     1       4.633   0.662   2.255  1.00  0.00    -0.300 OA
ENDBRANCH   1   2
BRANCH   1   5
ATOM      5  C   UNL     1       7.404   1.120   0.021  1.00  0.00     0.043 C 
BRANCH   5   6
ATOM      6  C   UNL     1       7.646  -0.161  -0.649  1.00  0.00    -0.044 A 
ATOM      7  C   UNL     1       7.624  -0.289  -2.039  1.00  0.00     0.008 A 
ATOM      8  C   UNL     1       7.934  -1.282   0.093  1.00  0.00     0.054 A 
ATOM      9  C   UNL     1       7.887  -1.512  -2.599  1.00  0.00     0.051 A 
ATOM     10  C   UNL     1       8.200  -2.523  -0.507  1.00  0.00     0.166 A 
ATOM     11  C   UNL     1       8.177  -2.649  -1.879  1.00  0.00     0.165 A 
ATOM     12  O   UNL     1       8.511  -3.788  -0.026  1.00  0.00    -0.454 OA
ATOM     13  O   UNL     1       8.473  -3.977  -2.213  1.00  0.00    -0.454 OA
ATOM     14  C   UNL     1       9.130  -4.510  -1.081  1.00  0.00     0.468 C 
ENDBRANCH   5   6
ENDBRANCH   1   5
TORSDOF 3
ENDMDL
MODEL 4
REMARK VINA RESULT:      -6.7      1.164      1.641
REMARK SMILES CC(=O)CCc1ccc2c(c1)OCO2
REMARK SMILES IDX 4 1 2 2 1 3 3 4 5 5 6 6 7 7 11 8 8 9 10 10 9 11 12 12 14 13
REMARK SMILES IDX 13 14
REMARK H PARENT
REMARK Flexibility Score: inf
ROOT
ATOM      1  C   UNL     1       5.370  -0.076   1.954  1.00  0.00     0.080 C 
ENDROOT
BRANCH   1   2
ATOM      2  C   UNL     1       4.426   1.052   1.856  1.00  0.00     0.130 C 
ATOM      3  C   UNL     1       4.757   2.086   0.794  1.00  0.00     0.087 C 
ATOM      4  O   UNL     1       3.440   1.244   2.509  1.00  0.00    -0.300 OA
ENDBRANCH   1   2
BRANCH   1   5
ATOM      5  C   UNL     1       6.792   0.240   1.700  1.00  0.00     0.043 C 
BRANCH   5   6
ATOM      6  C   UNL     1       7.326  -0.091   0.377  1.00  0.00    -0.044 A 
ATOM      7  C   UNL     1       7.731   0.891  -0.529  1.00  0.00     0.008 A 
ATOM      8  C   UNL     1       7.469  -1.407   0.001  1.00  0.00     0.054 A 
ATOM      9  C   UNL     1       8.248   0.508  -1.740  1.00  0.00     0.051 A 
ATOM     10  C   UNL     1       8.001  -1.770  -1.245  1.00  0.00     0.166 A 
ATOM     11  C   UNL     1       8.400  -0.801  -2.139  1.00  0.00     0.165 A 
ATOM     12  O   UNL     1       8.256  -2.981  -1.877  1.00  0.00    -0.454 OA
ATOM     13  O   UNL     1       8.889  -1.427  -3.293  1.00  0.00    -0.454 OA
ATOM     14  C   UNL     1       9.218  -2.742  -2.894  1.00  0.00     0.468 C 
ENDBRANCH   5   6
ENDBRANCH   1   5
TORSDOF 3
ENDMDL
MODEL 5
REMARK VINA RESULT:      -6.5      1.401      1.746
REMARK SMILES CC(=O)CCc1ccc2c(c1)OCO2
REMARK SMILES IDX 4 1 2 2 1 3 3 4 5 5 6 6 7 7 11 8 8 9 10 10 9 11 12 12 14 13
REMARK SMILES IDX 13 14
REMARK H PARENT
REMARK Flexibility Score: inf
ROOT
ATOM      1  C   UNL     1       5.383   1.740   0.609  1.00  0.00     0.080 C 
ENDROOT
BRANCH   1   2
ATOM      2  C   UNL     1       4.693   1.058   1.719  1.00  0.00     0.130 C 
ATOM      3  C   UNL     1       5.388  -0.182   2.253  1.00  0.00     0.087 C 
ATOM      4  O   UNL     1       3.660   1.367   2.242  1.00  0.00    -0.300 OA
ENDBRANCH   1   2
BRANCH   1   5
ATOM      5  C   UNL     1       6.804   1.385   0.410  1.00  0.00     0.043 C 
BRANCH   5   6
ATOM      6  C   UNL     1       7.095   0.245  -0.464  1.00  0.00    -0.044 A 
ATOM      7  C   UNL     1       6.865   0.285  -1.840  1.00  0.00     0.008 A 
ATOM      8  C   UNL     1       7.639  -0.904   0.061  1.00  0.00     0.054 A 
ATOM      9  C   UNL     1       7.186  -0.809  -2.601  1.00  0.00     0.051 A 
ATOM     10  C   UNL     1       7.958  -2.009  -0.742  1.00  0.00     0.166 A 
ATOM     11  C   UNL     1       7.730  -1.970  -2.100  1.00  0.00     0.165 A 
ATOM     12  O   UNL     1       8.501  -3.265  -0.496  1.00  0.00    -0.454 OA
ATOM     13  O   UNL     1       8.134  -3.190  -2.659  1.00  0.00    -0.454 OA
ATOM     14  C   UNL     1       9.027  -3.753  -1.721  1.00  0.00     0.468 C 
ENDBRANCH   5   6
ENDBRANCH   1   5
TORSDOF 3
ENDMDL
