@<TRIPOS>MOLECULE
/home/cewinharhar/GITHUB/reincatalyze/data/processed/docking_pred/2023-Apr-25-1630_maxeplen5_maxtrainstep200_exh32_gamma099_lrac3e-4_lrcr1e-3/00fabcb6e86abbd64330e8a307762c5d347247e8_ligand_2.pdbqt
 12 12 0 0 0
SMALL
GASTEIGER

@<TRIPOS>ATOM
      1  C          5.0250    1.7870    0.7400 C.3     1  UNL1        0.1270
      2  C          4.4890    1.0930    1.9350 C.2     1  UNL1        0.3030
      3  O          5.1300    0.1820    2.4810 O.2     1  UNL1       -0.2520
      4  O          3.2610    1.4650    2.4460 O.3     1  UNL1       -0.4810
      5  H          2.8200    2.3500    2.2110 H       1  UNL1        0.2960
      6  C          6.5310    1.8520    0.7960 C.3     1  UNL1        0.0470
      7  C          7.1770    1.1060   -0.3010 C.2     1  UNL1       -0.0470
      8  C          8.4970    1.2360   -0.6500 C.2     1  UNL1        0.0040
      9  C          6.4010    0.2260   -1.0170 C.2     1  UNL1        0.0040
     10  C          9.0200    0.4970   -1.6930 C.2     1  UNL1        0.0000
     11  C          6.8980   -0.5130   -2.0500 C.2     1  UNL1        0.0000
     12  C          8.2250   -0.3830   -2.4010 C.2     1  UNL1        0.0000
@<TRIPOS>BOND
     1    12    11    2
     2    12    10    1
     3    11     9    1
     4    10     8    2
     5     9     7    2
     6     8     7    1
     7     7     6    1
     8     1     6    1
     9     1     2    1
    10     2     4    1
    11     2     3    2
    12     5     4    1
