@<TRIPOS>MOLECULE
/home/cewinharhar/GITHUB/reincatalyze/data/processed/docking_pred/2023-Apr-25-1630_maxeplen5_maxtrainstep200_exh32_gamma099_lrac3e-4_lrcr1e-3/00fabcb6e86abbd64330e8a307762c5d347247e8_ligand_2.pdbqt
 12 12 0 0 0
SMALL
GASTEIGER

@<TRIPOS>ATOM
      1  C          8.3820   -0.6650   -2.0900 C.3     1  UNL1        0.1270
      2  C          8.3580   -1.9120   -2.8900 C.2     1  UNL1        0.3030
      3  O          7.2820   -2.4080   -3.2590 O.2     1  UNL1       -0.2520
      4  O          9.5470   -2.5290   -3.2290 O.3     1  UNL1       -0.4810
      5  H          9.9410   -2.4720   -4.1640 H       1  UNL1        0.2960
      6  C          7.0310    0.0050   -2.1100 C.3     1  UNL1        0.0470
      7  C          6.4540    0.1690   -0.7620 C.2     1  UNL1       -0.0470
      8  C          5.7780    1.2860   -0.3420 C.2     1  UNL1        0.0040
      9  C          6.6080   -0.8670    0.1280 C.2     1  UNL1        0.0040
     10  C          5.2710    1.3550    0.9410 C.2     1  UNL1        0.0000
     11  C          6.1150   -0.8190    1.3990 C.2     1  UNL1        0.0000
     12  C          5.4350    0.3040    1.8210 C.2     1  UNL1        0.0000
@<TRIPOS>BOND
     1     5     4    1
     2     3     2    2
     3     4     2    1
     4     2     1    1
     5     6     1    1
     6     6     7    1
     7     7     8    2
     8     7     9    1
     9     8    10    1
    10     9    11    2
    11    10    12    2
    12    11    12    1
