MODEL 1
REMARK VINA RESULT:      -7.3      0.000      0.000
REMARK SMILES O=C(O)CCc1ccccc1
REMARK SMILES IDX 4 1 2 2 1 3 3 4 5 6 6 7 7 8 11 9 8 10 10 11 9 12
REMARK H PARENT 3 5
REMARK Flexibility Score: inf
ROOT
ATOM      1  C   UNL     1       8.431  -0.593  -2.242  1.00  0.00     0.127 C 
ENDROOT
BRANCH   1   2
ATOM      2  C   UNL     1       8.478  -1.899  -2.942  1.00  0.00     0.303 C 
ATOM      3  O   UNL     1       9.554  -2.497  -3.099  1.00  0.00    -0.252 OA
BRANCH   2   4
ATOM      4  O   UNL     1       7.310  -2.456  -3.426  1.00  0.00    -0.481 OA
ATOM      5  H   UNL     1       6.530  -2.693  -2.819  1.00  0.00     0.296 HD
ENDBRANCH   2   4
ENDBRANCH   1   2
BRANCH   1   6
ATOM      6  C   UNL     1       7.017  -0.073  -2.185  1.00  0.00     0.047 C 
BRANCH   6   7
ATOM      7  C   UNL     1       6.499   0.029  -0.807  1.00  0.00    -0.047 A 
ATOM      8  C   UNL     1       6.598  -0.968   0.130  1.00  0.00     0.004 A 
ATOM      9  C   UNL     1       5.877   1.200  -0.444  1.00  0.00     0.004 A 
ATOM     10  C   UNL     1       6.084  -0.787   1.400  1.00  0.00     0.000 A 
ATOM     11  C   UNL     1       5.363   1.398   0.803  1.00  0.00     0.000 A 
ATOM     12  C   UNL     1       5.463   0.397   1.745  1.00  0.00     0.000 A 
ENDBRANCH   6   7
ENDBRANCH   1   6
TORSDOF 4
ENDMDL
MODEL 2
REMARK VINA RESULT:      -7.3      0.140      1.725
REMARK SMILES O=C(O)CCc1ccccc1
REMARK SMILES IDX 4 1 2 2 1 3 3 4 5 6 6 7 7 8 11 9 8 10 10 11 9 12
REMARK H PARENT 3 5
REMARK Flexibility Score: inf
ROOT
ATOM      1  C   UNL     1       8.382  -0.665  -2.090  1.00  0.00     0.127 C 
ENDROOT
BRANCH   1   2
ATOM      2  C   UNL     1       8.358  -1.912  -2.890  1.00  0.00     0.303 C 
ATOM      3  O   UNL     1       7.282  -2.408  -3.259  1.00  0.00    -0.252 OA
BRANCH   2   4
ATOM      4  O   UNL     1       9.547  -2.529  -3.229  1.00  0.00    -0.481 OA
ATOM      5  H   UNL     1       9.941  -2.472  -4.164  1.00  0.00     0.296 HD
ENDBRANCH   2   4
ENDBRANCH   1   2
BRANCH   1   6
ATOM      6  C   UNL     1       7.031   0.005  -2.110  1.00  0.00     0.047 C 
BRANCH   6   7
ATOM      7  C   UNL     1       6.454   0.169  -0.762  1.00  0.00    -0.047 A 
ATOM      8  C   UNL     1       5.778   1.286  -0.342  1.00  0.00     0.004 A 
ATOM      9  C   UNL     1       6.608  -0.867   0.128  1.00  0.00     0.004 A 
ATOM     10  C   UNL     1       5.271   1.355   0.941  1.00  0.00     0.000 A 
ATOM     11  C   UNL     1       6.115  -0.819   1.399  1.00  0.00     0.000 A 
ATOM     12  C   UNL     1       5.435   0.304   1.821  1.00  0.00     0.000 A 
ENDBRANCH   6   7
ENDBRANCH   1   6
TORSDOF 4
ENDMDL
MODEL 3
REMARK VINA RESULT:      -6.8      3.375      5.059
REMARK SMILES O=C(O)CCc1ccccc1
REMARK SMILES IDX 4 1 2 2 1 3 3 4 5 6 6 7 7 8 11 9 8 10 10 11 9 12
REMARK H PARENT 3 5
REMARK Flexibility Score: inf
ROOT
ATOM      1  C   UNL     1       4.991   1.782   0.718  1.00  0.00     0.127 C 
ENDROOT
BRANCH   1   2
ATOM      2  C   UNL     1       4.480   1.093   1.927  1.00  0.00     0.303 C 
ATOM      3  O   UNL     1       5.137   0.192   2.470  1.00  0.00    -0.252 OA
BRANCH   2   4
ATOM      4  O   UNL     1       3.256   1.459   2.455  1.00  0.00    -0.481 OA
ATOM      5  H   UNL     1       2.417   0.903   2.319  1.00  0.00     0.296 HD
ENDBRANCH   2   4
ENDBRANCH   1   2
BRANCH   1   6
ATOM      6  C   UNL     1       6.499   1.817   0.726  1.00  0.00     0.047 C 
BRANCH   6   7
ATOM      7  C   UNL     1       7.096   1.013  -0.357  1.00  0.00    -0.047 A 
ATOM      8  C   UNL     1       6.415   0.071  -1.085  1.00  0.00     0.004 A 
ATOM      9  C   UNL     1       8.422   1.226  -0.652  1.00  0.00     0.004 A 
ATOM     10  C   UNL     1       7.055  -0.638  -2.083  1.00  0.00     0.000 A 
ATOM     11  C   UNL     1       9.072   0.536  -1.633  1.00  0.00     0.000 A 
ATOM     12  C   UNL     1       8.388  -0.410  -2.365  1.00  0.00     0.000 A 
ENDBRANCH   6   7
ENDBRANCH   1   6
TORSDOF 4
ENDMDL
MODEL 4
REMARK VINA RESULT:      -6.8      3.379      5.078
REMARK SMILES O=C(O)CCc1ccccc1
REMARK SMILES IDX 4 1 2 2 1 3 3 4 5 6 6 7 7 8 11 9 8 10 10 11 9 12
REMARK H PARENT 3 5
REMARK Flexibility Score: inf
ROOT
ATOM      1  C   UNL     1       5.025   1.787   0.740  1.00  0.00     0.127 C 
ENDROOT
BRANCH   1   2
ATOM      2  C   UNL     1       4.489   1.093   1.935  1.00  0.00     0.303 C 
ATOM      3  O   UNL     1       5.130   0.182   2.481  1.00  0.00    -0.252 OA
BRANCH   2   4
ATOM      4  O   UNL     1       3.261   1.465   2.446  1.00  0.00    -0.481 OA
ATOM      5  H   UNL     1       2.820   2.350   2.211  1.00  0.00     0.296 HD
ENDBRANCH   2   4
ENDBRANCH   1   2
BRANCH   1   6
ATOM      6  C   UNL     1       6.531   1.852   0.796  1.00  0.00     0.047 C 
BRANCH   6   7
ATOM      7  C   UNL     1       7.177   1.106  -0.301  1.00  0.00    -0.047 A 
ATOM      8  C   UNL     1       8.497   1.236  -0.650  1.00  0.00     0.004 A 
ATOM      9  C   UNL     1       6.401   0.226  -1.017  1.00  0.00     0.004 A 
ATOM     10  C   UNL     1       9.020   0.497  -1.693  1.00  0.00     0.000 A 
ATOM     11  C   UNL     1       6.898  -0.513  -2.050  1.00  0.00     0.000 A 
ATOM     12  C   UNL     1       8.225  -0.383  -2.401  1.00  0.00     0.000 A 
ENDBRANCH   6   7
ENDBRANCH   1   6
TORSDOF 4
ENDMDL
MODEL 5
REMARK VINA RESULT:      -6.7      3.842      4.992
REMARK SMILES O=C(O)CCc1ccccc1
REMARK SMILES IDX 4 1 2 2 1 3 3 4 5 6 6 7 7 8 11 9 8 10 10 11 9 12
REMARK H PARENT 3 5
REMARK Flexibility Score: inf
ROOT
ATOM      1  C   UNL     1       5.485   2.918   0.028  1.00  0.00     0.127 C 
ENDROOT
BRANCH   1   2
ATOM      2  C   UNL     1       6.282   3.881   0.823  1.00  0.00     0.303 C 
ATOM      3  O   UNL     1       6.939   4.775   0.267  1.00  0.00    -0.252 OA
BRANCH   2   4
ATOM      4  O   UNL     1       6.295   3.783   2.201  1.00  0.00    -0.481 OA
ATOM      5  H   UNL     1       5.569   3.294   2.718  1.00  0.00     0.296 HD
ENDBRANCH   2   4
ENDBRANCH   1   2
BRANCH   1   6
ATOM      6  C   UNL     1       4.916   1.840   0.916  1.00  0.00     0.047 C 
BRANCH   6   7
ATOM      7  C   UNL     1       5.718   0.601   0.899  1.00  0.00    -0.047 A 
ATOM      8  C   UNL     1       6.401   0.139  -0.197  1.00  0.00     0.004 A 
ATOM      9  C   UNL     1       5.780  -0.134   2.059  1.00  0.00     0.004 A 
ATOM     10  C   UNL     1       7.128  -1.034  -0.124  1.00  0.00     0.000 A 
ATOM     11  C   UNL     1       6.491  -1.294   2.151  1.00  0.00     0.000 A 
ATOM     12  C   UNL     1       7.178  -1.759   1.050  1.00  0.00     0.000 A 
ENDBRANCH   6   7
ENDBRANCH   1   6
TORSDOF 4
ENDMDL
