@<TRIPOS>MOLECULE
/home/cewinharhar/GITHUB/reincatalyze/data/processed/docking_pred/2023-Apr-25-1630_maxeplen5_maxtrainstep200_exh32_gamma099_lrac3e-4_lrcr1e-3/00fabcb6e86abbd64330e8a307762c5d347247e8_ligand_2.pdbqt
 12 12 0 0 0
SMALL
GASTEIGER

@<TRIPOS>ATOM
      1  C          4.9910    1.7820    0.7180 C.3     1  UNL1        0.1270
      2  C          4.4800    1.0930    1.9270 C.2     1  UNL1        0.3030
      3  O          5.1370    0.1920    2.4700 O.2     1  UNL1       -0.2520
      4  O          3.2560    1.4590    2.4550 O.3     1  UNL1       -0.4810
      5  H          2.4170    0.9030    2.3190 H       1  UNL1        0.2960
      6  C          6.4990    1.8170    0.7260 C.3     1  UNL1        0.0470
      7  C          7.0960    1.0130   -0.3570 C.2     1  UNL1       -0.0470
      8  C          6.4150    0.0710   -1.0850 C.2     1  UNL1        0.0040
      9  C          8.4220    1.2260   -0.6520 C.2     1  UNL1        0.0040
     10  C          7.0550   -0.6380   -2.0830 C.2     1  UNL1        0.0000
     11  C          9.0720    0.5360   -1.6330 C.2     1  UNL1        0.0000
     12  C          8.3880   -0.4100   -2.3650 C.2     1  UNL1        0.0000
@<TRIPOS>BOND
     1    12    10    2
     2    12    11    1
     3    10     8    1
     4    11     9    2
     5     8     7    2
     6     9     7    1
     7     7     6    1
     8     1     6    1
     9     1     2    1
    10     2     4    1
    11     2     3    2
    12     5     4    1
