@<TRIPOS>MOLECULE
/home/cewinharhar/GITHUB/reincatalyze/data/processed/docking_pred/2023-Apr-25-1630_maxeplen5_maxtrainstep200_exh32_gamma099_lrac3e-4_lrcr1e-3/00fabcb6e86abbd64330e8a307762c5d347247e8_ligand_2.pdbqt
 12 12 0 0 0
SMALL
GASTEIGER

@<TRIPOS>ATOM
      1  C          5.4850    2.9180    0.0280 C.3     1  UNL1        0.1270
      2  C          6.2820    3.8810    0.8230 C.2     1  UNL1        0.3030
      3  O          6.9390    4.7750    0.2670 O.2     1  UNL1       -0.2520
      4  O          6.2950    3.7830    2.2010 O.3     1  UNL1       -0.4810
      5  H          5.5690    3.2940    2.7180 H       1  UNL1        0.2960
      6  C          4.9160    1.8400    0.9160 C.3     1  UNL1        0.0470
      7  C          5.7180    0.6010    0.8990 C.2     1  UNL1       -0.0470
      8  C          6.4010    0.1390   -0.1970 C.2     1  UNL1        0.0040
      9  C          5.7800   -0.1340    2.0590 C.2     1  UNL1        0.0040
     10  C          7.1280   -1.0340   -0.1240 C.2     1  UNL1        0.0000
     11  C          6.4910   -1.2940    2.1510 C.2     1  UNL1        0.0000
     12  C          7.1780   -1.7590    1.0500 C.2     1  UNL1        0.0000
@<TRIPOS>BOND
     1     8    10    1
     2     8     7    2
     3    10    12    2
     4     1     2    1
     5     1     6    1
     6     3     2    2
     7     2     4    1
     8     7     6    1
     9     7     9    1
    10    12    11    1
    11     9    11    2
    12     4     5    1
