@<TRIPOS>MOLECULE
/home/cewinharhar/GITHUB/reincatalyze/data/processed/docking_pred/2023-Apr-25-1630_maxeplen5_maxtrainstep200_exh32_gamma099_lrac3e-4_lrcr1e-3/00fabcb6e86abbd64330e8a307762c5d347247e8_ligand_2.pdbqt
 12 12 0 0 0
SMALL
GASTEIGER

@<TRIPOS>ATOM
      1  C          8.4310   -0.5930   -2.2420 C.3     1  UNL1        0.1270
      2  C          8.4780   -1.8990   -2.9420 C.2     1  UNL1        0.3030
      3  O          9.5540   -2.4970   -3.0990 O.2     1  UNL1       -0.2520
      4  O          7.3100   -2.4560   -3.4260 O.3     1  UNL1       -0.4810
      5  H          6.5300   -2.6930   -2.8190 H       1  UNL1        0.2960
      6  C          7.0170   -0.0730   -2.1850 C.3     1  UNL1        0.0470
      7  C          6.4990    0.0290   -0.8070 C.2     1  UNL1       -0.0470
      8  C          6.5980   -0.9680    0.1300 C.2     1  UNL1        0.0040
      9  C          5.8770    1.2000   -0.4440 C.2     1  UNL1        0.0040
     10  C          6.0840   -0.7870    1.4000 C.2     1  UNL1        0.0000
     11  C          5.3630    1.3980    0.8030 C.2     1  UNL1        0.0000
     12  C          5.4630    0.3970    1.7450 C.2     1  UNL1        0.0000
@<TRIPOS>BOND
     1     4     2    1
     2     4     5    1
     3     3     2    2
     4     2     1    1
     5     1     6    1
     6     6     7    1
     7     7     9    2
     8     7     8    1
     9     9    11    1
    10     8    10    2
    11    11    12    2
    12    10    12    1
