@<TRIPOS>MOLECULE
/home/cewinharhar/GITHUB/reincatalyze/data/processed/docking_pred/2023-Apr-25-1630_maxeplen5_maxtrainstep200_exh32_gamma099_lrac3e-4_lrcr1e-3/01f25cbd7413d58f388abe94d9cfceb48e05f66f_ligand_2.pdbqt
 12 12 0 0 0
SMALL
GASTEIGER

@<TRIPOS>ATOM
      1  C          5.0630    1.6910    0.6970 C.3     1  UNL1        0.1270
      2  C          4.6050    1.0170    1.9350 C.2     1  UNL1        0.3030
      3  O          5.3170    0.1720    2.4990 O.2     1  UNL1       -0.2520
      4  O          3.3700    1.3340    2.4670 O.3     1  UNL1       -0.4810
      5  H          2.5590    0.7320    2.3530 H       1  UNL1        0.2960
      6  C          6.5640    1.8430    0.7010 C.3     1  UNL1        0.0470
      7  C          7.2210    1.0670   -0.3690 C.2     1  UNL1       -0.0470
      8  C          8.5490    1.1700   -0.6930 C.2     1  UNL1        0.0040
      9  C          6.4460    0.1850   -1.0840 C.2     1  UNL1        0.0040
     10  C          9.0810    0.4040   -1.7120 C.2     1  UNL1        0.0000
     11  C          6.9520   -0.5800   -2.0930 C.2     1  UNL1        0.0000
     12  C          8.2870   -0.4770   -2.4190 C.2     1  UNL1        0.0000
@<TRIPOS>BOND
     1    12    11    2
     2    12    10    1
     3    11     9    1
     4    10     8    2
     5     9     7    2
     6     8     7    1
     7     7     6    1
     8     1     6    1
     9     1     2    1
    10     2     4    1
    11     2     3    2
    12     5     4    1
