@<TRIPOS>MOLECULE
/home/cewinharhar/GITHUB/reincatalyze/data/processed/docking_pred/2023-Apr-25-1630_maxeplen5_maxtrainstep200_exh32_gamma099_lrac3e-4_lrcr1e-3/01f25cbd7413d58f388abe94d9cfceb48e05f66f_ligand_2.pdbqt
 12 12 0 0 0
SMALL
GASTEIGER

@<TRIPOS>ATOM
      1  C          8.2630   -1.0330   -1.7470 C.3     1  UNL1        0.1270
      2  C          8.4070   -2.0430   -2.8220 C.2     1  UNL1        0.3030
      3  O          9.5270   -2.4640   -3.1520 O.2     1  UNL1       -0.2520
      4  O          7.2820   -2.5200   -3.4650 O.3     1  UNL1       -0.4810
      5  H          6.8070   -1.9940   -4.1930 H       1  UNL1        0.2960
      6  C          7.3070   -1.5200   -0.6870 C.3     1  UNL1        0.0470
      7  C          6.5210   -0.4280   -0.0800 C.2     1  UNL1       -0.0470
      8  C          6.0620   -0.4330    1.2120 C.2     1  UNL1        0.0040
      9  C          6.2310    0.6610   -0.8670 C.2     1  UNL1        0.0040
     10  C          5.3300    0.6330    1.6980 C.2     1  UNL1        0.0000
     11  C          5.5100    1.7240   -0.4060 C.2     1  UNL1        0.0000
     12  C          5.0490    1.7190    0.8930 C.2     1  UNL1        0.0000
@<TRIPOS>BOND
     1     5     4    1
     2     4     2    1
     3     3     2    2
     4     2     1    1
     5     1     6    1
     6     9    11    1
     7     9     7    2
     8     6     7    1
     9    11    12    2
    10     7     8    1
    11    12    10    1
    12     8    10    2
