@<TRIPOS>MOLECULE
/home/cewinharhar/GITHUB/reincatalyze/data/processed/docking_pred/2023-Apr-25-1630_maxeplen5_maxtrainstep200_exh32_gamma099_lrac3e-4_lrcr1e-3/01f25cbd7413d58f388abe94d9cfceb48e05f66f_ligand_2.pdbqt
 12 12 0 0 0
SMALL
GASTEIGER

@<TRIPOS>ATOM
      1  C          8.2780    0.2220   -2.2110 C.3     1  UNL1        0.1270
      2  C          9.3970    0.3540   -1.2480 C.2     1  UNL1        0.3030
      3  O          9.4670   -0.3820   -0.2510 O.2     1  UNL1       -0.2520
      4  O         10.3730    1.3080   -1.4610 O.3     1  UNL1       -0.4810
      5  H         10.9170    1.3460   -2.3190 H       1  UNL1        0.2960
      6  C          7.1210   -0.5120   -1.5820 C.3     1  UNL1        0.0470
      7  C          6.3330    0.3370   -0.6680 C.2     1  UNL1       -0.0470
      8  C          5.7940    1.5500   -1.0140 C.2     1  UNL1        0.0040
      9  C          6.1300   -0.1210    0.6120 C.2     1  UNL1        0.0040
     10  C          5.0690    2.2800   -0.0920 C.2     1  UNL1        0.0000
     11  C          5.4180    0.5850    1.5360 C.2     1  UNL1        0.0000
     12  C          4.8750    1.8040    1.1890 C.2     1  UNL1        0.0000
@<TRIPOS>BOND
     1     5     4    1
     2     1     6    1
     3     1     2    1
     4     6     7    1
     5     4     2    1
     6     2     3    2
     7     8     7    2
     8     8    10    1
     9     7     9    1
    10    10    12    2
    11     9    11    2
    12    12    11    1
