@<TRIPOS>MOLECULE
/home/cewinharhar/GITHUB/reincatalyze/data/processed/docking_pred/2023-Apr-25-1630_maxeplen5_maxtrainstep200_exh32_gamma099_lrac3e-4_lrcr1e-3/01f25cbd7413d58f388abe94d9cfceb48e05f66f_ligand_2.pdbqt
 12 12 0 0 0
SMALL
GASTEIGER

@<TRIPOS>ATOM
      1  C          8.4170   -0.6270   -2.1450 C.3     1  UNL1        0.1270
      2  C          8.4820   -1.8970   -2.9070 C.2     1  UNL1        0.3030
      3  O          9.5650   -2.4760   -3.0850 O.2     1  UNL1       -0.2520
      4  O          7.3230   -2.4420   -3.4250 O.3     1  UNL1       -0.4810
      5  H          6.8240   -2.0190   -4.2030 H       1  UNL1        0.2960
      6  C          7.0140   -0.0740   -2.1560 C.3     1  UNL1        0.0470
      7  C          6.4620    0.1120   -0.8000 C.2     1  UNL1       -0.0470
      8  C          5.8250    1.2500   -0.3750 C.2     1  UNL1        0.0040
      9  C          6.5990   -0.9260    0.0910 C.2     1  UNL1        0.0040
     10  C          5.3390    1.3380    0.9150 C.2     1  UNL1        0.0000
     11  C          6.1270   -0.8580    1.3690 C.2     1  UNL1        0.0000
     12  C          5.4860    0.2850    1.7960 C.2     1  UNL1        0.0000
@<TRIPOS>BOND
     1     5     4    1
     2     4     2    1
     3     3     2    2
     4     2     1    1
     5     6     1    1
     6     6     7    1
     7     7     8    2
     8     7     9    1
     9     8    10    1
    10     9    11    2
    11    10    12    2
    12    11    12    1
