MODEL 1
REMARK VINA RESULT:      -7.3      0.000      0.000
REMARK SMILES O=C(O)CCc1ccccc1
REMARK SMILES IDX 4 1 2 2 1 3 3 4 5 6 6 7 7 8 11 9 8 10 10 11 9 12
REMARK H PARENT 3 5
REMARK Flexibility Score: inf
ROOT
ATOM      1  C   UNL     1       8.439  -0.615  -2.183  1.00  0.00     0.127 C 
ENDROOT
BRANCH   1   2
ATOM      2  C   UNL     1       8.473  -1.902  -2.917  1.00  0.00     0.303 C 
ATOM      3  O   UNL     1       9.542  -2.506  -3.093  1.00  0.00    -0.252 OA
BRANCH   2   4
ATOM      4  O   UNL     1       7.298  -2.435  -3.413  1.00  0.00    -0.481 OA
ATOM      5  H   UNL     1       6.528  -1.853  -3.729  1.00  0.00     0.296 HD
ENDBRANCH   2   4
ENDBRANCH   1   2
BRANCH   1   6
ATOM      6  C   UNL     1       7.031  -0.080  -2.116  1.00  0.00     0.047 C 
BRANCH   6   7
ATOM      7  C   UNL     1       6.509  -0.012  -0.737  1.00  0.00    -0.047 A 
ATOM      8  C   UNL     1       6.631  -1.020   0.185  1.00  0.00     0.004 A 
ATOM      9  C   UNL     1       5.858   1.138  -0.358  1.00  0.00     0.004 A 
ATOM     10  C   UNL     1       6.111  -0.871   1.456  1.00  0.00     0.000 A 
ATOM     11  C   UNL     1       5.337   1.304   0.891  1.00  0.00     0.000 A 
ATOM     12  C   UNL     1       5.460   0.292   1.819  1.00  0.00     0.000 A 
ENDBRANCH   6   7
ENDBRANCH   1   6
TORSDOF 4
ENDMDL
MODEL 2
REMARK VINA RESULT:      -7.3      0.081      1.428
REMARK SMILES O=C(O)CCc1ccccc1
REMARK SMILES IDX 4 1 2 2 1 3 3 4 5 6 6 7 7 8 11 9 8 10 10 11 9 12
REMARK H PARENT 3 5
REMARK Flexibility Score: inf
ROOT
ATOM      1  C   UNL     1       8.417  -0.627  -2.145  1.00  0.00     0.127 C 
ENDROOT
BRANCH   1   2
ATOM      2  C   UNL     1       8.482  -1.897  -2.907  1.00  0.00     0.303 C 
ATOM      3  O   UNL     1       9.565  -2.476  -3.085  1.00  0.00    -0.252 OA
BRANCH   2   4
ATOM      4  O   UNL     1       7.323  -2.442  -3.425  1.00  0.00    -0.481 OA
ATOM      5  H   UNL     1       6.824  -2.019  -4.203  1.00  0.00     0.296 HD
ENDBRANCH   2   4
ENDBRANCH   1   2
BRANCH   1   6
ATOM      6  C   UNL     1       7.014  -0.074  -2.156  1.00  0.00     0.047 C 
BRANCH   6   7
ATOM      7  C   UNL     1       6.462   0.112  -0.800  1.00  0.00    -0.047 A 
ATOM      8  C   UNL     1       5.825   1.250  -0.375  1.00  0.00     0.004 A 
ATOM      9  C   UNL     1       6.599  -0.926   0.091  1.00  0.00     0.004 A 
ATOM     10  C   UNL     1       5.339   1.338   0.915  1.00  0.00     0.000 A 
ATOM     11  C   UNL     1       6.127  -0.858   1.369  1.00  0.00     0.000 A 
ATOM     12  C   UNL     1       5.486   0.285   1.796  1.00  0.00     0.000 A 
ENDBRANCH   6   7
ENDBRANCH   1   6
TORSDOF 4
ENDMDL
MODEL 3
REMARK VINA RESULT:      -7.2      0.682      1.186
REMARK SMILES O=C(O)CCc1ccccc1
REMARK SMILES IDX 4 1 2 2 1 3 3 4 5 6 6 7 7 8 11 9 8 10 10 11 9 12
REMARK H PARENT 3 5
REMARK Flexibility Score: inf
ROOT
ATOM      1  C   UNL     1       8.263  -1.033  -1.747  1.00  0.00     0.127 C 
ENDROOT
BRANCH   1   2
ATOM      2  C   UNL     1       8.407  -2.043  -2.822  1.00  0.00     0.303 C 
ATOM      3  O   UNL     1       9.527  -2.464  -3.152  1.00  0.00    -0.252 OA
BRANCH   2   4
ATOM      4  O   UNL     1       7.282  -2.520  -3.465  1.00  0.00    -0.481 OA
ATOM      5  H   UNL     1       6.807  -1.994  -4.193  1.00  0.00     0.296 HD
ENDBRANCH   2   4
ENDBRANCH   1   2
BRANCH   1   6
ATOM      6  C   UNL     1       7.307  -1.520  -0.687  1.00  0.00     0.047 C 
BRANCH   6   7
ATOM      7  C   UNL     1       6.521  -0.428  -0.080  1.00  0.00    -0.047 A 
ATOM      8  C   UNL     1       6.062  -0.433   1.212  1.00  0.00     0.004 A 
ATOM      9  C   UNL     1       6.231   0.661  -0.867  1.00  0.00     0.004 A 
ATOM     10  C   UNL     1       5.330   0.633   1.698  1.00  0.00     0.000 A 
ATOM     11  C   UNL     1       5.510   1.724  -0.406  1.00  0.00     0.000 A 
ATOM     12  C   UNL     1       5.049   1.719   0.893  1.00  0.00     0.000 A 
ENDBRANCH   6   7
ENDBRANCH   1   6
TORSDOF 4
ENDMDL
MODEL 4
REMARK VINA RESULT:      -6.7      3.340      5.039
REMARK SMILES O=C(O)CCc1ccccc1
REMARK SMILES IDX 4 1 2 2 1 3 3 4 5 6 6 7 7 8 11 9 8 10 10 11 9 12
REMARK H PARENT 3 5
REMARK Flexibility Score: inf
ROOT
ATOM      1  C   UNL     1       5.063   1.691   0.697  1.00  0.00     0.127 C 
ENDROOT
BRANCH   1   2
ATOM      2  C   UNL     1       4.605   1.017   1.935  1.00  0.00     0.303 C 
ATOM      3  O   UNL     1       5.317   0.172   2.499  1.00  0.00    -0.252 OA
BRANCH   2   4
ATOM      4  O   UNL     1       3.370   1.334   2.467  1.00  0.00    -0.481 OA
ATOM      5  H   UNL     1       2.559   0.732   2.353  1.00  0.00     0.296 HD
ENDBRANCH   2   4
ENDBRANCH   1   2
BRANCH   1   6
ATOM      6  C   UNL     1       6.564   1.843   0.701  1.00  0.00     0.047 C 
BRANCH   6   7
ATOM      7  C   UNL     1       7.221   1.067  -0.369  1.00  0.00    -0.047 A 
ATOM      8  C   UNL     1       8.549   1.170  -0.693  1.00  0.00     0.004 A 
ATOM      9  C   UNL     1       6.446   0.185  -1.084  1.00  0.00     0.004 A 
ATOM     10  C   UNL     1       9.081   0.404  -1.712  1.00  0.00     0.000 A 
ATOM     11  C   UNL     1       6.952  -0.580  -2.093  1.00  0.00     0.000 A 
ATOM     12  C   UNL     1       8.287  -0.477  -2.419  1.00  0.00     0.000 A 
ENDBRANCH   6   7
ENDBRANCH   1   6
TORSDOF 4
ENDMDL
MODEL 5
REMARK VINA RESULT:      -6.7      1.949      2.675
REMARK SMILES O=C(O)CCc1ccccc1
REMARK SMILES IDX 4 1 2 2 1 3 3 4 5 6 6 7 7 8 11 9 8 10 10 11 9 12
REMARK H PARENT 3 5
REMARK Flexibility Score: inf
ROOT
ATOM      1  C   UNL     1       8.278   0.222  -2.211  1.00  0.00     0.127 C 
ENDROOT
BRANCH   1   2
ATOM      2  C   UNL     1       9.397   0.354  -1.248  1.00  0.00     0.303 C 
ATOM      3  O   UNL     1       9.467  -0.382  -0.251  1.00  0.00    -0.252 OA
BRANCH   2   4
ATOM      4  O   UNL     1      10.373   1.308  -1.461  1.00  0.00    -0.481 OA
ATOM      5  H   UNL     1      10.917   1.346  -2.319  1.00  0.00     0.296 HD
ENDBRANCH   2   4
ENDBRANCH   1   2
BRANCH   1   6
ATOM      6  C   UNL     1       7.121  -0.512  -1.582  1.00  0.00     0.047 C 
BRANCH   6   7
ATOM      7  C   UNL     1       6.333   0.337  -0.668  1.00  0.00    -0.047 A 
ATOM      8  C   UNL     1       5.794   1.550  -1.014  1.00  0.00     0.004 A 
ATOM      9  C   UNL     1       6.130  -0.121   0.612  1.00  0.00     0.004 A 
ATOM     10  C   UNL     1       5.069   2.280  -0.092  1.00  0.00     0.000 A 
ATOM     11  C   UNL     1       5.418   0.585   1.536  1.00  0.00     0.000 A 
ATOM     12  C   UNL     1       4.875   1.804   1.189  1.00  0.00     0.000 A 
ENDBRANCH   6   7
ENDBRANCH   1   6
TORSDOF 4
ENDMDL
