@<TRIPOS>MOLECULE
/home/cewinharhar/GITHUB/reincatalyze/data/processed/docking_pred/2023-Apr-25-1630_maxeplen5_maxtrainstep200_exh32_gamma099_lrac3e-4_lrcr1e-3/034cecc51265c6b10d0b2cc1c9f67b1ec6b5e3be_ligand_2.pdbqt
 12 12 0 0 0
SMALL
GASTEIGER

@<TRIPOS>ATOM
      1  C          8.4300   -0.5670   -2.2510 C.3     1  UNL1        0.1270
      2  C          8.4970   -1.8730   -2.9470 C.2     1  UNL1        0.3030
      3  O          9.5820   -2.4530   -3.1070 O.2     1  UNL1       -0.2520
      4  O          7.3370   -2.4520   -3.4240 O.3     1  UNL1       -0.4810
      5  H          6.5500   -1.9000   -3.7550 H       1  UNL1        0.2960
      6  C          7.0060   -0.0760   -2.1790 C.3     1  UNL1        0.0470
      7  C          6.4960    0.0020   -0.7970 C.2     1  UNL1       -0.0470
      8  C          6.6250   -0.9990    0.1310 C.2     1  UNL1        0.0040
      9  C          5.8490    1.1560   -0.4210 C.2     1  UNL1        0.0040
     10  C          6.1150   -0.8400    1.4050 C.2     1  UNL1        0.0000
     11  C          5.3390    1.3320    0.8310 C.2     1  UNL1        0.0000
     12  C          5.4680    0.3260    1.7650 C.2     1  UNL1        0.0000
@<TRIPOS>BOND
     1     5     4    1
     2     4     2    1
     3     3     2    2
     4     2     1    1
     5     1     6    1
     6     6     7    1
     7     7     9    2
     8     7     8    1
     9     9    11    1
    10     8    10    2
    11    11    12    2
    12    10    12    1
