@<TRIPOS>MOLECULE
/home/cewinharhar/GITHUB/reincatalyze/data/processed/docking_pred/2023-Apr-25-1630_maxeplen5_maxtrainstep200_exh32_gamma099_lrac3e-4_lrcr1e-3/034cecc51265c6b10d0b2cc1c9f67b1ec6b5e3be_ligand_2.pdbqt
 12 12 0 0 0
SMALL
GASTEIGER

@<TRIPOS>ATOM
      1  C          8.3720   -0.6940   -2.0660 C.3     1  UNL1        0.1270
      2  C          8.4430   -1.9220   -2.8930 C.2     1  UNL1        0.3030
      3  O          9.5290   -2.4840   -3.1020 O.2     1  UNL1       -0.2520
      4  O          7.2870   -2.4450   -3.4380 O.3     1  UNL1       -0.4810
      5  H          7.0700   -3.4370   -3.4010 H       1  UNL1        0.2960
      6  C          6.9650   -0.4680   -1.5730 C.3     1  UNL1        0.0470
      7  C          6.8310    0.7610   -0.7680 C.2     1  UNL1       -0.0470
      8  C          7.8700    1.3760   -0.1180 C.2     1  UNL1        0.0040
      9  C          5.5800    1.3220   -0.6650 C.2     1  UNL1        0.0040
     10  C          7.6530    2.5250    0.6170 C.2     1  UNL1        0.0000
     11  C          5.3450    2.4560    0.0550 C.2     1  UNL1        0.0000
     12  C          6.3900    3.0740    0.7080 C.2     1  UNL1        0.0000
@<TRIPOS>BOND
     1     4     5    1
     2     4     2    1
     3     3     2    2
     4     2     1    1
     5     1     6    1
     6     6     7    1
     7     7     9    2
     8     7     8    1
     9     9    11    1
    10     8    10    2
    11    11    12    2
    12    10    12    1
