@<TRIPOS>MOLECULE
/home/cewinharhar/GITHUB/reincatalyze/data/processed/docking_pred/2023-Apr-25-1630_maxeplen5_maxtrainstep200_exh32_gamma099_lrac3e-4_lrcr1e-3/034cecc51265c6b10d0b2cc1c9f67b1ec6b5e3be_ligand_2.pdbqt
 12 12 0 0 0
SMALL
GASTEIGER

@<TRIPOS>ATOM
      1  C          4.9590    1.8390    0.8120 C.3     1  UNL1        0.1270
      2  C          4.4320    1.0930    1.9790 C.2     1  UNL1        0.3030
      3  O          5.0780    0.1620    2.4830 O.2     1  UNL1       -0.2520
      4  O          3.2050    1.4400    2.5120 O.3     1  UNL1       -0.4810
      5  H          2.3270    1.1810    2.0680 H       1  UNL1        0.2960
      6  C          6.4630    1.9370    0.8810 C.3     1  UNL1        0.0470
      7  C          7.1350    1.2160   -0.2170 C.2     1  UNL1       -0.0470
      8  C          6.4850    0.4450   -1.1460 C.2     1  UNL1        0.0040
      9  C          8.5020    1.3260   -0.3090 C.2     1  UNL1        0.0040
     10  C          7.1950   -0.1970   -2.1420 C.2     1  UNL1        0.0000
     11  C          9.2220    0.7000   -1.2830 C.2     1  UNL1        0.0000
     12  C          8.5680   -0.0740   -2.2180 C.2     1  UNL1        0.0000
@<TRIPOS>BOND
     1    12    10    2
     2    12    11    1
     3    10     8    1
     4    11     9    2
     5     8     7    2
     6     9     7    1
     7     7     6    1
     8     1     6    1
     9     1     2    1
    10     2     3    2
    11     2     4    1
    12     5     4    1
