@<TRIPOS>MOLECULE
/home/cewinharhar/GITHUB/reincatalyze/data/processed/docking_pred/2023-Apr-25-1630_maxeplen5_maxtrainstep200_exh32_gamma099_lrac3e-4_lrcr1e-3/034cecc51265c6b10d0b2cc1c9f67b1ec6b5e3be_ligand_2.pdbqt
 12 12 0 0 0
SMALL
GASTEIGER

@<TRIPOS>ATOM
      1  C          8.3730   -0.7500   -2.0030 C.3     1  UNL1        0.1270
      2  C          8.4590   -1.9470   -2.8730 C.2     1  UNL1        0.3030
      3  O          9.5570   -2.4620   -3.1390 O.2     1  UNL1       -0.2520
      4  O          7.3040   -2.4960   -3.3950 O.3     1  UNL1       -0.4810
      5  H          7.3010   -3.0440   -4.2510 H       1  UNL1        0.2960
      6  C          6.9920   -0.1480   -2.0660 C.3     1  UNL1        0.0470
      7  C          6.4110    0.0940   -0.7310 C.2     1  UNL1       -0.0470
      8  C          5.7870    1.2570   -0.3600 C.2     1  UNL1        0.0040
      9  C          6.5070   -0.9150    0.1970 C.2     1  UNL1        0.0040
     10  C          5.2720    1.3980    0.9140 C.2     1  UNL1        0.0000
     11  C          6.0060   -0.7960    1.4600 C.2     1  UNL1        0.0000
     12  C          5.3770    0.3730    1.8330 C.2     1  UNL1        0.0000
@<TRIPOS>BOND
     1     5     4    1
     2     4     2    1
     3     3     2    2
     4     2     1    1
     5     6     1    1
     6     6     7    1
     7     7     8    2
     8     7     9    1
     9     8    10    1
    10     9    11    2
    11    10    12    2
    12    11    12    1
