@<TRIPOS>MOLECULE
/home/cewinharhar/GITHUB/reincatalyze/data/processed/docking_pred/2023-Apr-25-1630_maxeplen5_maxtrainstep200_exh32_gamma099_lrac3e-4_lrcr1e-3/034cecc51265c6b10d0b2cc1c9f67b1ec6b5e3be_ligand_2.pdbqt
 12 12 0 0 0
SMALL
GASTEIGER

@<TRIPOS>ATOM
      1  C          7.9720   -1.2990   -0.2730 C.3     1  UNL1        0.1270
      2  C          7.8780   -2.4190    0.6930 C.2     1  UNL1        0.3030
      3  O          8.7860   -3.2600    0.7810 O.2     1  UNL1       -0.2520
      4  O          6.7660   -2.5270    1.5060 O.3     1  UNL1       -0.4810
      5  H          6.1200   -3.3100    1.4420 H       1  UNL1        0.2960
      6  C          6.6200   -0.6630   -0.4800 C.3     1  UNL1        0.0470
      7  C          6.5910    0.7590   -0.0890 C.2     1  UNL1       -0.0470
      8  C          7.6450    1.4250    0.4820 C.2     1  UNL1        0.0040
      9  C          5.4280    1.4580   -0.3130 C.2     1  UNL1        0.0040
     10  C          7.5290    2.7600    0.8180 C.2     1  UNL1        0.0000
     11  C          5.2930    2.7760    0.0120 C.2     1  UNL1        0.0000
     12  C          6.3530    3.4450    0.5850 C.2     1  UNL1        0.0000
@<TRIPOS>BOND
     1     6     1    1
     2     6     7    1
     3     9     7    2
     4     9    11    1
     5     1     2    1
     6     7     8    1
     7    11    12    2
     8     8    10    2
     9    12    10    1
    10     2     3    2
    11     2     4    1
    12     5     4    1
