MODEL 1
REMARK VINA RESULT:      -7.1      0.000      0.000
REMARK SMILES O=C(O)CCc1ccccc1
REMARK SMILES IDX 4 1 2 2 1 3 3 4 5 6 6 7 7 8 11 9 8 10 10 11 9 12
REMARK H PARENT 3 5
REMARK Flexibility Score: inf
ROOT
ATOM      1  C   UNL     1       8.373  -0.750  -2.003  1.00  0.00     0.127 C 
ENDROOT
BRANCH   1   2
ATOM      2  C   UNL     1       8.459  -1.947  -2.873  1.00  0.00     0.303 C 
ATOM      3  O   UNL     1       9.557  -2.462  -3.139  1.00  0.00    -0.252 OA
BRANCH   2   4
ATOM      4  O   UNL     1       7.304  -2.496  -3.395  1.00  0.00    -0.481 OA
ATOM      5  H   UNL     1       7.301  -3.044  -4.251  1.00  0.00     0.296 HD
ENDBRANCH   2   4
ENDBRANCH   1   2
BRANCH   1   6
ATOM      6  C   UNL     1       6.992  -0.148  -2.066  1.00  0.00     0.047 C 
BRANCH   6   7
ATOM      7  C   UNL     1       6.411   0.094  -0.731  1.00  0.00    -0.047 A 
ATOM      8  C   UNL     1       5.787   1.257  -0.360  1.00  0.00     0.004 A 
ATOM      9  C   UNL     1       6.507  -0.915   0.197  1.00  0.00     0.004 A 
ATOM     10  C   UNL     1       5.272   1.398   0.914  1.00  0.00     0.000 A 
ATOM     11  C   UNL     1       6.006  -0.796   1.460  1.00  0.00     0.000 A 
ATOM     12  C   UNL     1       5.377   0.373   1.833  1.00  0.00     0.000 A 
ENDBRANCH   6   7
ENDBRANCH   1   6
TORSDOF 4
ENDMDL
MODEL 2
REMARK VINA RESULT:      -7.0      0.149      1.434
REMARK SMILES O=C(O)CCc1ccccc1
REMARK SMILES IDX 4 1 2 2 1 3 3 4 5 6 6 7 7 8 11 9 8 10 10 11 9 12
REMARK H PARENT 3 5
REMARK Flexibility Score: inf
ROOT
ATOM      1  C   UNL     1       8.430  -0.567  -2.251  1.00  0.00     0.127 C 
ENDROOT
BRANCH   1   2
ATOM      2  C   UNL     1       8.497  -1.873  -2.947  1.00  0.00     0.303 C 
ATOM      3  O   UNL     1       9.582  -2.453  -3.107  1.00  0.00    -0.252 OA
BRANCH   2   4
ATOM      4  O   UNL     1       7.337  -2.452  -3.424  1.00  0.00    -0.481 OA
ATOM      5  H   UNL     1       6.550  -1.900  -3.755  1.00  0.00     0.296 HD
ENDBRANCH   2   4
ENDBRANCH   1   2
BRANCH   1   6
ATOM      6  C   UNL     1       7.006  -0.076  -2.179  1.00  0.00     0.047 C 
BRANCH   6   7
ATOM      7  C   UNL     1       6.496   0.002  -0.797  1.00  0.00    -0.047 A 
ATOM      8  C   UNL     1       6.625  -0.999   0.131  1.00  0.00     0.004 A 
ATOM      9  C   UNL     1       5.849   1.156  -0.421  1.00  0.00     0.004 A 
ATOM     10  C   UNL     1       6.115  -0.840   1.405  1.00  0.00     0.000 A 
ATOM     11  C   UNL     1       5.339   1.332   0.831  1.00  0.00     0.000 A 
ATOM     12  C   UNL     1       5.468   0.326   1.765  1.00  0.00     0.000 A 
ENDBRANCH   6   7
ENDBRANCH   1   6
TORSDOF 4
ENDMDL
MODEL 3
REMARK VINA RESULT:      -6.7      1.407      1.945
REMARK SMILES O=C(O)CCc1ccccc1
REMARK SMILES IDX 4 1 2 2 1 3 3 4 5 6 6 7 7 8 11 9 8 10 10 11 9 12
REMARK H PARENT 3 5
REMARK Flexibility Score: inf
ROOT
ATOM      1  C   UNL     1       8.372  -0.694  -2.066  1.00  0.00     0.127 C 
ENDROOT
BRANCH   1   2
ATOM      2  C   UNL     1       8.443  -1.922  -2.893  1.00  0.00     0.303 C 
ATOM      3  O   UNL     1       9.529  -2.484  -3.102  1.00  0.00    -0.252 OA
BRANCH   2   4
ATOM      4  O   UNL     1       7.287  -2.445  -3.438  1.00  0.00    -0.481 OA
ATOM      5  H   UNL     1       7.070  -3.437  -3.401  1.00  0.00     0.296 HD
ENDBRANCH   2   4
ENDBRANCH   1   2
BRANCH   1   6
ATOM      6  C   UNL     1       6.965  -0.468  -1.573  1.00  0.00     0.047 C 
BRANCH   6   7
ATOM      7  C   UNL     1       6.831   0.761  -0.768  1.00  0.00    -0.047 A 
ATOM      8  C   UNL     1       7.870   1.376  -0.118  1.00  0.00     0.004 A 
ATOM      9  C   UNL     1       5.580   1.322  -0.665  1.00  0.00     0.004 A 
ATOM     10  C   UNL     1       7.653   2.525   0.617  1.00  0.00     0.000 A 
ATOM     11  C   UNL     1       5.345   2.456   0.055  1.00  0.00     0.000 A 
ATOM     12  C   UNL     1       6.390   3.074   0.708  1.00  0.00     0.000 A 
ENDBRANCH   6   7
ENDBRANCH   1   6
TORSDOF 4
ENDMDL
MODEL 4
REMARK VINA RESULT:      -6.4      3.429      5.134
REMARK SMILES O=C(O)CCc1ccccc1
REMARK SMILES IDX 4 1 2 2 1 3 3 4 5 6 6 7 7 8 11 9 8 10 10 11 9 12
REMARK H PARENT 3 5
REMARK Flexibility Score: inf
ROOT
ATOM      1  C   UNL     1       4.959   1.839   0.812  1.00  0.00     0.127 C 
ENDROOT
BRANCH   1   2
ATOM      2  C   UNL     1       4.432   1.093   1.979  1.00  0.00     0.303 C 
ATOM      3  O   UNL     1       5.078   0.162   2.483  1.00  0.00    -0.252 OA
BRANCH   2   4
ATOM      4  O   UNL     1       3.205   1.440   2.512  1.00  0.00    -0.481 OA
ATOM      5  H   UNL     1       2.327   1.181   2.068  1.00  0.00     0.296 HD
ENDBRANCH   2   4
ENDBRANCH   1   2
BRANCH   1   6
ATOM      6  C   UNL     1       6.463   1.937   0.881  1.00  0.00     0.047 C 
BRANCH   6   7
ATOM      7  C   UNL     1       7.135   1.216  -0.217  1.00  0.00    -0.047 A 
ATOM      8  C   UNL     1       6.485   0.445  -1.146  1.00  0.00     0.004 A 
ATOM      9  C   UNL     1       8.502   1.326  -0.309  1.00  0.00     0.004 A 
ATOM     10  C   UNL     1       7.195  -0.197  -2.142  1.00  0.00     0.000 A 
ATOM     11  C   UNL     1       9.222   0.700  -1.283  1.00  0.00     0.000 A 
ATOM     12  C   UNL     1       8.568  -0.074  -2.218  1.00  0.00     0.000 A 
ENDBRANCH   6   7
ENDBRANCH   1   6
TORSDOF 4
ENDMDL
MODEL 5
REMARK VINA RESULT:      -6.4      2.494      3.118
REMARK SMILES O=C(O)CCc1ccccc1
REMARK SMILES IDX 4 1 2 2 1 3 3 4 5 6 6 7 7 8 11 9 8 10 10 11 9 12
REMARK H PARENT 3 5
REMARK Flexibility Score: inf
ROOT
ATOM      1  C   UNL     1       7.972  -1.299  -0.273  1.00  0.00     0.127 C 
ENDROOT
BRANCH   1   2
ATOM      2  C   UNL     1       7.878  -2.419   0.693  1.00  0.00     0.303 C 
ATOM      3  O   UNL     1       8.786  -3.260   0.781  1.00  0.00    -0.252 OA
BRANCH   2   4
ATOM      4  O   UNL     1       6.766  -2.527   1.506  1.00  0.00    -0.481 OA
ATOM      5  H   UNL     1       6.120  -3.310   1.442  1.00  0.00     0.296 HD
ENDBRANCH   2   4
ENDBRANCH   1   2
BRANCH   1   6
ATOM      6  C   UNL     1       6.620  -0.663  -0.480  1.00  0.00     0.047 C 
BRANCH   6   7
ATOM      7  C   UNL     1       6.591   0.759  -0.089  1.00  0.00    -0.047 A 
ATOM      8  C   UNL     1       7.645   1.425   0.482  1.00  0.00     0.004 A 
ATOM      9  C   UNL     1       5.428   1.458  -0.313  1.00  0.00     0.004 A 
ATOM     10  C   UNL     1       7.529   2.760   0.818  1.00  0.00     0.000 A 
ATOM     11  C   UNL     1       5.293   2.776   0.012  1.00  0.00     0.000 A 
ATOM     12  C   UNL     1       6.353   3.445   0.585  1.00  0.00     0.000 A 
ENDBRANCH   6   7
ENDBRANCH   1   6
TORSDOF 4
ENDMDL
