@<TRIPOS>MOLECULE
/home/cewinharhar/GITHUB/reincatalyze/data/processed/docking_pred/2023-Apr-25-1630_maxeplen5_maxtrainstep200_exh32_gamma099_lrac3e-4_lrcr1e-3/0493ae4577fb245076a56c9e7bbbfc493763ce5a_ligand_2.pdbqt
 12 12 0 0 0
SMALL
GASTEIGER

@<TRIPOS>ATOM
      1  C          8.4070   -0.6740   -2.1000 C.3     1  UNL1        0.1270
      2  C          8.4620   -1.9230   -2.8960 C.2     1  UNL1        0.3030
      3  O          9.5410   -2.5010   -3.0980 O.2     1  UNL1       -0.2520
      4  O          7.2970   -2.4490   -3.4200 O.3     1  UNL1       -0.4810
      5  H          6.4410   -1.9070   -3.4950 H       1  UNL1        0.2960
      6  C          7.0150   -0.0940   -2.1190 C.3     1  UNL1        0.0470
      7  C          6.4580    0.1030   -0.7660 C.2     1  UNL1       -0.0470
      8  C          5.8080    1.2380   -0.3570 C.2     1  UNL1        0.0040
      9  C          6.6050   -0.9220    0.1380 C.2     1  UNL1        0.0040
     10  C          5.3190    1.3380    0.9310 C.2     1  UNL1        0.0000
     11  C          6.1300   -0.8430    1.4140 C.2     1  UNL1        0.0000
     12  C          5.4760    0.2980    1.8260 C.2     1  UNL1        0.0000
@<TRIPOS>BOND
     1     5     4    1
     2     4     2    1
     3     3     2    2
     4     2     1    1
     5     6     1    1
     6     6     7    1
     7     7     8    2
     8     7     9    1
     9     8    10    1
    10     9    11    2
    11    10    12    2
    12    11    12    1
