@<TRIPOS>MOLECULE
/home/cewinharhar/GITHUB/reincatalyze/data/processed/docking_pred/2023-Apr-25-1630_maxeplen5_maxtrainstep200_exh32_gamma099_lrac3e-4_lrcr1e-3/0493ae4577fb245076a56c9e7bbbfc493763ce5a_ligand_2.pdbqt
 12 12 0 0 0
SMALL
GASTEIGER

@<TRIPOS>ATOM
      1  C          8.1950   -1.6580    1.1480 C.3     1  UNL1        0.1270
      2  C          8.5340   -2.8700    0.3650 C.2     1  UNL1        0.3030
      3  O          9.1960   -3.7890    0.8730 O.2     1  UNL1       -0.2520
      4  O          8.1100   -2.9770   -0.9450 O.3     1  UNL1       -0.4810
      5  H          7.2750   -2.5080   -1.2860 H       1  UNL1        0.2960
      6  C          6.7020   -1.5520    1.3380 C.3     1  UNL1        0.0470
      7  C          6.1540   -0.2670    0.8610 C.2     1  UNL1       -0.0470
      8  C          5.3850    0.5750    1.6230 C.2     1  UNL1        0.0040
      9  C          6.4350    0.1040   -0.4320 C.2     1  UNL1        0.0040
     10  C          4.9130    1.7600    1.0930 C.2     1  UNL1        0.0000
     11  C          5.9780    1.2690   -0.9740 C.2     1  UNL1        0.0000
     12  C          5.2060    2.1160   -0.2080 C.2     1  UNL1        0.0000
@<TRIPOS>BOND
     1     5     4    1
     2    11     9    1
     3    11    12    2
     4     4     2    1
     5     9     7    2
     6    12    10    1
     7     2     3    2
     8     2     1    1
     9     7     6    1
    10     7     8    1
    11    10     8    2
    12     1     6    1
