@<TRIPOS>MOLECULE
/home/cewinharhar/GITHUB/reincatalyze/data/processed/docking_pred/2023-Apr-25-1630_maxeplen5_maxtrainstep200_exh32_gamma099_lrac3e-4_lrcr1e-3/0493ae4577fb245076a56c9e7bbbfc493763ce5a_ligand_2.pdbqt
 12 12 0 0 0
SMALL
GASTEIGER

@<TRIPOS>ATOM
      1  C          7.2880   -1.2470   -2.2180 C.3     1  UNL1        0.1270
      2  C          8.7380   -1.3850   -2.4910 C.2     1  UNL1        0.3030
      3  O          9.5500   -0.5620   -2.0430 O.2     1  UNL1       -0.2520
      4  O          9.1900   -2.4440   -3.2550 O.3     1  UNL1       -0.4810
      5  H          8.5810   -3.2030   -3.5470 H       1  UNL1        0.2960
      6  C          6.9330    0.1960   -1.9560 C.3     1  UNL1        0.0470
      7  C          6.2930    0.3980   -0.6420 C.2     1  UNL1       -0.0470
      8  C          5.5690    1.5110   -0.2990 C.2     1  UNL1        0.0040
      9  C          6.4360   -0.5970    0.2960 C.2     1  UNL1        0.0040
     10  C          5.0040    1.6170    0.9570 C.2     1  UNL1        0.0000
     11  C          5.8860   -0.5110    1.5420 C.2     1  UNL1        0.0000
     12  C          5.1580    0.6080    1.8860 C.2     1  UNL1        0.0000
@<TRIPOS>BOND
     1     5     4    1
     2     4     2    1
     3     2     1    1
     4     2     3    2
     5     1     6    1
     6     6     7    1
     7     7     8    2
     8     7     9    1
     9     8    10    1
    10     9    11    2
    11    10    12    2
    12    11    12    1
