@<TRIPOS>MOLECULE
/home/cewinharhar/GITHUB/reincatalyze/data/processed/docking_pred/2023-Apr-25-1630_maxeplen5_maxtrainstep200_exh32_gamma099_lrac3e-4_lrcr1e-3/0493ae4577fb245076a56c9e7bbbfc493763ce5a_ligand_2.pdbqt
 12 12 0 0 0
SMALL
GASTEIGER

@<TRIPOS>ATOM
      1  C          4.9890    1.7820    0.7120 C.3     1  UNL1        0.1270
      2  C          4.4880    1.0970    1.9270 C.2     1  UNL1        0.3030
      3  O          5.1560    0.2070    2.4750 O.2     1  UNL1       -0.2520
      4  O          3.2620    1.4540    2.4550 O.3     1  UNL1       -0.4810
      5  H          2.3840    1.1500    2.0430 H       1  UNL1        0.2960
      6  C          6.4970    1.8300    0.7140 C.3     1  UNL1        0.0470
      7  C          7.0960    1.0230   -0.3660 C.2     1  UNL1       -0.0470
      8  C          6.4090    0.1010   -1.1130 C.2     1  UNL1        0.0040
      9  C          8.4310    1.2110   -0.6360 C.2     1  UNL1        0.0040
     10  C          7.0520   -0.6120   -2.1070 C.2     1  UNL1        0.0000
     11  C          9.0840    0.5170   -1.6120 C.2     1  UNL1        0.0000
     12  C          8.3930   -0.4100   -2.3640 C.2     1  UNL1        0.0000
@<TRIPOS>BOND
     1    12    10    2
     2    12    11    1
     3    10     8    1
     4    11     9    2
     5     8     7    2
     6     9     7    1
     7     7     6    1
     8     1     6    1
     9     1     2    1
    10     2     4    1
    11     2     3    2
    12     5     4    1
