@<TRIPOS>MOLECULE
/home/cewinharhar/GITHUB/reincatalyze/data/processed/docking_pred/2023-Apr-25-1630_maxeplen5_maxtrainstep200_exh32_gamma099_lrac3e-4_lrcr1e-3/08a74a7e320cd1ecb560e86b752820c061dfae11_ligand_2.pdbqt
 12 12 0 0 0
SMALL
GASTEIGER

@<TRIPOS>ATOM
      1  C          4.9800    1.7690    0.7010 C.3     1  UNL1        0.1270
      2  C          4.4700    1.0970    1.9200 C.2     1  UNL1        0.3030
      3  O          5.1260    0.2000    2.4720 O.2     1  UNL1       -0.2520
      4  O          3.2500    1.4740    2.4480 O.3     1  UNL1       -0.4810
      5  H          2.9070    2.4290    2.3940 H       1  UNL1        0.2960
      6  C          6.4870    1.8160    0.7130 C.3     1  UNL1        0.0470
      7  C          7.0940    1.0070   -0.3600 C.2     1  UNL1       -0.0470
      8  C          6.4240    0.0500   -1.0790 C.2     1  UNL1        0.0040
      9  C          8.4190    1.2290   -0.6540 C.2     1  UNL1        0.0040
     10  C          7.0730   -0.6630   -2.0680 C.2     1  UNL1        0.0000
     11  C          9.0770    0.5350   -1.6270 C.2     1  UNL1        0.0000
     12  C          8.4030   -0.4260   -2.3500 C.2     1  UNL1        0.0000
@<TRIPOS>BOND
     1    12    10    2
     2    12    11    1
     3    10     8    1
     4    11     9    2
     5     8     7    2
     6     9     7    1
     7     7     6    1
     8     1     6    1
     9     1     2    1
    10     2     4    1
    11     2     3    2
    12     5     4    1
