@<TRIPOS>MOLECULE
/home/cewinharhar/GITHUB/reincatalyze/data/processed/docking_pred/2023-Apr-25-1630_maxeplen5_maxtrainstep200_exh32_gamma099_lrac3e-4_lrcr1e-3/08a74a7e320cd1ecb560e86b752820c061dfae11_ligand_2.pdbqt
 12 12 0 0 0
SMALL
GASTEIGER

@<TRIPOS>ATOM
      1  C          8.4780   -0.6330   -2.1660 C.3     1  UNL1        0.1270
      2  C          8.4940   -1.9120   -2.9160 C.2     1  UNL1        0.3030
      3  O          9.5550   -2.5330   -3.0880 O.2     1  UNL1       -0.2520
      4  O          7.3160   -2.4180   -3.4290 O.3     1  UNL1       -0.4810
      5  H          7.2970   -3.0550   -4.2200 H       1  UNL1        0.2960
      6  C          7.0850   -0.0550   -2.1370 C.3     1  UNL1        0.0470
      7  C          6.5290    0.0300   -0.7720 C.2     1  UNL1       -0.0470
      8  C          6.6230   -0.9680    0.1630 C.2     1  UNL1        0.0040
      9  C          5.8740    1.1870   -0.4220 C.2     1  UNL1        0.0040
     10  C          6.0720   -0.8030    1.4190 C.2     1  UNL1        0.0000
     11  C          5.3230    1.3700    0.8110 C.2     1  UNL1        0.0000
     12  C          5.4180    0.3670    1.7530 C.2     1  UNL1        0.0000
@<TRIPOS>BOND
     1     5     4    1
     2     4     2    1
     3     3     2    2
     4     2     1    1
     5     1     6    1
     6     6     7    1
     7     7     9    2
     8     7     8    1
     9     9    11    1
    10     8    10    2
    11    11    12    2
    12    10    12    1
