MODEL 1
REMARK VINA RESULT:      -7.4      0.000      0.000
REMARK SMILES O=C(O)CCc1ccccc1
REMARK SMILES IDX 4 1 2 2 1 3 3 4 5 6 6 7 7 8 11 9 8 10 10 11 9 12
REMARK H PARENT 3 5
REMARK Flexibility Score: inf
ROOT
ATOM      1  C   UNL     1       8.478  -0.633  -2.166  1.00  0.00     0.127 C 
ENDROOT
BRANCH   1   2
ATOM      2  C   UNL     1       8.494  -1.912  -2.916  1.00  0.00     0.303 C 
ATOM      3  O   UNL     1       9.555  -2.533  -3.088  1.00  0.00    -0.252 OA
BRANCH   2   4
ATOM      4  O   UNL     1       7.316  -2.418  -3.429  1.00  0.00    -0.481 OA
ATOM      5  H   UNL     1       7.297  -3.055  -4.220  1.00  0.00     0.296 HD
ENDBRANCH   2   4
ENDBRANCH   1   2
BRANCH   1   6
ATOM      6  C   UNL     1       7.085  -0.055  -2.137  1.00  0.00     0.047 C 
BRANCH   6   7
ATOM      7  C   UNL     1       6.529   0.030  -0.772  1.00  0.00    -0.047 A 
ATOM      8  C   UNL     1       6.623  -0.968   0.163  1.00  0.00     0.004 A 
ATOM      9  C   UNL     1       5.874   1.187  -0.422  1.00  0.00     0.004 A 
ATOM     10  C   UNL     1       6.072  -0.803   1.419  1.00  0.00     0.000 A 
ATOM     11  C   UNL     1       5.323   1.370   0.811  1.00  0.00     0.000 A 
ATOM     12  C   UNL     1       5.418   0.367   1.753  1.00  0.00     0.000 A 
ENDBRANCH   6   7
ENDBRANCH   1   6
TORSDOF 4
ENDMDL
MODEL 2
REMARK VINA RESULT:      -7.3      0.086      1.428
REMARK SMILES O=C(O)CCc1ccccc1
REMARK SMILES IDX 4 1 2 2 1 3 3 4 5 6 6 7 7 8 11 9 8 10 10 11 9 12
REMARK H PARENT 3 5
REMARK Flexibility Score: inf
ROOT
ATOM      1  C   UNL     1       8.417  -0.646  -2.134  1.00  0.00     0.127 C 
ENDROOT
BRANCH   1   2
ATOM      2  C   UNL     1       8.473  -1.910  -2.904  1.00  0.00     0.303 C 
ATOM      3  O   UNL     1       9.553  -2.494  -3.089  1.00  0.00    -0.252 OA
BRANCH   2   4
ATOM      4  O   UNL     1       7.310  -2.445  -3.424  1.00  0.00    -0.481 OA
ATOM      5  H   UNL     1       7.027  -2.296  -4.388  1.00  0.00     0.296 HD
ENDBRANCH   2   4
ENDBRANCH   1   2
BRANCH   1   6
ATOM      6  C   UNL     1       7.019  -0.080  -2.145  1.00  0.00     0.047 C 
BRANCH   6   7
ATOM      7  C   UNL     1       6.462   0.099  -0.790  1.00  0.00    -0.047 A 
ATOM      8  C   UNL     1       5.822   1.234  -0.363  1.00  0.00     0.004 A 
ATOM      9  C   UNL     1       6.599  -0.942   0.097  1.00  0.00     0.004 A 
ATOM     10  C   UNL     1       5.332   1.316   0.926  1.00  0.00     0.000 A 
ATOM     11  C   UNL     1       6.122  -0.880   1.374  1.00  0.00     0.000 A 
ATOM     12  C   UNL     1       5.478   0.260   1.804  1.00  0.00     0.000 A 
ENDBRANCH   6   7
ENDBRANCH   1   6
TORSDOF 4
ENDMDL
MODEL 3
REMARK VINA RESULT:      -7.2      0.606      1.119
REMARK SMILES O=C(O)CCc1ccccc1
REMARK SMILES IDX 4 1 2 2 1 3 3 4 5 6 6 7 7 8 11 9 8 10 10 11 9 12
REMARK H PARENT 3 5
REMARK Flexibility Score: inf
ROOT
ATOM      1  C   UNL     1       8.156  -0.907  -1.921  1.00  0.00     0.127 C 
ENDROOT
BRANCH   1   2
ATOM      2  C   UNL     1       8.356  -2.027  -2.872  1.00  0.00     0.303 C 
ATOM      3  O   UNL     1       9.487  -2.496  -3.072  1.00  0.00    -0.252 OA
BRANCH   2   4
ATOM      4  O   UNL     1       7.270  -2.553  -3.545  1.00  0.00    -0.481 OA
ATOM      5  H   UNL     1       6.680  -1.988  -4.150  1.00  0.00     0.296 HD
ENDBRANCH   2   4
ENDBRANCH   1   2
BRANCH   1   6
ATOM      6  C   UNL     1       7.483  -1.395  -0.663  1.00  0.00     0.047 C 
BRANCH   6   7
ATOM      7  C   UNL     1       6.615  -0.374  -0.045  1.00  0.00    -0.047 A 
ATOM      8  C   UNL     1       6.124  -0.449   1.233  1.00  0.00     0.004 A 
ATOM      9  C   UNL     1       6.278   0.720  -0.806  1.00  0.00     0.004 A 
ATOM     10  C   UNL     1       5.315   0.554   1.730  1.00  0.00     0.000 A 
ATOM     11  C   UNL     1       5.480   1.720  -0.334  1.00  0.00     0.000 A 
ATOM     12  C   UNL     1       4.987   1.646   0.951  1.00  0.00     0.000 A 
ENDBRANCH   6   7
ENDBRANCH   1   6
TORSDOF 4
ENDMDL
MODEL 4
REMARK VINA RESULT:      -6.8      3.371      5.063
REMARK SMILES O=C(O)CCc1ccccc1
REMARK SMILES IDX 4 1 2 2 1 3 3 4 5 6 6 7 7 8 11 9 8 10 10 11 9 12
REMARK H PARENT 3 5
REMARK Flexibility Score: inf
ROOT
ATOM      1  C   UNL     1       4.980   1.769   0.701  1.00  0.00     0.127 C 
ENDROOT
BRANCH   1   2
ATOM      2  C   UNL     1       4.470   1.097   1.920  1.00  0.00     0.303 C 
ATOM      3  O   UNL     1       5.126   0.200   2.472  1.00  0.00    -0.252 OA
BRANCH   2   4
ATOM      4  O   UNL     1       3.250   1.474   2.448  1.00  0.00    -0.481 OA
ATOM      5  H   UNL     1       2.907   2.429   2.394  1.00  0.00     0.296 HD
ENDBRANCH   2   4
ENDBRANCH   1   2
BRANCH   1   6
ATOM      6  C   UNL     1       6.487   1.816   0.713  1.00  0.00     0.047 C 
BRANCH   6   7
ATOM      7  C   UNL     1       7.094   1.007  -0.360  1.00  0.00    -0.047 A 
ATOM      8  C   UNL     1       6.424   0.050  -1.079  1.00  0.00     0.004 A 
ATOM      9  C   UNL     1       8.419   1.229  -0.654  1.00  0.00     0.004 A 
ATOM     10  C   UNL     1       7.073  -0.663  -2.068  1.00  0.00     0.000 A 
ATOM     11  C   UNL     1       9.077   0.535  -1.627  1.00  0.00     0.000 A 
ATOM     12  C   UNL     1       8.403  -0.426  -2.350  1.00  0.00     0.000 A 
ENDBRANCH   6   7
ENDBRANCH   1   6
TORSDOF 4
ENDMDL
MODEL 5
REMARK VINA RESULT:      -6.7      3.835      5.000
REMARK SMILES O=C(O)CCc1ccccc1
REMARK SMILES IDX 4 1 2 2 1 3 3 4 5 6 6 7 7 8 11 9 8 10 10 11 9 12
REMARK H PARENT 3 5
REMARK Flexibility Score: inf
ROOT
ATOM      1  C   UNL     1       5.449   2.899   0.038  1.00  0.00     0.127 C 
ENDROOT
BRANCH   1   2
ATOM      2  C   UNL     1       6.258   3.877   0.802  1.00  0.00     0.303 C 
ATOM      3  O   UNL     1       6.892   4.770   0.218  1.00  0.00    -0.252 OA
BRANCH   2   4
ATOM      4  O   UNL     1       6.308   3.794   2.180  1.00  0.00    -0.481 OA
ATOM      5  H   UNL     1       7.157   3.543   2.679  1.00  0.00     0.296 HD
ENDBRANCH   2   4
ENDBRANCH   1   2
BRANCH   1   6
ATOM      6  C   UNL     1       4.937   1.810   0.947  1.00  0.00     0.047 C 
BRANCH   6   7
ATOM      7  C   UNL     1       5.785   0.602   0.927  1.00  0.00    -0.047 A 
ATOM      8  C   UNL     1       6.639   0.275  -0.095  1.00  0.00     0.004 A 
ATOM      9  C   UNL     1       5.708  -0.248   2.005  1.00  0.00     0.004 A 
ATOM     10  C   UNL     1       7.396  -0.879  -0.031  1.00  0.00     0.000 A 
ATOM     11  C   UNL     1       6.447  -1.392   2.087  1.00  0.00     0.000 A 
ATOM     12  C   UNL     1       7.306  -1.720   1.060  1.00  0.00     0.000 A 
ENDBRANCH   6   7
ENDBRANCH   1   6
TORSDOF 4
ENDMDL
