@<TRIPOS>MOLECULE
/home/cewinharhar/GITHUB/reincatalyze/data/processed/docking_pred/2023-Apr-25-1630_maxeplen5_maxtrainstep200_exh32_gamma099_lrac3e-4_lrcr1e-3/08a74a7e320cd1ecb560e86b752820c061dfae11_ligand_2.pdbqt
 12 12 0 0 0
SMALL
GASTEIGER

@<TRIPOS>ATOM
      1  C          5.4490    2.8990    0.0380 C.3     1  UNL1        0.1270
      2  C          6.2580    3.8770    0.8020 C.2     1  UNL1        0.3030
      3  O          6.8920    4.7700    0.2180 O.2     1  UNL1       -0.2520
      4  O          6.3080    3.7940    2.1800 O.3     1  UNL1       -0.4810
      5  H          7.1570    3.5430    2.6790 H       1  UNL1        0.2960
      6  C          4.9370    1.8100    0.9470 C.3     1  UNL1        0.0470
      7  C          5.7850    0.6020    0.9270 C.2     1  UNL1       -0.0470
      8  C          6.6390    0.2750   -0.0950 C.2     1  UNL1        0.0040
      9  C          5.7080   -0.2480    2.0050 C.2     1  UNL1        0.0040
     10  C          7.3960   -0.8790   -0.0310 C.2     1  UNL1        0.0000
     11  C          6.4470   -1.3920    2.0870 C.2     1  UNL1        0.0000
     12  C          7.3060   -1.7200    1.0600 C.2     1  UNL1        0.0000
@<TRIPOS>BOND
     1     8    10    1
     2     8     7    2
     3    10    12    2
     4     1     2    1
     5     1     6    1
     6     3     2    2
     7     2     4    1
     8     7     6    1
     9     7     9    1
    10    12    11    1
    11     9    11    2
    12     4     5    1
