@<TRIPOS>MOLECULE
/home/cewinharhar/GITHUB/reincatalyze/data/processed/docking_pred/2023-Apr-25-1630_maxeplen5_maxtrainstep200_exh32_gamma099_lrac3e-4_lrcr1e-3/08a74a7e320cd1ecb560e86b752820c061dfae11_ligand_2.pdbqt
 12 12 0 0 0
SMALL
GASTEIGER

@<TRIPOS>ATOM
      1  C          8.4170   -0.6460   -2.1340 C.3     1  UNL1        0.1270
      2  C          8.4730   -1.9100   -2.9040 C.2     1  UNL1        0.3030
      3  O          9.5530   -2.4940   -3.0890 O.2     1  UNL1       -0.2520
      4  O          7.3100   -2.4450   -3.4240 O.3     1  UNL1       -0.4810
      5  H          7.0270   -2.2960   -4.3880 H       1  UNL1        0.2960
      6  C          7.0190   -0.0800   -2.1450 C.3     1  UNL1        0.0470
      7  C          6.4620    0.0990   -0.7900 C.2     1  UNL1       -0.0470
      8  C          5.8220    1.2340   -0.3630 C.2     1  UNL1        0.0040
      9  C          6.5990   -0.9420    0.0970 C.2     1  UNL1        0.0040
     10  C          5.3320    1.3160    0.9260 C.2     1  UNL1        0.0000
     11  C          6.1220   -0.8800    1.3740 C.2     1  UNL1        0.0000
     12  C          5.4780    0.2600    1.8040 C.2     1  UNL1        0.0000
@<TRIPOS>BOND
     1     5     4    1
     2     4     2    1
     3     3     2    2
     4     2     1    1
     5     6     1    1
     6     6     7    1
     7     7     8    2
     8     7     9    1
     9     8    10    1
    10     9    11    2
    11    10    12    2
    12    11    12    1
