@<TRIPOS>MOLECULE
/home/cewinharhar/GITHUB/reincatalyze/data/processed/docking_pred/2023-Apr-25-1630_maxeplen5_maxtrainstep200_exh32_gamma099_lrac3e-4_lrcr1e-3/08e84468c81f1cd513554bb3b422d21af10d92b8_ligand_2.pdbqt
 12 12 0 0 0
SMALL
GASTEIGER

@<TRIPOS>ATOM
      1  C          8.2310   -0.9660   -1.8200 C.3     1  UNL1        0.1270
      2  C          8.3910   -2.0320   -2.8370 C.2     1  UNL1        0.3030
      3  O          9.5130   -2.4880   -3.1090 O.2     1  UNL1       -0.2520
      4  O          7.2780   -2.5230   -3.4920 O.3     1  UNL1       -0.4810
      5  H          7.3400   -3.2540   -4.1950 H       1  UNL1        0.2960
      6  C          7.3960   -1.4580   -0.6640 C.3     1  UNL1        0.0470
      7  C          6.5680   -0.3940   -0.0630 C.2     1  UNL1       -0.0470
      8  C          6.0830   -0.4250    1.2190 C.2     1  UNL1        0.0040
      9  C          6.2650    0.6950   -0.8450 C.2     1  UNL1        0.0040
     10  C          5.3130    0.6160    1.7000 C.2     1  UNL1        0.0000
     11  C          5.5060    1.7330   -0.3890 C.2     1  UNL1        0.0000
     12  C          5.0190    1.7030    0.9000 C.2     1  UNL1        0.0000
@<TRIPOS>BOND
     1     5     4    1
     2     4     2    1
     3     3     2    2
     4     2     1    1
     5     1     6    1
     6     9    11    1
     7     9     7    2
     8     6     7    1
     9    11    12    2
    10     7     8    1
    11    12    10    1
    12     8    10    2
