@<TRIPOS>MOLECULE
/home/cewinharhar/GITHUB/reincatalyze/data/processed/docking_pred/2023-Apr-25-1630_maxeplen5_maxtrainstep200_exh32_gamma099_lrac3e-4_lrcr1e-3/08e84468c81f1cd513554bb3b422d21af10d92b8_ligand_2.pdbqt
 12 12 0 0 0
SMALL
GASTEIGER

@<TRIPOS>ATOM
      1  C          4.9870    1.7770    0.6900 C.3     1  UNL1        0.1270
      2  C          4.4900    1.1070    1.9150 C.2     1  UNL1        0.3030
      3  O          5.1590    0.2240    2.4720 O.2     1  UNL1       -0.2520
      4  O          3.2660    1.4700    2.4420 O.3     1  UNL1       -0.4810
      5  H          2.7940    2.3310    2.1790 H       1  UNL1        0.2960
      6  C          6.4940    1.8410    0.6950 C.3     1  UNL1        0.0470
      7  C          7.1050    1.0300   -0.3750 C.2     1  UNL1       -0.0470
      8  C          6.4310    0.0910   -1.1130 C.2     1  UNL1        0.0040
      9  C          8.4380    1.2300   -0.6440 C.2     1  UNL1        0.0040
     10  C          7.0840   -0.6250   -2.0970 C.2     1  UNL1        0.0000
     11  C          9.1010    0.5330   -1.6110 C.2     1  UNL1        0.0000
     12  C          8.4230   -0.4100   -2.3540 C.2     1  UNL1        0.0000
@<TRIPOS>BOND
     1    12    10    2
     2    12    11    1
     3    10     8    1
     4    11     9    2
     5     8     7    2
     6     9     7    1
     7     7     6    1
     8     1     6    1
     9     1     2    1
    10     2     4    1
    11     2     3    2
    12     5     4    1
