@<TRIPOS>MOLECULE
/home/cewinharhar/GITHUB/reincatalyze/data/processed/docking_pred/2023-Apr-25-1630_maxeplen5_maxtrainstep200_exh32_gamma099_lrac3e-4_lrcr1e-3/08e84468c81f1cd513554bb3b422d21af10d92b8_ligand_2.pdbqt
 12 12 0 0 0
SMALL
GASTEIGER

@<TRIPOS>ATOM
      1  C          5.4900    2.8930    0.0180 C.3     1  UNL1        0.1270
      2  C          6.2810    3.8590    0.8160 C.2     1  UNL1        0.3030
      3  O          6.9110    4.7740    0.2630 O.2     1  UNL1       -0.2520
      4  O          6.3190    3.7390    2.1910 O.3     1  UNL1       -0.4810
      5  H          5.7430    4.3100    2.8030 H       1  UNL1        0.2960
      6  C          4.9390    1.8010    0.9010 C.3     1  UNL1        0.0470
      7  C          5.7790    0.5890    0.9050 C.2     1  UNL1       -0.0470
      8  C          6.6370    0.2410   -0.1070 C.2     1  UNL1        0.0040
      9  C          5.6920   -0.2440    1.9950 C.2     1  UNL1        0.0040
     10  C          7.3870   -0.9160   -0.0210 C.2     1  UNL1        0.0000
     11  C          6.4230   -1.3900    2.0990 C.2     1  UNL1        0.0000
     12  C          7.2860   -1.7400    1.0830 C.2     1  UNL1        0.0000
@<TRIPOS>BOND
     1     8    10    1
     2     8     7    2
     3    10    12    2
     4     1     2    1
     5     1     6    1
     6     3     2    2
     7     2     4    1
     8     6     7    1
     9     7     9    1
    10    12    11    1
    11     9    11    2
    12     4     5    1
