MODEL 1
REMARK VINA RESULT:      -7.3      0.000      0.000
REMARK SMILES O=C(O)CCc1ccccc1
REMARK SMILES IDX 4 1 2 2 1 3 3 4 5 6 6 7 7 8 11 9 8 10 10 11 9 12
REMARK H PARENT 3 5
REMARK Flexibility Score: inf
ROOT
ATOM      1  C   UNL     1       8.417  -0.692  -2.092  1.00  0.00     0.127 C 
ENDROOT
BRANCH   1   2
ATOM      2  C   UNL     1       8.473  -1.931  -2.903  1.00  0.00     0.303 C 
ATOM      3  O   UNL     1       9.552  -2.512  -3.100  1.00  0.00    -0.252 OA
BRANCH   2   4
ATOM      4  O   UNL     1       7.311  -2.446  -3.445  1.00  0.00    -0.481 OA
ATOM      5  H   UNL     1       7.299  -3.304  -3.989  1.00  0.00     0.296 HD
ENDBRANCH   2   4
ENDBRANCH   1   2
BRANCH   1   6
ATOM      6  C   UNL     1       7.033  -0.093  -2.136  1.00  0.00     0.047 C 
BRANCH   6   7
ATOM      7  C   UNL     1       6.457   0.117  -0.794  1.00  0.00    -0.047 A 
ATOM      8  C   UNL     1       5.804   1.258  -0.404  1.00  0.00     0.004 A 
ATOM      9  C   UNL     1       6.588  -0.900   0.122  1.00  0.00     0.004 A 
ATOM     10  C   UNL     1       5.296   1.370   0.876  1.00  0.00     0.000 A 
ATOM     11  C   UNL     1       6.095  -0.809   1.390  1.00  0.00     0.000 A 
ATOM     12  C   UNL     1       5.437   0.337   1.782  1.00  0.00     0.000 A 
ENDBRANCH   6   7
ENDBRANCH   1   6
TORSDOF 4
ENDMDL
MODEL 2
REMARK VINA RESULT:      -7.2      0.119      1.725
REMARK SMILES O=C(O)CCc1ccccc1
REMARK SMILES IDX 4 1 2 2 1 3 3 4 5 6 6 7 7 8 11 9 8 10 10 11 9 12
REMARK H PARENT 3 5
REMARK Flexibility Score: inf
ROOT
ATOM      1  C   UNL     1       8.371  -0.605  -2.182  1.00  0.00     0.127 C 
ENDROOT
BRANCH   1   2
ATOM      2  C   UNL     1       8.355  -1.891  -2.919  1.00  0.00     0.303 C 
ATOM      3  O   UNL     1       7.283  -2.413  -3.262  1.00  0.00    -0.252 OA
BRANCH   2   4
ATOM      4  O   UNL     1       9.548  -2.515  -3.228  1.00  0.00    -0.481 OA
ATOM      5  H   UNL     1      10.109  -2.248  -4.033  1.00  0.00     0.296 HD
ENDBRANCH   2   4
ENDBRANCH   1   2
BRANCH   1   6
ATOM      6  C   UNL     1       6.982  -0.024  -2.100  1.00  0.00     0.047 C 
BRANCH   6   7
ATOM      7  C   UNL     1       6.462   0.026  -0.720  1.00  0.00    -0.047 A 
ATOM      8  C   UNL     1       6.582  -0.996   0.187  1.00  0.00     0.004 A 
ATOM      9  C   UNL     1       5.815   1.172  -0.324  1.00  0.00     0.004 A 
ATOM     10  C   UNL     1       6.063  -0.864   1.460  1.00  0.00     0.000 A 
ATOM     11  C   UNL     1       5.296   1.322   0.928  1.00  0.00     0.000 A 
ATOM     12  C   UNL     1       5.417   0.295   1.841  1.00  0.00     0.000 A 
ENDBRANCH   6   7
ENDBRANCH   1   6
TORSDOF 4
ENDMDL
MODEL 3
REMARK VINA RESULT:      -7.2      0.600      1.605
REMARK SMILES O=C(O)CCc1ccccc1
REMARK SMILES IDX 4 1 2 2 1 3 3 4 5 6 6 7 7 8 11 9 8 10 10 11 9 12
REMARK H PARENT 3 5
REMARK Flexibility Score: inf
ROOT
ATOM      1  C   UNL     1       8.231  -0.966  -1.820  1.00  0.00     0.127 C 
ENDROOT
BRANCH   1   2
ATOM      2  C   UNL     1       8.391  -2.032  -2.837  1.00  0.00     0.303 C 
ATOM      3  O   UNL     1       9.513  -2.488  -3.109  1.00  0.00    -0.252 OA
BRANCH   2   4
ATOM      4  O   UNL     1       7.278  -2.523  -3.492  1.00  0.00    -0.481 OA
ATOM      5  H   UNL     1       7.340  -3.254  -4.195  1.00  0.00     0.296 HD
ENDBRANCH   2   4
ENDBRANCH   1   2
BRANCH   1   6
ATOM      6  C   UNL     1       7.396  -1.458  -0.664  1.00  0.00     0.047 C 
BRANCH   6   7
ATOM      7  C   UNL     1       6.568  -0.394  -0.063  1.00  0.00    -0.047 A 
ATOM      8  C   UNL     1       6.083  -0.425   1.219  1.00  0.00     0.004 A 
ATOM      9  C   UNL     1       6.265   0.695  -0.845  1.00  0.00     0.004 A 
ATOM     10  C   UNL     1       5.313   0.616   1.700  1.00  0.00     0.000 A 
ATOM     11  C   UNL     1       5.506   1.733  -0.389  1.00  0.00     0.000 A 
ATOM     12  C   UNL     1       5.019   1.703   0.900  1.00  0.00     0.000 A 
ENDBRANCH   6   7
ENDBRANCH   1   6
TORSDOF 4
ENDMDL
MODEL 4
REMARK VINA RESULT:      -6.8      3.384      5.088
REMARK SMILES O=C(O)CCc1ccccc1
REMARK SMILES IDX 4 1 2 2 1 3 3 4 5 6 6 7 7 8 11 9 8 10 10 11 9 12
REMARK H PARENT 3 5
REMARK Flexibility Score: inf
ROOT
ATOM      1  C   UNL     1       4.987   1.777   0.690  1.00  0.00     0.127 C 
ENDROOT
BRANCH   1   2
ATOM      2  C   UNL     1       4.490   1.107   1.915  1.00  0.00     0.303 C 
ATOM      3  O   UNL     1       5.159   0.224   2.472  1.00  0.00    -0.252 OA
BRANCH   2   4
ATOM      4  O   UNL     1       3.266   1.470   2.442  1.00  0.00    -0.481 OA
ATOM      5  H   UNL     1       2.794   2.331   2.179  1.00  0.00     0.296 HD
ENDBRANCH   2   4
ENDBRANCH   1   2
BRANCH   1   6
ATOM      6  C   UNL     1       6.494   1.841   0.695  1.00  0.00     0.047 C 
BRANCH   6   7
ATOM      7  C   UNL     1       7.105   1.030  -0.375  1.00  0.00    -0.047 A 
ATOM      8  C   UNL     1       6.431   0.091  -1.113  1.00  0.00     0.004 A 
ATOM      9  C   UNL     1       8.438   1.230  -0.644  1.00  0.00     0.004 A 
ATOM     10  C   UNL     1       7.084  -0.625  -2.097  1.00  0.00     0.000 A 
ATOM     11  C   UNL     1       9.101   0.533  -1.611  1.00  0.00     0.000 A 
ATOM     12  C   UNL     1       8.423  -0.410  -2.354  1.00  0.00     0.000 A 
ENDBRANCH   6   7
ENDBRANCH   1   6
TORSDOF 4
ENDMDL
MODEL 5
REMARK VINA RESULT:      -6.7      3.841      4.930
REMARK SMILES O=C(O)CCc1ccccc1
REMARK SMILES IDX 4 1 2 2 1 3 3 4 5 6 6 7 7 8 11 9 8 10 10 11 9 12
REMARK H PARENT 3 5
REMARK Flexibility Score: inf
ROOT
ATOM      1  C   UNL     1       5.490   2.893   0.018  1.00  0.00     0.127 C 
ENDROOT
BRANCH   1   2
ATOM      2  C   UNL     1       6.281   3.859   0.816  1.00  0.00     0.303 C 
ATOM      3  O   UNL     1       6.911   4.774   0.263  1.00  0.00    -0.252 OA
BRANCH   2   4
ATOM      4  O   UNL     1       6.319   3.739   2.191  1.00  0.00    -0.481 OA
ATOM      5  H   UNL     1       5.743   4.310   2.803  1.00  0.00     0.296 HD
ENDBRANCH   2   4
ENDBRANCH   1   2
BRANCH   1   6
ATOM      6  C   UNL     1       4.939   1.801   0.901  1.00  0.00     0.047 C 
BRANCH   6   7
ATOM      7  C   UNL     1       5.779   0.589   0.905  1.00  0.00    -0.047 A 
ATOM      8  C   UNL     1       6.637   0.241  -0.107  1.00  0.00     0.004 A 
ATOM      9  C   UNL     1       5.692  -0.244   1.995  1.00  0.00     0.004 A 
ATOM     10  C   UNL     1       7.387  -0.916  -0.021  1.00  0.00     0.000 A 
ATOM     11  C   UNL     1       6.423  -1.390   2.099  1.00  0.00     0.000 A 
ATOM     12  C   UNL     1       7.286  -1.740   1.083  1.00  0.00     0.000 A 
ENDBRANCH   6   7
ENDBRANCH   1   6
TORSDOF 4
ENDMDL
