@<TRIPOS>MOLECULE
/home/cewinharhar/GITHUB/reincatalyze/data/processed/docking_pred/2023-Apr-25-1630_maxeplen5_maxtrainstep200_exh32_gamma099_lrac3e-4_lrcr1e-3/08e84468c81f1cd513554bb3b422d21af10d92b8_ligand_2.pdbqt
 12 12 0 0 0
SMALL
GASTEIGER

@<TRIPOS>ATOM
      1  C          8.3710   -0.6050   -2.1820 C.3     1  UNL1        0.1270
      2  C          8.3550   -1.8910   -2.9190 C.2     1  UNL1        0.3030
      3  O          7.2830   -2.4130   -3.2620 O.2     1  UNL1       -0.2520
      4  O          9.5480   -2.5150   -3.2280 O.3     1  UNL1       -0.4810
      5  H         10.1090   -2.2480   -4.0330 H       1  UNL1        0.2960
      6  C          6.9820   -0.0240   -2.1000 C.3     1  UNL1        0.0470
      7  C          6.4620    0.0260   -0.7200 C.2     1  UNL1       -0.0470
      8  C          6.5820   -0.9960    0.1870 C.2     1  UNL1        0.0040
      9  C          5.8150    1.1720   -0.3240 C.2     1  UNL1        0.0040
     10  C          6.0630   -0.8640    1.4600 C.2     1  UNL1        0.0000
     11  C          5.2960    1.3220    0.9280 C.2     1  UNL1        0.0000
     12  C          5.4170    0.2950    1.8410 C.2     1  UNL1        0.0000
@<TRIPOS>BOND
     1     5     4    1
     2     3     2    2
     3     4     2    1
     4     2     1    1
     5     1     6    1
     6     6     7    1
     7     7     9    2
     8     7     8    1
     9     9    11    1
    10     8    10    2
    11    11    12    2
    12    10    12    1
