@<TRIPOS>MOLECULE
/home/cewinharhar/GITHUB/reincatalyze/data/processed/docking_pred/2023-Apr-25-1630_maxeplen5_maxtrainstep200_exh32_gamma099_lrac3e-4_lrcr1e-3/090474ec6ad34f6c7e6271970b3dfdf762d08d64_ligand_2.pdbqt
 12 12 0 0 0
SMALL
GASTEIGER

@<TRIPOS>ATOM
      1  C          8.1170   -1.0950    0.0270 C.3     1  UNL1        0.1270
      2  C          7.8880   -2.3560    0.7710 C.2     1  UNL1        0.3030
      3  O          8.7300   -3.2680    0.7510 O.2     1  UNL1       -0.2520
      4  O          6.7230   -2.5190    1.4950 O.3     1  UNL1       -0.4810
      5  H          6.4370   -1.8650    2.2180 H       1  UNL1        0.2960
      6  C          6.8180   -0.5610   -0.5230 C.3     1  UNL1        0.0470
      7  C          6.5790    0.8490   -0.1580 C.2     1  UNL1       -0.0470
      8  C          5.3960    1.5100   -0.3670 C.2     1  UNL1        0.0040
      9  C          7.6140    1.5400    0.4270 C.2     1  UNL1        0.0040
     10  C          5.2600    2.8340    0.0060 C.2     1  UNL1        0.0000
     11  C          7.5000    2.8460    0.8010 C.2     1  UNL1        0.0000
     12  C          6.3110    3.5110    0.5920 C.2     1  UNL1        0.0000
@<TRIPOS>BOND
     1     6     7    1
     2     6     1    1
     3     8     7    2
     4     8    10    1
     5     7     9    1
     6    10    12    2
     7     1     2    1
     8     9    11    2
     9    12    11    1
    10     3     2    2
    11     2     4    1
    12     4     5    1
