@<TRIPOS>MOLECULE
/home/cewinharhar/GITHUB/reincatalyze/data/processed/docking_pred/2023-Apr-25-1630_maxeplen5_maxtrainstep200_exh32_gamma099_lrac3e-4_lrcr1e-3/090474ec6ad34f6c7e6271970b3dfdf762d08d64_ligand_2.pdbqt
 12 12 0 0 0
SMALL
GASTEIGER

@<TRIPOS>ATOM
      1  C          8.4120   -0.6410   -2.1560 C.3     1  UNL1        0.1270
      2  C          8.4710   -1.9140   -2.9120 C.2     1  UNL1        0.3030
      3  O          9.5520   -2.4970   -3.0910 O.2     1  UNL1       -0.2520
      4  O          7.3090   -2.4570   -3.4260 O.3     1  UNL1       -0.4810
      5  H          6.4840   -1.8950   -3.6140 H       1  UNL1        0.2960
      6  C          7.0100   -0.0830   -2.1650 C.3     1  UNL1        0.0470
      7  C          6.4560    0.0940   -0.8090 C.2     1  UNL1       -0.0470
      8  C          5.8130    1.2260   -0.3800 C.2     1  UNL1        0.0040
      9  C          6.5980   -0.9470    0.0780 C.2     1  UNL1        0.0040
     10  C          5.3250    1.3070    0.9100 C.2     1  UNL1        0.0000
     11  C          6.1240   -0.8870    1.3560 C.2     1  UNL1        0.0000
     12  C          5.4770    0.2510    1.7870 C.2     1  UNL1        0.0000
@<TRIPOS>BOND
     1     5     4    1
     2     4     2    1
     3     3     2    2
     4     2     1    1
     5     6     1    1
     6     6     7    1
     7     7     8    2
     8     7     9    1
     9     8    10    1
    10     9    11    2
    11    10    12    2
    12    11    12    1
