@<TRIPOS>MOLECULE
/home/cewinharhar/GITHUB/reincatalyze/data/processed/docking_pred/2023-Apr-25-1630_maxeplen5_maxtrainstep200_exh32_gamma099_lrac3e-4_lrcr1e-3/090474ec6ad34f6c7e6271970b3dfdf762d08d64_ligand_2.pdbqt
 12 12 0 0 0
SMALL
GASTEIGER

@<TRIPOS>ATOM
      1  C          8.4570   -0.6220   -2.2030 C.3     1  UNL1        0.1270
      2  C          8.5010   -1.9190   -2.9190 C.2     1  UNL1        0.3030
      3  O          9.5770   -2.5130   -3.0920 O.2     1  UNL1       -0.2520
      4  O          7.3300   -2.4740   -3.4000 O.3     1  UNL1       -0.4810
      5  H          6.9030   -2.1700   -4.2700 H       1  UNL1        0.2960
      6  C          7.0480   -0.0840   -2.1690 C.3     1  UNL1        0.0470
      7  C          6.5090    0.0210   -0.7990 C.2     1  UNL1       -0.0470
      8  C          6.6020   -0.9690    0.1450 C.2     1  UNL1        0.0040
      9  C          5.8720    1.1890   -0.4530 C.2     1  UNL1        0.0040
     10  C          6.0670   -0.7850    1.4050 C.2     1  UNL1        0.0000
     11  C          5.3360    1.3900    0.7850 C.2     1  UNL1        0.0000
     12  C          5.4300    0.3950    1.7350 C.2     1  UNL1        0.0000
@<TRIPOS>BOND
     1     5     4    1
     2     4     2    1
     3     3     2    2
     4     2     1    1
     5     1     6    1
     6     6     7    1
     7     7     9    2
     8     7     8    1
     9     9    11    1
    10     8    10    2
    11    11    12    2
    12    10    12    1
