@<TRIPOS>MOLECULE
/home/cewinharhar/GITHUB/reincatalyze/data/processed/docking_pred/2023-Apr-25-1630_maxeplen5_maxtrainstep200_exh32_gamma099_lrac3e-4_lrcr1e-3/090474ec6ad34f6c7e6271970b3dfdf762d08d64_ligand_2.pdbqt
 12 12 0 0 0
SMALL
GASTEIGER

@<TRIPOS>ATOM
      1  C          8.1750   -0.5200   -2.2760 C.3     1  UNL1        0.1270
      2  C          8.3500   -1.8310   -2.9430 C.2     1  UNL1        0.3030
      3  O          9.4730   -2.3490   -3.0410 O.2     1  UNL1       -0.2520
      4  O          7.2490   -2.4850   -3.4630 O.3     1  UNL1       -0.4810
      5  H          7.1550   -2.6870   -4.4540 H       1  UNL1        0.2960
      6  C          6.9360   -0.5230   -1.4160 C.3     1  UNL1        0.0470
      7  C          6.7380    0.7460   -0.6910 C.2     1  UNL1       -0.0470
      8  C          5.5320    1.3860   -0.5690 C.2     1  UNL1        0.0040
      9  C          7.8390    1.3210   -0.1020 C.2     1  UNL1        0.0040
     10  C          5.4380    2.5750    0.1290 C.2     1  UNL1        0.0000
     11  C          7.7680    2.4940    0.5910 C.2     1  UNL1        0.0000
     12  C          6.5550    3.1370    0.7140 C.2     1  UNL1        0.0000
@<TRIPOS>BOND
     1     5     4    1
     2     4     2    1
     3     3     2    2
     4     2     1    1
     5     1     6    1
     6     6     7    1
     7     7     8    2
     8     7     9    1
     9     8    10    1
    10     9    11    2
    11    10    12    2
    12    11    12    1
