@<TRIPOS>MOLECULE
/home/cewinharhar/GITHUB/reincatalyze/data/processed/docking_pred/2023-Apr-25-1630_maxeplen5_maxtrainstep200_exh32_gamma099_lrac3e-4_lrcr1e-3/09c0e00cbaa22f287e1ef7d21129eabb08ea3244_ligand_2.pdbqt
 12 12 0 0 0
SMALL
GASTEIGER

@<TRIPOS>ATOM
      1  C          5.0130    1.7390    0.7110 C.3     1  UNL1        0.1270
      2  C          4.5840    1.0240    1.9360 C.2     1  UNL1        0.3030
      3  O          5.3160    0.1710    2.4620 O.2     1  UNL1       -0.2520
      4  O          3.3550    1.3110    2.4980 O.3     1  UNL1       -0.4810
      5  H          3.2240    2.0720    3.1590 H       1  UNL1        0.2960
      6  C          6.5170    1.8510    0.6610 C.3     1  UNL1        0.0470
      7  C          7.1170    1.0290   -0.4070 C.2     1  UNL1       -0.0470
      8  C          6.4190    0.1350   -1.1780 C.2     1  UNL1        0.0040
      9  C          8.4650    1.1720   -0.6400 C.2     1  UNL1        0.0040
     10  C          7.0640   -0.5950   -2.1570 C.2     1  UNL1        0.0000
     11  C          9.1200    0.4610   -1.6010 C.2     1  UNL1        0.0000
     12  C          8.4180   -0.4380   -2.3770 C.2     1  UNL1        0.0000
@<TRIPOS>BOND
     1    12    10    2
     2    12    11    1
     3    10     8    1
     4    11     9    2
     5     8     7    2
     6     9     7    1
     7     7     6    1
     8     6     1    1
     9     1     2    1
    10     2     3    2
    11     2     4    1
    12     4     5    1
