@<TRIPOS>MOLECULE
/home/cewinharhar/GITHUB/reincatalyze/data/processed/docking_pred/2023-Apr-25-1630_maxeplen5_maxtrainstep200_exh32_gamma099_lrac3e-4_lrcr1e-3/09c0e00cbaa22f287e1ef7d21129eabb08ea3244_ligand_2.pdbqt
 12 12 0 0 0
SMALL
GASTEIGER

@<TRIPOS>ATOM
      1  C          8.5500   -0.7140   -2.0870 C.3     1  UNL1        0.1270
      2  C          8.5540   -1.9770   -2.8620 C.2     1  UNL1        0.3030
      3  O          9.6100   -2.6010   -3.0550 O.2     1  UNL1       -0.2520
      4  O          7.3690   -2.4660   -3.3760 O.3     1  UNL1       -0.4810
      5  H          7.3180   -2.9260   -4.2810 H       1  UNL1        0.2960
      6  C          7.1830   -0.0790   -2.1160 C.3     1  UNL1        0.0470
      7  C          6.5800    0.0450   -0.7750 C.2     1  UNL1       -0.0470
      8  C          6.6450   -0.9240    0.1930 C.2     1  UNL1        0.0040
      9  C          5.9090    1.2090   -0.4830 C.2     1  UNL1        0.0040
     10  C          6.0500   -0.7240    1.4240 C.2     1  UNL1        0.0000
     11  C          5.3140    1.4250    0.7250 C.2     1  UNL1        0.0000
     12  C          5.3800    0.4520    1.6990 C.2     1  UNL1        0.0000
@<TRIPOS>BOND
     1     5     4    1
     2     4     2    1
     3     3     2    2
     4     2     1    1
     5     6     1    1
     6     6     7    1
     7     7     9    2
     8     7     8    1
     9     9    11    1
    10     8    10    2
    11    11    12    2
    12    10    12    1
