@<TRIPOS>MOLECULE
/home/cewinharhar/GITHUB/reincatalyze/data/processed/docking_pred/2023-Apr-25-1630_maxeplen5_maxtrainstep200_exh32_gamma099_lrac3e-4_lrcr1e-3/09c0e00cbaa22f287e1ef7d21129eabb08ea3244_ligand_2.pdbqt
 12 12 0 0 0
SMALL
GASTEIGER

@<TRIPOS>ATOM
      1  C          5.0390    1.7230    0.6960 C.3     1  UNL1        0.1270
      2  C          4.5970    1.0320    1.9300 C.2     1  UNL1        0.3030
      3  O          5.3220    0.1900    2.4820 O.2     1  UNL1       -0.2520
      4  O          3.3610    1.3280    2.4720 O.3     1  UNL1       -0.4810
      5  H          2.6050    1.7220    1.9190 H       1  UNL1        0.2960
      6  C          6.5380    1.8960    0.6940 C.3     1  UNL1        0.0470
      7  C          7.2020    1.1280   -0.3770 C.2     1  UNL1       -0.0470
      8  C          8.5480    1.1680   -0.6340 C.2     1  UNL1        0.0040
      9  C          6.4140    0.3230   -1.1650 C.2     1  UNL1        0.0040
     10  C          9.0860    0.4160   -1.6600 C.2     1  UNL1        0.0000
     11  C          6.9260   -0.4270   -2.1830 C.2     1  UNL1        0.0000
     12  C          8.2790   -0.3880   -2.4420 C.2     1  UNL1        0.0000
@<TRIPOS>BOND
     1    12    11    2
     2    12    10    1
     3    11     9    1
     4    10     8    2
     5     9     7    2
     6     8     7    1
     7     7     6    1
     8     6     1    1
     9     1     2    1
    10     5     4    1
    11     2     4    1
    12     2     3    2
