@<TRIPOS>MOLECULE
/home/cewinharhar/GITHUB/reincatalyze/data/processed/docking_pred/2023-Apr-25-1630_maxeplen5_maxtrainstep200_exh32_gamma099_lrac3e-4_lrcr1e-3/09c0e00cbaa22f287e1ef7d21129eabb08ea3244_ligand_2.pdbqt
 12 12 0 0 0
SMALL
GASTEIGER

@<TRIPOS>ATOM
      1  C          8.6020   -0.8020   -1.9580 C.3     1  UNL1        0.1270
      2  C          8.6550   -1.9750   -2.8630 C.2     1  UNL1        0.3030
      3  O          9.7400   -2.4940   -3.1670 O.2     1  UNL1       -0.2520
      4  O          7.4810   -2.4950   -3.3740 O.3     1  UNL1       -0.4810
      5  H          7.4090   -2.8360   -4.3290 H       1  UNL1        0.2960
      6  C          7.2760   -0.0940   -2.0850 C.3     1  UNL1        0.0470
      7  C          6.6080    0.1070   -0.7850 C.2     1  UNL1       -0.0470
      8  C          5.9190    1.2410   -0.4380 C.2     1  UNL1        0.0040
      9  C          6.6860   -0.9110    0.1360 C.2     1  UNL1        0.0040
     10  C          5.3240    1.3440    0.8040 C.2     1  UNL1        0.0000
     11  C          6.1060   -0.8280    1.3670 C.2     1  UNL1        0.0000
     12  C          5.4130    0.3110    1.7160 C.2     1  UNL1        0.0000
@<TRIPOS>BOND
     1     5     4    1
     2     4     2    1
     3     3     2    2
     4     2     1    1
     5     6     1    1
     6     6     7    1
     7     7     8    2
     8     7     9    1
     9     8    10    1
    10     9    11    2
    11    10    12    2
    12    11    12    1
