@<TRIPOS>MOLECULE
/home/cewinharhar/GITHUB/reincatalyze/data/processed/docking_pred/2023-Apr-25-1630_maxeplen5_maxtrainstep200_exh32_gamma099_lrac3e-4_lrcr1e-3/09c0e00cbaa22f287e1ef7d21129eabb08ea3244_ligand_2.pdbqt
 12 12 0 0 0
SMALL
GASTEIGER

@<TRIPOS>ATOM
      1  C          8.3060    0.3050   -2.2290 C.3     1  UNL1        0.1270
      2  C          9.5350   -0.0060   -1.4620 C.2     1  UNL1        0.3030
      3  O          9.7920   -1.1700   -1.1170 O.2     1  UNL1       -0.2520
      4  O         10.4060    1.0130   -1.1250 O.3     1  UNL1       -0.4810
      5  H         10.4900    1.3640   -0.1760 H       1  UNL1        0.2960
      6  C          7.1770   -0.6050   -1.8130 C.3     1  UNL1        0.0470
      7  C          6.5100   -0.1600   -0.5740 C.2     1  UNL1       -0.0470
      8  C          6.4360   -0.9070    0.5740 C.2     1  UNL1        0.0040
      9  C          5.9250    1.0840   -0.5770 C.2     1  UNL1        0.0040
     10  C          5.7900   -0.4110    1.6900 C.2     1  UNL1        0.0000
     11  C          5.2820    1.5910    0.5140 C.2     1  UNL1        0.0000
     12  C          5.2080    0.8410    1.6680 C.2     1  UNL1        0.0000
@<TRIPOS>BOND
     1     1     6    1
     2     1     2    1
     3     6     7    1
     4     2     4    1
     5     2     3    2
     6     4     5    1
     7     9     7    2
     8     9    11    1
     9     7     8    1
    10    11    12    2
    11     8    10    2
    12    12    10    1
