MODEL 1
REMARK VINA RESULT:      -7.0      0.000      0.000
REMARK SMILES O=C(O)CCc1ccccc1
REMARK SMILES IDX 4 1 2 2 1 3 3 4 5 6 6 7 7 8 11 9 8 10 10 11 9 12
REMARK H PARENT 3 5
REMARK Flexibility Score: inf
ROOT
ATOM      1  C   UNL     1       8.550  -0.714  -2.087  1.00  0.00     0.127 C 
ENDROOT
BRANCH   1   2
ATOM      2  C   UNL     1       8.554  -1.977  -2.862  1.00  0.00     0.303 C 
ATOM      3  O   UNL     1       9.610  -2.601  -3.055  1.00  0.00    -0.252 OA
BRANCH   2   4
ATOM      4  O   UNL     1       7.369  -2.466  -3.376  1.00  0.00    -0.481 OA
ATOM      5  H   UNL     1       7.318  -2.926  -4.281  1.00  0.00     0.296 HD
ENDBRANCH   2   4
ENDBRANCH   1   2
BRANCH   1   6
ATOM      6  C   UNL     1       7.183  -0.079  -2.116  1.00  0.00     0.047 C 
BRANCH   6   7
ATOM      7  C   UNL     1       6.580   0.045  -0.775  1.00  0.00    -0.047 A 
ATOM      8  C   UNL     1       6.645  -0.924   0.193  1.00  0.00     0.004 A 
ATOM      9  C   UNL     1       5.909   1.209  -0.483  1.00  0.00     0.004 A 
ATOM     10  C   UNL     1       6.050  -0.724   1.424  1.00  0.00     0.000 A 
ATOM     11  C   UNL     1       5.314   1.425   0.725  1.00  0.00     0.000 A 
ATOM     12  C   UNL     1       5.380   0.452   1.699  1.00  0.00     0.000 A 
ENDBRANCH   6   7
ENDBRANCH   1   6
TORSDOF 4
ENDMDL
MODEL 2
REMARK VINA RESULT:      -7.0      0.123      1.431
REMARK SMILES O=C(O)CCc1ccccc1
REMARK SMILES IDX 4 1 2 2 1 3 3 4 5 6 6 7 7 8 11 9 8 10 10 11 9 12
REMARK H PARENT 3 5
REMARK Flexibility Score: inf
ROOT
ATOM      1  C   UNL     1       8.602  -0.802  -1.958  1.00  0.00     0.127 C 
ENDROOT
BRANCH   1   2
ATOM      2  C   UNL     1       8.655  -1.975  -2.863  1.00  0.00     0.303 C 
ATOM      3  O   UNL     1       9.740  -2.494  -3.167  1.00  0.00    -0.252 OA
BRANCH   2   4
ATOM      4  O   UNL     1       7.481  -2.495  -3.374  1.00  0.00    -0.481 OA
ATOM      5  H   UNL     1       7.409  -2.836  -4.329  1.00  0.00     0.296 HD
ENDBRANCH   2   4
ENDBRANCH   1   2
BRANCH   1   6
ATOM      6  C   UNL     1       7.276  -0.094  -2.085  1.00  0.00     0.047 C 
BRANCH   6   7
ATOM      7  C   UNL     1       6.608   0.107  -0.785  1.00  0.00    -0.047 A 
ATOM      8  C   UNL     1       5.919   1.241  -0.438  1.00  0.00     0.004 A 
ATOM      9  C   UNL     1       6.686  -0.911   0.136  1.00  0.00     0.004 A 
ATOM     10  C   UNL     1       5.324   1.344   0.804  1.00  0.00     0.000 A 
ATOM     11  C   UNL     1       6.106  -0.828   1.367  1.00  0.00     0.000 A 
ATOM     12  C   UNL     1       5.413   0.311   1.716  1.00  0.00     0.000 A 
ENDBRANCH   6   7
ENDBRANCH   1   6
TORSDOF 4
ENDMDL
MODEL 3
REMARK VINA RESULT:      -6.6      1.578      1.938
REMARK SMILES O=C(O)CCc1ccccc1
REMARK SMILES IDX 4 1 2 2 1 3 3 4 5 6 6 7 7 8 11 9 8 10 10 11 9 12
REMARK H PARENT 3 5
REMARK Flexibility Score: inf
ROOT
ATOM      1  C   UNL     1       8.306   0.305  -2.229  1.00  0.00     0.127 C 
ENDROOT
BRANCH   1   2
ATOM      2  C   UNL     1       9.535  -0.006  -1.462  1.00  0.00     0.303 C 
ATOM      3  O   UNL     1       9.792  -1.170  -1.117  1.00  0.00    -0.252 OA
BRANCH   2   4
ATOM      4  O   UNL     1      10.406   1.013  -1.125  1.00  0.00    -0.481 OA
ATOM      5  H   UNL     1      10.490   1.364  -0.176  1.00  0.00     0.296 HD
ENDBRANCH   2   4
ENDBRANCH   1   2
BRANCH   1   6
ATOM      6  C   UNL     1       7.177  -0.605  -1.813  1.00  0.00     0.047 C 
BRANCH   6   7
ATOM      7  C   UNL     1       6.510  -0.160  -0.574  1.00  0.00    -0.047 A 
ATOM      8  C   UNL     1       6.436  -0.907   0.574  1.00  0.00     0.004 A 
ATOM      9  C   UNL     1       5.925   1.084  -0.577  1.00  0.00     0.004 A 
ATOM     10  C   UNL     1       5.790  -0.411   1.690  1.00  0.00     0.000 A 
ATOM     11  C   UNL     1       5.282   1.591   0.514  1.00  0.00     0.000 A 
ATOM     12  C   UNL     1       5.208   0.841   1.668  1.00  0.00     0.000 A 
ENDBRANCH   6   7
ENDBRANCH   1   6
TORSDOF 4
ENDMDL
MODEL 4
REMARK VINA RESULT:      -6.6      3.337      5.046
REMARK SMILES O=C(O)CCc1ccccc1
REMARK SMILES IDX 4 1 2 2 1 3 3 4 5 6 6 7 7 8 11 9 8 10 10 11 9 12
REMARK H PARENT 3 5
REMARK Flexibility Score: inf
ROOT
ATOM      1  C   UNL     1       5.039   1.723   0.696  1.00  0.00     0.127 C 
ENDROOT
BRANCH   1   2
ATOM      2  C   UNL     1       4.597   1.032   1.930  1.00  0.00     0.303 C 
ATOM      3  O   UNL     1       5.322   0.190   2.482  1.00  0.00    -0.252 OA
BRANCH   2   4
ATOM      4  O   UNL     1       3.361   1.328   2.472  1.00  0.00    -0.481 OA
ATOM      5  H   UNL     1       2.605   1.722   1.919  1.00  0.00     0.296 HD
ENDBRANCH   2   4
ENDBRANCH   1   2
BRANCH   1   6
ATOM      6  C   UNL     1       6.538   1.896   0.694  1.00  0.00     0.047 C 
BRANCH   6   7
ATOM      7  C   UNL     1       7.202   1.128  -0.377  1.00  0.00    -0.047 A 
ATOM      8  C   UNL     1       8.548   1.168  -0.634  1.00  0.00     0.004 A 
ATOM      9  C   UNL     1       6.414   0.323  -1.165  1.00  0.00     0.004 A 
ATOM     10  C   UNL     1       9.086   0.416  -1.660  1.00  0.00     0.000 A 
ATOM     11  C   UNL     1       6.926  -0.427  -2.183  1.00  0.00     0.000 A 
ATOM     12  C   UNL     1       8.279  -0.388  -2.442  1.00  0.00     0.000 A 
ENDBRANCH   6   7
ENDBRANCH   1   6
TORSDOF 4
ENDMDL
MODEL 5
REMARK VINA RESULT:      -6.6      3.328      5.043
REMARK SMILES O=C(O)CCc1ccccc1
REMARK SMILES IDX 4 1 2 2 1 3 3 4 5 6 6 7 7 8 11 9 8 10 10 11 9 12
REMARK H PARENT 3 5
REMARK Flexibility Score: inf
ROOT
ATOM      1  C   UNL     1       5.013   1.739   0.711  1.00  0.00     0.127 C 
ENDROOT
BRANCH   1   2
ATOM      2  C   UNL     1       4.584   1.024   1.936  1.00  0.00     0.303 C 
ATOM      3  O   UNL     1       5.316   0.171   2.462  1.00  0.00    -0.252 OA
BRANCH   2   4
ATOM      4  O   UNL     1       3.355   1.311   2.498  1.00  0.00    -0.481 OA
ATOM      5  H   UNL     1       3.224   2.072   3.159  1.00  0.00     0.296 HD
ENDBRANCH   2   4
ENDBRANCH   1   2
BRANCH   1   6
ATOM      6  C   UNL     1       6.517   1.851   0.661  1.00  0.00     0.047 C 
BRANCH   6   7
ATOM      7  C   UNL     1       7.117   1.029  -0.407  1.00  0.00    -0.047 A 
ATOM      8  C   UNL     1       6.419   0.135  -1.178  1.00  0.00     0.004 A 
ATOM      9  C   UNL     1       8.465   1.172  -0.640  1.00  0.00     0.004 A 
ATOM     10  C   UNL     1       7.064  -0.595  -2.157  1.00  0.00     0.000 A 
ATOM     11  C   UNL     1       9.120   0.461  -1.601  1.00  0.00     0.000 A 
ATOM     12  C   UNL     1       8.418  -0.438  -2.377  1.00  0.00     0.000 A 
ENDBRANCH   6   7
ENDBRANCH   1   6
TORSDOF 4
ENDMDL
