@<TRIPOS>MOLECULE
/home/cewinharhar/GITHUB/reincatalyze/data/processed/docking_pred/2023-Apr-25-1630_maxeplen5_maxtrainstep200_exh32_gamma099_lrac3e-4_lrcr1e-3/0bc78f1071f374665515956646110ea4a2a90639_ligand_2.pdbqt
 12 12 0 0 0
SMALL
GASTEIGER

@<TRIPOS>ATOM
      1  C          8.4050   -0.6810   -2.0890 C.3     1  UNL1        0.1270
      2  C          8.4620   -1.9260   -2.8910 C.2     1  UNL1        0.3030
      3  O          9.5430   -2.4990   -3.0980 O.2     1  UNL1       -0.2520
      4  O          7.2980   -2.4530   -3.4160 O.3     1  UNL1       -0.4810
      5  H          7.1400   -2.5310   -4.4170 H       1  UNL1        0.2960
      6  C          7.0140   -0.0980   -2.1140 C.3     1  UNL1        0.0470
      7  C          6.4510    0.0980   -0.7640 C.2     1  UNL1       -0.0470
      8  C          5.8070    1.2370   -0.3540 C.2     1  UNL1        0.0040
      9  C          6.5840   -0.9310    0.1370 C.2     1  UNL1        0.0040
     10  C          5.3110    1.3350    0.9310 C.2     1  UNL1        0.0000
     11  C          6.1020   -0.8540    1.4110 C.2     1  UNL1        0.0000
     12  C          5.4540    0.2910    1.8230 C.2     1  UNL1        0.0000
@<TRIPOS>BOND
     1     5     4    1
     2     4     2    1
     3     3     2    2
     4     2     1    1
     5     6     1    1
     6     6     7    1
     7     7     8    2
     8     7     9    1
     9     8    10    1
    10     9    11    2
    11    10    12    2
    12    11    12    1
