@<TRIPOS>MOLECULE
/home/cewinharhar/GITHUB/reincatalyze/data/processed/docking_pred/2023-Apr-25-1630_maxeplen5_maxtrainstep200_exh32_gamma099_lrac3e-4_lrcr1e-3/0bc78f1071f374665515956646110ea4a2a90639_ligand_2.pdbqt
 12 12 0 0 0
SMALL
GASTEIGER

@<TRIPOS>ATOM
      1  C          8.2440    0.2570   -2.1650 C.3     1  UNL1        0.1270
      2  C          9.3790    0.3560   -1.2170 C.2     1  UNL1        0.3030
      3  O          9.4570   -0.4010   -0.2380 O.2     1  UNL1       -0.2520
      4  O         10.3620    1.3040   -1.4270 O.3     1  UNL1       -0.4810
      5  H         11.3110    1.0540   -1.6880 H       1  UNL1        0.2960
      6  C          7.1170   -0.5430   -1.5610 C.3     1  UNL1        0.0470
      7  C          6.3430    0.2210   -0.5640 C.2     1  UNL1       -0.0470
      8  C          6.1000   -0.2040    0.7160 C.2     1  UNL1        0.0040
      9  C          5.8320    1.4380   -0.9510 C.2     1  UNL1        0.0040
     10  C          5.3620    0.5770    1.5850 C.2     1  UNL1        0.0000
     11  C          5.1010    2.2240   -0.1090 C.2     1  UNL1        0.0000
     12  C          4.8570    1.7960    1.1790 C.2     1  UNL1        0.0000
@<TRIPOS>BOND
     1     1     6    1
     2     1     2    1
     3     5     4    1
     4     6     7    1
     5     4     2    1
     6     2     3    2
     7     9     7    2
     8     9    11    1
     9     7     8    1
    10    11    12    2
    11     8    10    2
    12    12    10    1
