@<TRIPOS>MOLECULE
/home/cewinharhar/GITHUB/reincatalyze/data/processed/docking_pred/2023-Apr-25-1630_maxeplen5_maxtrainstep200_exh32_gamma099_lrac3e-4_lrcr1e-3/0bc78f1071f374665515956646110ea4a2a90639_ligand_2.pdbqt
 12 12 0 0 0
SMALL
GASTEIGER

@<TRIPOS>ATOM
      1  C          5.0090    1.7860    0.7350 C.3     1  UNL1        0.1270
      2  C          4.4860    1.0920    1.9350 C.2     1  UNL1        0.3030
      3  O          5.1370    0.1870    2.4800 O.2     1  UNL1       -0.2520
      4  O          3.2590    1.4570    2.4540 O.3     1  UNL1       -0.4810
      5  H          2.3830    1.2230    1.9940 H       1  UNL1        0.2960
      6  C          6.5180    1.8000    0.7460 C.3     1  UNL1        0.0470
      7  C          7.1060    1.0020   -0.3470 C.2     1  UNL1       -0.0470
      8  C          6.4200    0.0590   -1.0690 C.2     1  UNL1        0.0040
      9  C          8.4280    1.2200   -0.6550 C.2     1  UNL1        0.0040
     10  C          7.0520   -0.6440   -2.0770 C.2     1  UNL1        0.0000
     11  C          9.0690    0.5360   -1.6450 C.2     1  UNL1        0.0000
     12  C          8.3800   -0.4110   -2.3720 C.2     1  UNL1        0.0000
@<TRIPOS>BOND
     1    12    10    2
     2    12    11    1
     3    10     8    1
     4    11     9    2
     5     8     7    2
     6     9     7    1
     7     7     6    1
     8     1     6    1
     9     1     2    1
    10     2     4    1
    11     2     3    2
    12     5     4    1
