MODEL 1
REMARK VINA RESULT:      -7.3      0.000      0.000
REMARK SMILES O=C(O)CCc1ccccc1
REMARK SMILES IDX 4 1 2 2 1 3 3 4 5 6 6 7 7 8 11 9 8 10 10 11 9 12
REMARK H PARENT 3 5
REMARK Flexibility Score: inf
ROOT
ATOM      1  C   UNL     1       8.405  -0.681  -2.089  1.00  0.00     0.127 C 
ENDROOT
BRANCH   1   2
ATOM      2  C   UNL     1       8.462  -1.926  -2.891  1.00  0.00     0.303 C 
ATOM      3  O   UNL     1       9.543  -2.499  -3.098  1.00  0.00    -0.252 OA
BRANCH   2   4
ATOM      4  O   UNL     1       7.298  -2.453  -3.416  1.00  0.00    -0.481 OA
ATOM      5  H   UNL     1       7.140  -2.531  -4.417  1.00  0.00     0.296 HD
ENDBRANCH   2   4
ENDBRANCH   1   2
BRANCH   1   6
ATOM      6  C   UNL     1       7.014  -0.098  -2.114  1.00  0.00     0.047 C 
BRANCH   6   7
ATOM      7  C   UNL     1       6.451   0.098  -0.764  1.00  0.00    -0.047 A 
ATOM      8  C   UNL     1       5.807   1.237  -0.354  1.00  0.00     0.004 A 
ATOM      9  C   UNL     1       6.584  -0.931   0.137  1.00  0.00     0.004 A 
ATOM     10  C   UNL     1       5.311   1.335   0.931  1.00  0.00     0.000 A 
ATOM     11  C   UNL     1       6.102  -0.854   1.411  1.00  0.00     0.000 A 
ATOM     12  C   UNL     1       5.454   0.291   1.823  1.00  0.00     0.000 A 
ENDBRANCH   6   7
ENDBRANCH   1   6
TORSDOF 4
ENDMDL
MODEL 2
REMARK VINA RESULT:      -7.2      0.116      1.725
REMARK SMILES O=C(O)CCc1ccccc1
REMARK SMILES IDX 4 1 2 2 1 3 3 4 5 6 6 7 7 8 11 9 8 10 10 11 9 12
REMARK H PARENT 3 5
REMARK Flexibility Score: inf
ROOT
ATOM      1  C   UNL     1       8.374  -0.576  -2.234  1.00  0.00     0.127 C 
ENDROOT
BRANCH   1   2
ATOM      2  C   UNL     1       8.344  -1.877  -2.943  1.00  0.00     0.303 C 
ATOM      3  O   UNL     1       7.266  -2.400  -3.265  1.00  0.00    -0.252 OA
BRANCH   2   4
ATOM      4  O   UNL     1       9.530  -2.515  -3.249  1.00  0.00    -0.481 OA
ATOM      5  H   UNL     1       9.628  -3.123  -4.058  1.00  0.00     0.296 HD
ENDBRANCH   2   4
ENDBRANCH   1   2
BRANCH   1   6
ATOM      6  C   UNL     1       6.985   0.001  -2.126  1.00  0.00     0.047 C 
BRANCH   6   7
ATOM      7  C   UNL     1       6.482   0.026  -0.739  1.00  0.00    -0.047 A 
ATOM      8  C   UNL     1       6.587  -1.022   0.139  1.00  0.00     0.004 A 
ATOM      9  C   UNL     1       5.867   1.177  -0.305  1.00  0.00     0.004 A 
ATOM     10  C   UNL     1       6.085  -0.911   1.422  1.00  0.00     0.000 A 
ATOM     11  C   UNL     1       5.366   1.305   0.957  1.00  0.00     0.000 A 
ATOM     12  C   UNL     1       5.472   0.253   1.840  1.00  0.00     0.000 A 
ENDBRANCH   6   7
ENDBRANCH   1   6
TORSDOF 4
ENDMDL
MODEL 3
REMARK VINA RESULT:      -7.0      0.419      1.053
REMARK SMILES O=C(O)CCc1ccccc1
REMARK SMILES IDX 4 1 2 2 1 3 3 4 5 6 6 7 7 8 11 9 8 10 10 11 9 12
REMARK H PARENT 3 5
REMARK Flexibility Score: inf
ROOT
ATOM      1  C   UNL     1       8.190  -1.227  -1.592  1.00  0.00     0.127 C 
ENDROOT
BRANCH   1   2
ATOM      2  C   UNL     1       8.271  -2.095  -2.790  1.00  0.00     0.303 C 
ATOM      3  O   UNL     1       7.248  -2.406  -3.420  1.00  0.00    -0.252 OA
BRANCH   2   4
ATOM      4  O   UNL     1       9.500  -2.564  -3.211  1.00  0.00    -0.481 OA
ATOM      5  H   UNL     1      10.194  -2.926  -2.563  1.00  0.00     0.296 HD
ENDBRANCH   2   4
ENDBRANCH   1   2
BRANCH   1   6
ATOM      6  C   UNL     1       7.202  -0.109  -1.814  1.00  0.00     0.047 C 
BRANCH   6   7
ATOM      7  C   UNL     1       6.457   0.247  -0.591  1.00  0.00    -0.047 A 
ATOM      8  C   UNL     1       5.753   1.413  -0.427  1.00  0.00     0.004 A 
ATOM      9  C   UNL     1       6.473  -0.651   0.449  1.00  0.00     0.004 A 
ATOM     10  C   UNL     1       5.084   1.665   0.755  1.00  0.00     0.000 A 
ATOM     11  C   UNL     1       5.819  -0.421   1.624  1.00  0.00     0.000 A 
ATOM     12  C   UNL     1       5.111   0.750   1.788  1.00  0.00     0.000 A 
ENDBRANCH   6   7
ENDBRANCH   1   6
TORSDOF 4
ENDMDL
MODEL 4
REMARK VINA RESULT:      -6.7      3.376      5.087
REMARK SMILES O=C(O)CCc1ccccc1
REMARK SMILES IDX 4 1 2 2 1 3 3 4 5 6 6 7 7 8 11 9 8 10 10 11 9 12
REMARK H PARENT 3 5
REMARK Flexibility Score: inf
ROOT
ATOM      1  C   UNL     1       5.009   1.786   0.735  1.00  0.00     0.127 C 
ENDROOT
BRANCH   1   2
ATOM      2  C   UNL     1       4.486   1.092   1.935  1.00  0.00     0.303 C 
ATOM      3  O   UNL     1       5.137   0.187   2.480  1.00  0.00    -0.252 OA
BRANCH   2   4
ATOM      4  O   UNL     1       3.259   1.457   2.454  1.00  0.00    -0.481 OA
ATOM      5  H   UNL     1       2.383   1.223   1.994  1.00  0.00     0.296 HD
ENDBRANCH   2   4
ENDBRANCH   1   2
BRANCH   1   6
ATOM      6  C   UNL     1       6.518   1.800   0.746  1.00  0.00     0.047 C 
BRANCH   6   7
ATOM      7  C   UNL     1       7.106   1.002  -0.347  1.00  0.00    -0.047 A 
ATOM      8  C   UNL     1       6.420   0.059  -1.069  1.00  0.00     0.004 A 
ATOM      9  C   UNL     1       8.428   1.220  -0.655  1.00  0.00     0.004 A 
ATOM     10  C   UNL     1       7.052  -0.644  -2.077  1.00  0.00     0.000 A 
ATOM     11  C   UNL     1       9.069   0.536  -1.645  1.00  0.00     0.000 A 
ATOM     12  C   UNL     1       8.380  -0.411  -2.372  1.00  0.00     0.000 A 
ENDBRANCH   6   7
ENDBRANCH   1   6
TORSDOF 4
ENDMDL
MODEL 5
REMARK VINA RESULT:      -6.6      1.940      2.661
REMARK SMILES O=C(O)CCc1ccccc1
REMARK SMILES IDX 4 1 2 2 1 3 3 4 5 6 6 7 7 8 11 9 8 10 10 11 9 12
REMARK H PARENT 3 5
REMARK Flexibility Score: inf
ROOT
ATOM      1  C   UNL     1       8.244   0.257  -2.165  1.00  0.00     0.127 C 
ENDROOT
BRANCH   1   2
ATOM      2  C   UNL     1       9.379   0.356  -1.217  1.00  0.00     0.303 C 
ATOM      3  O   UNL     1       9.457  -0.401  -0.238  1.00  0.00    -0.252 OA
BRANCH   2   4
ATOM      4  O   UNL     1      10.362   1.304  -1.427  1.00  0.00    -0.481 OA
ATOM      5  H   UNL     1      11.311   1.054  -1.688  1.00  0.00     0.296 HD
ENDBRANCH   2   4
ENDBRANCH   1   2
BRANCH   1   6
ATOM      6  C   UNL     1       7.117  -0.543  -1.561  1.00  0.00     0.047 C 
BRANCH   6   7
ATOM      7  C   UNL     1       6.343   0.221  -0.564  1.00  0.00    -0.047 A 
ATOM      8  C   UNL     1       6.100  -0.204   0.716  1.00  0.00     0.004 A 
ATOM      9  C   UNL     1       5.832   1.438  -0.951  1.00  0.00     0.004 A 
ATOM     10  C   UNL     1       5.362   0.577   1.585  1.00  0.00     0.000 A 
ATOM     11  C   UNL     1       5.101   2.224  -0.109  1.00  0.00     0.000 A 
ATOM     12  C   UNL     1       4.857   1.796   1.179  1.00  0.00     0.000 A 
ENDBRANCH   6   7
ENDBRANCH   1   6
TORSDOF 4
ENDMDL
