@<TRIPOS>MOLECULE
/home/cewinharhar/GITHUB/reincatalyze/data/processed/docking_pred/2023-Apr-25-1630_maxeplen5_maxtrainstep200_exh32_gamma099_lrac3e-4_lrcr1e-3/0bc78f1071f374665515956646110ea4a2a90639_ligand_2.pdbqt
 12 12 0 0 0
SMALL
GASTEIGER

@<TRIPOS>ATOM
      1  C          8.3740   -0.5760   -2.2340 C.3     1  UNL1        0.1270
      2  C          8.3440   -1.8770   -2.9430 C.2     1  UNL1        0.3030
      3  O          7.2660   -2.4000   -3.2650 O.2     1  UNL1       -0.2520
      4  O          9.5300   -2.5150   -3.2490 O.3     1  UNL1       -0.4810
      5  H          9.6280   -3.1230   -4.0580 H       1  UNL1        0.2960
      6  C          6.9850    0.0010   -2.1260 C.3     1  UNL1        0.0470
      7  C          6.4820    0.0260   -0.7390 C.2     1  UNL1       -0.0470
      8  C          6.5870   -1.0220    0.1390 C.2     1  UNL1        0.0040
      9  C          5.8670    1.1770   -0.3050 C.2     1  UNL1        0.0040
     10  C          6.0850   -0.9110    1.4220 C.2     1  UNL1        0.0000
     11  C          5.3660    1.3050    0.9570 C.2     1  UNL1        0.0000
     12  C          5.4720    0.2530    1.8400 C.2     1  UNL1        0.0000
@<TRIPOS>BOND
     1     5     4    1
     2     3     2    2
     3     4     2    1
     4     2     1    1
     5     1     6    1
     6     6     7    1
     7     7     9    2
     8     7     8    1
     9     9    11    1
    10     8    10    2
    11    11    12    2
    12    10    12    1
