@<TRIPOS>MOLECULE
/home/cewinharhar/GITHUB/reincatalyze/data/processed/docking_pred/2023-Apr-25-1630_maxeplen5_maxtrainstep200_exh32_gamma099_lrac3e-4_lrcr1e-3/0df60b8790b800bbceb9ee276e91b409308b6f54_ligand_2.pdbqt
 12 12 0 0 0
SMALL
GASTEIGER

@<TRIPOS>ATOM
      1  C          5.4770    2.9110    0.0190 C.3     1  UNL1        0.1270
      2  C          6.2770    3.8710    0.8160 C.2     1  UNL1        0.3030
      3  O          6.9220    4.7750    0.2610 O.2     1  UNL1       -0.2520
      4  O          6.3050    3.7590    2.1930 O.3     1  UNL1       -0.4810
      5  H          5.8160    3.0180    2.6870 H       1  UNL1        0.2960
      6  C          4.9100    1.8310    0.9050 C.3     1  UNL1        0.0470
      7  C          5.7220    0.5990    0.8980 C.2     1  UNL1       -0.0470
      8  C          6.4190    0.1400   -0.1900 C.2     1  UNL1        0.0040
      9  C          5.7780   -0.1350    2.0590 C.2     1  UNL1        0.0040
     10  C          7.1540   -1.0260   -0.1080 C.2     1  UNL1        0.0000
     11  C          6.4970   -1.2890    2.1610 C.2     1  UNL1        0.0000
     12  C          7.1990   -1.7490    1.0670 C.2     1  UNL1        0.0000
@<TRIPOS>BOND
     1     8    10    1
     2     8     7    2
     3    10    12    2
     4     1     2    1
     5     1     6    1
     6     3     2    2
     7     2     4    1
     8     7     6    1
     9     7     9    1
    10    12    11    1
    11     9    11    2
    12     4     5    1
