@<TRIPOS>MOLECULE
/home/cewinharhar/GITHUB/reincatalyze/data/processed/docking_pred/2023-Apr-25-1630_maxeplen5_maxtrainstep200_exh32_gamma099_lrac3e-4_lrcr1e-3/0df60b8790b800bbceb9ee276e91b409308b6f54_ligand_2.pdbqt
 12 12 0 0 0
SMALL
GASTEIGER

@<TRIPOS>ATOM
      1  C          8.1580   -1.2680   -1.5570 C.3     1  UNL1        0.1270
      2  C          8.2330   -2.1050   -2.7780 C.2     1  UNL1        0.3030
      3  O          7.2050   -2.4070   -3.4040 O.2     1  UNL1       -0.2520
      4  O          9.4610   -2.5540   -3.2230 O.3     1  UNL1       -0.4810
      5  H         10.2850   -1.9580   -3.2380 H       1  UNL1        0.2960
      6  C          7.2760   -0.0670   -1.7900 C.3     1  UNL1        0.0470
      7  C          6.4900    0.3060   -0.5980 C.2     1  UNL1       -0.0470
      8  C          5.7350    1.4460   -0.4970 C.2     1  UNL1        0.0040
      9  C          6.5230   -0.5470    0.4790 C.2     1  UNL1        0.0040
     10  C          5.0300    1.7180    0.6600 C.2     1  UNL1        0.0000
     11  C          5.8350   -0.2970    1.6300 C.2     1  UNL1        0.0000
     12  C          5.0750    0.8490    1.7310 C.2     1  UNL1        0.0000
@<TRIPOS>BOND
     1     3     2    2
     2     5     4    1
     3     4     2    1
     4     2     1    1
     5     6     1    1
     6     6     7    1
     7     7     8    2
     8     7     9    1
     9     8    10    1
    10     9    11    2
    11    10    12    2
    12    11    12    1
