MODEL 1
REMARK VINA RESULT:      -7.3      0.000      0.000
REMARK SMILES O=C(O)CCc1ccccc1
REMARK SMILES IDX 4 1 2 2 1 3 3 4 5 6 6 7 7 8 11 9 8 10 10 11 9 12
REMARK H PARENT 3 5
REMARK Flexibility Score: inf
ROOT
ATOM      1  C   UNL     1       8.434  -0.665  -2.114  1.00  0.00     0.127 C 
ENDROOT
BRANCH   1   2
ATOM      2  C   UNL     1       8.474  -1.919  -2.902  1.00  0.00     0.303 C 
ATOM      3  O   UNL     1       9.547  -2.507  -3.107  1.00  0.00    -0.252 OA
BRANCH   2   4
ATOM      4  O   UNL     1       7.302  -2.440  -3.416  1.00  0.00    -0.481 OA
ATOM      5  H   UNL     1       6.387  -2.161  -3.073  1.00  0.00     0.296 HD
ENDBRANCH   2   4
ENDBRANCH   1   2
BRANCH   1   6
ATOM      6  C   UNL     1       7.049  -0.067  -2.139  1.00  0.00     0.047 C 
BRANCH   6   7
ATOM      7  C   UNL     1       6.478   0.111  -0.790  1.00  0.00    -0.047 A 
ATOM      8  C   UNL     1       5.828   1.243  -0.370  1.00  0.00     0.004 A 
ATOM      9  C   UNL     1       6.609  -0.929   0.099  1.00  0.00     0.004 A 
ATOM     10  C   UNL     1       5.324   1.324   0.914  1.00  0.00     0.000 A 
ATOM     11  C   UNL     1       6.119  -0.869   1.371  1.00  0.00     0.000 A 
ATOM     12  C   UNL     1       5.465   0.269   1.793  1.00  0.00     0.000 A 
ENDBRANCH   6   7
ENDBRANCH   1   6
TORSDOF 4
ENDMDL
MODEL 2
REMARK VINA RESULT:      -7.3      0.097      1.429
REMARK SMILES O=C(O)CCc1ccccc1
REMARK SMILES IDX 4 1 2 2 1 3 3 4 5 6 6 7 7 8 11 9 8 10 10 11 9 12
REMARK H PARENT 3 5
REMARK Flexibility Score: inf
ROOT
ATOM      1  C   UNL     1       8.429  -0.569  -2.248  1.00  0.00     0.127 C 
ENDROOT
BRANCH   1   2
ATOM      2  C   UNL     1       8.480  -1.887  -2.925  1.00  0.00     0.303 C 
ATOM      3  O   UNL     1       9.559  -2.479  -3.081  1.00  0.00    -0.252 OA
BRANCH   2   4
ATOM      4  O   UNL     1       7.312  -2.462  -3.388  1.00  0.00    -0.481 OA
ATOM      5  H   UNL     1       6.395  -2.168  -3.063  1.00  0.00     0.296 HD
ENDBRANCH   2   4
ENDBRANCH   1   2
BRANCH   1   6
ATOM      6  C   UNL     1       7.011  -0.058  -2.190  1.00  0.00     0.047 C 
BRANCH   6   7
ATOM      7  C   UNL     1       6.493   0.041  -0.812  1.00  0.00    -0.047 A 
ATOM      8  C   UNL     1       6.603  -0.953   0.127  1.00  0.00     0.004 A 
ATOM      9  C   UNL     1       5.858   1.206  -0.452  1.00  0.00     0.004 A 
ATOM     10  C   UNL     1       6.087  -0.775   1.396  1.00  0.00     0.000 A 
ATOM     11  C   UNL     1       5.342   1.401   0.795  1.00  0.00     0.000 A 
ATOM     12  C   UNL     1       5.453   0.403   1.740  1.00  0.00     0.000 A 
ENDBRANCH   6   7
ENDBRANCH   1   6
TORSDOF 4
ENDMDL
MODEL 3
REMARK VINA RESULT:      -7.0      0.502      1.089
REMARK SMILES O=C(O)CCc1ccccc1
REMARK SMILES IDX 4 1 2 2 1 3 3 4 5 6 6 7 7 8 11 9 8 10 10 11 9 12
REMARK H PARENT 3 5
REMARK Flexibility Score: inf
ROOT
ATOM      1  C   UNL     1       8.158  -1.268  -1.557  1.00  0.00     0.127 C 
ENDROOT
BRANCH   1   2
ATOM      2  C   UNL     1       8.233  -2.105  -2.778  1.00  0.00     0.303 C 
ATOM      3  O   UNL     1       7.205  -2.407  -3.404  1.00  0.00    -0.252 OA
BRANCH   2   4
ATOM      4  O   UNL     1       9.461  -2.554  -3.223  1.00  0.00    -0.481 OA
ATOM      5  H   UNL     1      10.285  -1.958  -3.238  1.00  0.00     0.296 HD
ENDBRANCH   2   4
ENDBRANCH   1   2
BRANCH   1   6
ATOM      6  C   UNL     1       7.276  -0.067  -1.790  1.00  0.00     0.047 C 
BRANCH   6   7
ATOM      7  C   UNL     1       6.490   0.306  -0.598  1.00  0.00    -0.047 A 
ATOM      8  C   UNL     1       5.735   1.446  -0.497  1.00  0.00     0.004 A 
ATOM      9  C   UNL     1       6.523  -0.547   0.479  1.00  0.00     0.004 A 
ATOM     10  C   UNL     1       5.030   1.718   0.660  1.00  0.00     0.000 A 
ATOM     11  C   UNL     1       5.835  -0.297   1.630  1.00  0.00     0.000 A 
ATOM     12  C   UNL     1       5.075   0.849   1.731  1.00  0.00     0.000 A 
ENDBRANCH   6   7
ENDBRANCH   1   6
TORSDOF 4
ENDMDL
MODEL 4
REMARK VINA RESULT:      -6.8      3.375      5.057
REMARK SMILES O=C(O)CCc1ccccc1
REMARK SMILES IDX 4 1 2 2 1 3 3 4 5 6 6 7 7 8 11 9 8 10 10 11 9 12
REMARK H PARENT 3 5
REMARK Flexibility Score: inf
ROOT
ATOM      1  C   UNL     1       5.010   1.772   0.718  1.00  0.00     0.127 C 
ENDROOT
BRANCH   1   2
ATOM      2  C   UNL     1       4.493   1.092   1.929  1.00  0.00     0.303 C 
ATOM      3  O   UNL     1       5.148   0.194   2.482  1.00  0.00    -0.252 OA
BRANCH   2   4
ATOM      4  O   UNL     1       3.267   1.460   2.447  1.00  0.00    -0.481 OA
ATOM      5  H   UNL     1       2.616   2.051   1.936  1.00  0.00     0.296 HD
ENDBRANCH   2   4
ENDBRANCH   1   2
BRANCH   1   6
ATOM      6  C   UNL     1       6.515   1.866   0.766  1.00  0.00     0.047 C 
BRANCH   6   7
ATOM      7  C   UNL     1       7.171   1.110  -0.318  1.00  0.00    -0.047 A 
ATOM      8  C   UNL     1       8.501   1.212  -0.636  1.00  0.00     0.004 A 
ATOM      9  C   UNL     1       6.393   0.249  -1.055  1.00  0.00     0.004 A 
ATOM     10  C   UNL     1       9.031   0.465  -1.670  1.00  0.00     0.000 A 
ATOM     11  C   UNL     1       6.897  -0.497  -2.079  1.00  0.00     0.000 A 
ATOM     12  C   UNL     1       8.234  -0.395  -2.399  1.00  0.00     0.000 A 
ENDBRANCH   6   7
ENDBRANCH   1   6
TORSDOF 4
ENDMDL
MODEL 5
REMARK VINA RESULT:      -6.7      3.830      4.924
REMARK SMILES O=C(O)CCc1ccccc1
REMARK SMILES IDX 4 1 2 2 1 3 3 4 5 6 6 7 7 8 11 9 8 10 10 11 9 12
REMARK H PARENT 3 5
REMARK Flexibility Score: inf
ROOT
ATOM      1  C   UNL     1       5.477   2.911   0.019  1.00  0.00     0.127 C 
ENDROOT
BRANCH   1   2
ATOM      2  C   UNL     1       6.277   3.871   0.816  1.00  0.00     0.303 C 
ATOM      3  O   UNL     1       6.922   4.775   0.261  1.00  0.00    -0.252 OA
BRANCH   2   4
ATOM      4  O   UNL     1       6.305   3.759   2.193  1.00  0.00    -0.481 OA
ATOM      5  H   UNL     1       5.816   3.018   2.687  1.00  0.00     0.296 HD
ENDBRANCH   2   4
ENDBRANCH   1   2
BRANCH   1   6
ATOM      6  C   UNL     1       4.910   1.831   0.905  1.00  0.00     0.047 C 
BRANCH   6   7
ATOM      7  C   UNL     1       5.722   0.599   0.898  1.00  0.00    -0.047 A 
ATOM      8  C   UNL     1       6.419   0.140  -0.190  1.00  0.00     0.004 A 
ATOM      9  C   UNL     1       5.778  -0.135   2.059  1.00  0.00     0.004 A 
ATOM     10  C   UNL     1       7.154  -1.026  -0.108  1.00  0.00     0.000 A 
ATOM     11  C   UNL     1       6.497  -1.289   2.161  1.00  0.00     0.000 A 
ATOM     12  C   UNL     1       7.199  -1.749   1.067  1.00  0.00     0.000 A 
ENDBRANCH   6   7
ENDBRANCH   1   6
TORSDOF 4
ENDMDL
