@<TRIPOS>MOLECULE
/home/cewinharhar/GITHUB/reincatalyze/data/processed/docking_pred/2023-Apr-25-1630_maxeplen5_maxtrainstep200_exh32_gamma099_lrac3e-4_lrcr1e-3/0df60b8790b800bbceb9ee276e91b409308b6f54_ligand_2.pdbqt
 12 12 0 0 0
SMALL
GASTEIGER

@<TRIPOS>ATOM
      1  C          5.0100    1.7720    0.7180 C.3     1  UNL1        0.1270
      2  C          4.4930    1.0920    1.9290 C.2     1  UNL1        0.3030
      3  O          5.1480    0.1940    2.4820 O.2     1  UNL1       -0.2520
      4  O          3.2670    1.4600    2.4470 O.3     1  UNL1       -0.4810
      5  H          2.6160    2.0510    1.9360 H       1  UNL1        0.2960
      6  C          6.5150    1.8660    0.7660 C.3     1  UNL1        0.0470
      7  C          7.1710    1.1100   -0.3180 C.2     1  UNL1       -0.0470
      8  C          8.5010    1.2120   -0.6360 C.2     1  UNL1        0.0040
      9  C          6.3930    0.2490   -1.0550 C.2     1  UNL1        0.0040
     10  C          9.0310    0.4650   -1.6700 C.2     1  UNL1        0.0000
     11  C          6.8970   -0.4970   -2.0790 C.2     1  UNL1        0.0000
     12  C          8.2340   -0.3950   -2.3990 C.2     1  UNL1        0.0000
@<TRIPOS>BOND
     1    12    11    2
     2    12    10    1
     3    11     9    1
     4    10     8    2
     5     9     7    2
     6     8     7    1
     7     7     6    1
     8     1     6    1
     9     1     2    1
    10     2     4    1
    11     2     3    2
    12     5     4    1
