@<TRIPOS>MOLECULE
/home/cewinharhar/GITHUB/reincatalyze/data/processed/docking_pred/2023-Apr-25-1630_maxeplen5_maxtrainstep200_exh32_gamma099_lrac3e-4_lrcr1e-3/0df60b8790b800bbceb9ee276e91b409308b6f54_ligand_2.pdbqt
 12 12 0 0 0
SMALL
GASTEIGER

@<TRIPOS>ATOM
      1  C          8.4290   -0.5690   -2.2480 C.3     1  UNL1        0.1270
      2  C          8.4800   -1.8870   -2.9250 C.2     1  UNL1        0.3030
      3  O          9.5590   -2.4790   -3.0810 O.2     1  UNL1       -0.2520
      4  O          7.3120   -2.4620   -3.3880 O.3     1  UNL1       -0.4810
      5  H          6.3950   -2.1680   -3.0630 H       1  UNL1        0.2960
      6  C          7.0110   -0.0580   -2.1900 C.3     1  UNL1        0.0470
      7  C          6.4930    0.0410   -0.8120 C.2     1  UNL1       -0.0470
      8  C          6.6030   -0.9530    0.1270 C.2     1  UNL1        0.0040
      9  C          5.8580    1.2060   -0.4520 C.2     1  UNL1        0.0040
     10  C          6.0870   -0.7750    1.3960 C.2     1  UNL1        0.0000
     11  C          5.3420    1.4010    0.7950 C.2     1  UNL1        0.0000
     12  C          5.4530    0.4030    1.7400 C.2     1  UNL1        0.0000
@<TRIPOS>BOND
     1     4     5    1
     2     4     2    1
     3     3     2    2
     4     2     1    1
     5     1     6    1
     6     6     7    1
     7     7     9    2
     8     7     8    1
     9     9    11    1
    10     8    10    2
    11    11    12    2
    12    10    12    1
