@<TRIPOS>MOLECULE
/home/cewinharhar/GITHUB/reincatalyze/data/processed/docking_pred/2023-Apr-25-1630_maxeplen5_maxtrainstep200_exh32_gamma099_lrac3e-4_lrcr1e-3/0df60b8790b800bbceb9ee276e91b409308b6f54_ligand_2.pdbqt
 12 12 0 0 0
SMALL
GASTEIGER

@<TRIPOS>ATOM
      1  C          8.4340   -0.6650   -2.1140 C.3     1  UNL1        0.1270
      2  C          8.4740   -1.9190   -2.9020 C.2     1  UNL1        0.3030
      3  O          9.5470   -2.5070   -3.1070 O.2     1  UNL1       -0.2520
      4  O          7.3020   -2.4400   -3.4160 O.3     1  UNL1       -0.4810
      5  H          6.3870   -2.1610   -3.0730 H       1  UNL1        0.2960
      6  C          7.0490   -0.0670   -2.1390 C.3     1  UNL1        0.0470
      7  C          6.4780    0.1110   -0.7900 C.2     1  UNL1       -0.0470
      8  C          5.8280    1.2430   -0.3700 C.2     1  UNL1        0.0040
      9  C          6.6090   -0.9290    0.0990 C.2     1  UNL1        0.0040
     10  C          5.3240    1.3240    0.9140 C.2     1  UNL1        0.0000
     11  C          6.1190   -0.8690    1.3710 C.2     1  UNL1        0.0000
     12  C          5.4650    0.2690    1.7930 C.2     1  UNL1        0.0000
@<TRIPOS>BOND
     1     4     5    1
     2     4     2    1
     3     3     2    2
     4     2     1    1
     5     6     1    1
     6     6     7    1
     7     7     8    2
     8     7     9    1
     9     8    10    1
    10     9    11    2
    11    10    12    2
    12    11    12    1
