@<TRIPOS>MOLECULE
/home/cewinharhar/GITHUB/reincatalyze/data/processed/docking_pred/2023-Apr-25-1630_maxeplen5_maxtrainstep200_exh32_gamma099_lrac3e-4_lrcr1e-3/141be626e2cd6ba8f6b8a46d6dbef4dd02701a2b_ligand_2.pdbqt
 12 12 0 0 0
SMALL
GASTEIGER

@<TRIPOS>ATOM
      1  C          8.4110   -0.6700   -2.1100 C.3     1  UNL1        0.1270
      2  C          8.4660   -1.9180   -2.9070 C.2     1  UNL1        0.3030
      3  O          9.5450   -2.4980   -3.1060 O.2     1  UNL1       -0.2520
      4  O          7.3020   -2.4410   -3.4370 O.3     1  UNL1       -0.4810
      5  H          6.4300   -2.4640   -2.9150 H       1  UNL1        0.2960
      6  C          7.0190   -0.0890   -2.1300 C.3     1  UNL1        0.0470
      7  C          6.4590    0.1010   -0.7780 C.2     1  UNL1       -0.0470
      8  C          5.8130    1.2370   -0.3630 C.2     1  UNL1        0.0040
      9  C          6.5980   -0.9300    0.1200 C.2     1  UNL1        0.0040
     10  C          5.3190    1.3300    0.9240 C.2     1  UNL1        0.0000
     11  C          6.1180   -0.8590    1.3950 C.2     1  UNL1        0.0000
     12  C          5.4680    0.2830    1.8120 C.2     1  UNL1        0.0000
@<TRIPOS>BOND
     1     4     5    1
     2     4     2    1
     3     3     2    2
     4     2     1    1
     5     6     1    1
     6     6     7    1
     7     7     8    2
     8     7     9    1
     9     8    10    1
    10     9    11    2
    11    10    12    2
    12    11    12    1
