@<TRIPOS>MOLECULE
/home/cewinharhar/GITHUB/reincatalyze/data/processed/docking_pred/2023-Apr-25-1630_maxeplen5_maxtrainstep200_exh32_gamma099_lrac3e-4_lrcr1e-3/141be626e2cd6ba8f6b8a46d6dbef4dd02701a2b_ligand_2.pdbqt
 12 12 0 0 0
SMALL
GASTEIGER

@<TRIPOS>ATOM
      1  C          5.0270    1.7270    0.6820 C.3     1  UNL1        0.1270
      2  C          4.6040    1.0490    1.9300 C.2     1  UNL1        0.3030
      3  O          5.3470    0.2290    2.4910 O.2     1  UNL1       -0.2520
      4  O          3.3660    1.3320    2.4740 O.3     1  UNL1       -0.4810
      5  H          2.9210    0.7250    3.1570 H       1  UNL1        0.2960
      6  C          6.5230    1.9240    0.6680 C.3     1  UNL1        0.0470
      7  C          7.1960    1.1250   -0.3740 C.2     1  UNL1       -0.0470
      8  C          8.5370    1.1920   -0.6530 C.2     1  UNL1        0.0040
      9  C          6.4230    0.2600   -1.1110 C.2     1  UNL1        0.0040
     10  C          9.0840    0.4070   -1.6490 C.2     1  UNL1        0.0000
     11  C          6.9430   -0.5240   -2.0990 C.2     1  UNL1        0.0000
     12  C          8.2920   -0.4570   -2.3790 C.2     1  UNL1        0.0000
@<TRIPOS>BOND
     1    12    11    2
     2    12    10    1
     3    11     9    1
     4    10     8    2
     5     9     7    2
     6     8     7    1
     7     7     6    1
     8     6     1    1
     9     1     2    1
    10     2     4    1
    11     2     3    2
    12     4     5    1
