@<TRIPOS>MOLECULE
/home/cewinharhar/GITHUB/reincatalyze/data/processed/docking_pred/2023-Apr-25-1630_maxeplen5_maxtrainstep200_exh32_gamma099_lrac3e-4_lrcr1e-3/141be626e2cd6ba8f6b8a46d6dbef4dd02701a2b_ligand_2.pdbqt
 12 12 0 0 0
SMALL
GASTEIGER

@<TRIPOS>ATOM
      1  C          7.9060   -2.3580    0.7970 C.3     1  UNL1        0.1270
      2  C          8.7870   -3.4640    0.3510 C.2     1  UNL1        0.3030
      3  O          9.6820   -3.9000    1.0910 O.2     1  UNL1       -0.2520
      4  O          8.6090   -4.0140   -0.9040 O.3     1  UNL1       -0.4810
      5  H          8.1610   -3.5060   -1.6610 H       1  UNL1        0.2960
      6  C          7.5500   -1.4630   -0.3640 C.3     1  UNL1        0.0470
      7  C          6.6610   -0.3510    0.0230 C.2     1  UNL1       -0.0470
      8  C          6.3210    0.6890   -0.8040 C.2     1  UNL1        0.0040
      9  C          6.1430   -0.3620    1.2960 C.2     1  UNL1        0.0040
     10  C          5.4800    1.6900   -0.3580 C.2     1  UNL1        0.0000
     11  C          5.3120    0.6170    1.7560 C.2     1  UNL1        0.0000
     12  C          4.9690    1.6620    0.9240 C.2     1  UNL1        0.0000
@<TRIPOS>BOND
     1     5     4    1
     2     4     2    1
     3     8    10    1
     4     8     7    2
     5     6     7    1
     6     6     1    1
     7    10    12    2
     8     7     9    1
     9     2     1    1
    10     2     3    2
    11    12    11    1
    12     9    11    2
