MODEL 1
REMARK VINA RESULT:      -7.4      0.000      0.000
REMARK SMILES O=C(O)CCc1ccccc1
REMARK SMILES IDX 4 1 2 2 1 3 3 4 5 6 6 7 7 8 11 9 8 10 10 11 9 12
REMARK H PARENT 3 5
REMARK Flexibility Score: inf
ROOT
ATOM      1  C   UNL     1       8.461  -0.686  -2.083  1.00  0.00     0.127 C 
ENDROOT
BRANCH   1   2
ATOM      2  C   UNL     1       8.484  -1.938  -2.876  1.00  0.00     0.303 C 
ATOM      3  O   UNL     1       9.546  -2.550  -3.067  1.00  0.00    -0.252 OA
BRANCH   2   4
ATOM      4  O   UNL     1       7.307  -2.430  -3.408  1.00  0.00    -0.481 OA
ATOM      5  H   UNL     1       6.451  -1.884  -3.429  1.00  0.00     0.296 HD
ENDBRANCH   2   4
ENDBRANCH   1   2
BRANCH   1   6
ATOM      6  C   UNL     1       7.077  -0.086  -2.079  1.00  0.00     0.047 C 
BRANCH   6   7
ATOM      7  C   UNL     1       6.506   0.028  -0.724  1.00  0.00    -0.047 A 
ATOM      8  C   UNL     1       6.586  -0.952   0.233  1.00  0.00     0.004 A 
ATOM      9  C   UNL     1       5.850   1.193  -0.404  1.00  0.00     0.004 A 
ATOM     10  C   UNL     1       6.020  -0.761   1.478  1.00  0.00     0.000 A 
ATOM     11  C   UNL     1       5.284   1.401   0.819  1.00  0.00     0.000 A 
ATOM     12  C   UNL     1       5.366   0.417   1.781  1.00  0.00     0.000 A 
ENDBRANCH   6   7
ENDBRANCH   1   6
TORSDOF 4
ENDMDL
MODEL 2
REMARK VINA RESULT:      -7.3      0.104      1.428
REMARK SMILES O=C(O)CCc1ccccc1
REMARK SMILES IDX 4 1 2 2 1 3 3 4 5 6 6 7 7 8 11 9 8 10 10 11 9 12
REMARK H PARENT 3 5
REMARK Flexibility Score: inf
ROOT
ATOM      1  C   UNL     1       8.411  -0.670  -2.110  1.00  0.00     0.127 C 
ENDROOT
BRANCH   1   2
ATOM      2  C   UNL     1       8.466  -1.918  -2.907  1.00  0.00     0.303 C 
ATOM      3  O   UNL     1       9.545  -2.498  -3.106  1.00  0.00    -0.252 OA
BRANCH   2   4
ATOM      4  O   UNL     1       7.302  -2.441  -3.437  1.00  0.00    -0.481 OA
ATOM      5  H   UNL     1       6.430  -2.464  -2.915  1.00  0.00     0.296 HD
ENDBRANCH   2   4
ENDBRANCH   1   2
BRANCH   1   6
ATOM      6  C   UNL     1       7.019  -0.089  -2.130  1.00  0.00     0.047 C 
BRANCH   6   7
ATOM      7  C   UNL     1       6.459   0.101  -0.778  1.00  0.00    -0.047 A 
ATOM      8  C   UNL     1       5.813   1.237  -0.363  1.00  0.00     0.004 A 
ATOM      9  C   UNL     1       6.598  -0.930   0.120  1.00  0.00     0.004 A 
ATOM     10  C   UNL     1       5.319   1.330   0.924  1.00  0.00     0.000 A 
ATOM     11  C   UNL     1       6.118  -0.859   1.395  1.00  0.00     0.000 A 
ATOM     12  C   UNL     1       5.468   0.283   1.812  1.00  0.00     0.000 A 
ENDBRANCH   6   7
ENDBRANCH   1   6
TORSDOF 4
ENDMDL
MODEL 3
REMARK VINA RESULT:      -6.7      3.340      5.041
REMARK SMILES O=C(O)CCc1ccccc1
REMARK SMILES IDX 4 1 2 2 1 3 3 4 5 6 6 7 7 8 11 9 8 10 10 11 9 12
REMARK H PARENT 3 5
REMARK Flexibility Score: inf
ROOT
ATOM      1  C   UNL     1       5.027   1.727   0.682  1.00  0.00     0.127 C 
ENDROOT
BRANCH   1   2
ATOM      2  C   UNL     1       4.604   1.049   1.930  1.00  0.00     0.303 C 
ATOM      3  O   UNL     1       5.347   0.229   2.491  1.00  0.00    -0.252 OA
BRANCH   2   4
ATOM      4  O   UNL     1       3.366   1.332   2.474  1.00  0.00    -0.481 OA
ATOM      5  H   UNL     1       2.921   0.725   3.157  1.00  0.00     0.296 HD
ENDBRANCH   2   4
ENDBRANCH   1   2
BRANCH   1   6
ATOM      6  C   UNL     1       6.523   1.924   0.668  1.00  0.00     0.047 C 
BRANCH   6   7
ATOM      7  C   UNL     1       7.196   1.125  -0.374  1.00  0.00    -0.047 A 
ATOM      8  C   UNL     1       8.537   1.192  -0.653  1.00  0.00     0.004 A 
ATOM      9  C   UNL     1       6.423   0.260  -1.111  1.00  0.00     0.004 A 
ATOM     10  C   UNL     1       9.084   0.407  -1.649  1.00  0.00     0.000 A 
ATOM     11  C   UNL     1       6.943  -0.524  -2.099  1.00  0.00     0.000 A 
ATOM     12  C   UNL     1       8.292  -0.457  -2.379  1.00  0.00     0.000 A 
ENDBRANCH   6   7
ENDBRANCH   1   6
TORSDOF 4
ENDMDL
MODEL 4
REMARK VINA RESULT:      -6.7      1.950      2.618
REMARK SMILES O=C(O)CCc1ccccc1
REMARK SMILES IDX 4 1 2 2 1 3 3 4 5 6 6 7 7 8 11 9 8 10 10 11 9 12
REMARK H PARENT 3 5
REMARK Flexibility Score: inf
ROOT
ATOM      1  C   UNL     1       8.201   0.249  -2.069  1.00  0.00     0.127 C 
ENDROOT
BRANCH   1   2
ATOM      2  C   UNL     1       9.379   0.362  -1.178  1.00  0.00     0.303 C 
ATOM      3  O   UNL     1       9.499  -0.375  -0.186  1.00  0.00    -0.252 OA
BRANCH   2   4
ATOM      4  O   UNL     1      10.356   1.299  -1.453  1.00  0.00    -0.481 OA
ATOM      5  H   UNL     1      10.317   1.899  -2.272  1.00  0.00     0.296 HD
ENDBRANCH   2   4
ENDBRANCH   1   2
BRANCH   1   6
ATOM      6  C   UNL     1       7.131  -0.600  -1.429  1.00  0.00     0.047 C 
BRANCH   6   7
ATOM      7  C   UNL     1       6.341   0.137  -0.424  1.00  0.00    -0.047 A 
ATOM      8  C   UNL     1       5.782   1.371  -0.636  1.00  0.00     0.004 A 
ATOM      9  C   UNL     1       6.156  -0.457   0.802  1.00  0.00     0.004 A 
ATOM     10  C   UNL     1       5.057   1.990   0.364  1.00  0.00     0.000 A 
ATOM     11  C   UNL     1       5.444   0.138   1.801  1.00  0.00     0.000 A 
ATOM     12  C   UNL     1       4.882   1.378   1.589  1.00  0.00     0.000 A 
ENDBRANCH   6   7
ENDBRANCH   1   6
TORSDOF 4
ENDMDL
MODEL 5
REMARK VINA RESULT:      -6.5      2.029      2.738
REMARK SMILES O=C(O)CCc1ccccc1
REMARK SMILES IDX 4 1 2 2 1 3 3 4 5 6 6 7 7 8 11 9 8 10 10 11 9 12
REMARK H PARENT 3 5
REMARK Flexibility Score: inf
ROOT
ATOM      1  C   UNL     1       7.906  -2.358   0.797  1.00  0.00     0.127 C 
ENDROOT
BRANCH   1   2
ATOM      2  C   UNL     1       8.787  -3.464   0.351  1.00  0.00     0.303 C 
ATOM      3  O   UNL     1       9.682  -3.900   1.091  1.00  0.00    -0.252 OA
BRANCH   2   4
ATOM      4  O   UNL     1       8.609  -4.014  -0.904  1.00  0.00    -0.481 OA
ATOM      5  H   UNL     1       8.161  -3.506  -1.661  1.00  0.00     0.296 HD
ENDBRANCH   2   4
ENDBRANCH   1   2
BRANCH   1   6
ATOM      6  C   UNL     1       7.550  -1.463  -0.364  1.00  0.00     0.047 C 
BRANCH   6   7
ATOM      7  C   UNL     1       6.661  -0.351   0.023  1.00  0.00    -0.047 A 
ATOM      8  C   UNL     1       6.321   0.689  -0.804  1.00  0.00     0.004 A 
ATOM      9  C   UNL     1       6.143  -0.362   1.296  1.00  0.00     0.004 A 
ATOM     10  C   UNL     1       5.480   1.690  -0.358  1.00  0.00     0.000 A 
ATOM     11  C   UNL     1       5.312   0.617   1.756  1.00  0.00     0.000 A 
ATOM     12  C   UNL     1       4.969   1.662   0.924  1.00  0.00     0.000 A 
ENDBRANCH   6   7
ENDBRANCH   1   6
TORSDOF 4
ENDMDL
