@<TRIPOS>MOLECULE
/home/cewinharhar/GITHUB/reincatalyze/data/processed/docking_pred/2023-Apr-25-1630_maxeplen5_maxtrainstep200_exh32_gamma099_lrac3e-4_lrcr1e-3/141be626e2cd6ba8f6b8a46d6dbef4dd02701a2b_ligand_2.pdbqt
 12 12 0 0 0
SMALL
GASTEIGER

@<TRIPOS>ATOM
      1  C          8.2010    0.2490   -2.0690 C.3     1  UNL1        0.1270
      2  C          9.3790    0.3620   -1.1780 C.2     1  UNL1        0.3030
      3  O          9.4990   -0.3750   -0.1860 O.2     1  UNL1       -0.2520
      4  O         10.3560    1.2990   -1.4530 O.3     1  UNL1       -0.4810
      5  H         10.3170    1.8990   -2.2720 H       1  UNL1        0.2960
      6  C          7.1310   -0.6000   -1.4290 C.3     1  UNL1        0.0470
      7  C          6.3410    0.1370   -0.4240 C.2     1  UNL1       -0.0470
      8  C          5.7820    1.3710   -0.6360 C.2     1  UNL1        0.0040
      9  C          6.1560   -0.4570    0.8020 C.2     1  UNL1        0.0040
     10  C          5.0570    1.9900    0.3640 C.2     1  UNL1        0.0000
     11  C          5.4440    0.1380    1.8010 C.2     1  UNL1        0.0000
     12  C          4.8820    1.3780    1.5890 C.2     1  UNL1        0.0000
@<TRIPOS>BOND
     1     5     4    1
     2     1     6    1
     3     1     2    1
     4     4     2    1
     5     6     7    1
     6     2     3    2
     7     8     7    2
     8     8    10    1
     9     7     9    1
    10    10    12    2
    11     9    11    2
    12    12    11    1
