@<TRIPOS>MOLECULE
/home/cewinharhar/GITHUB/reincatalyze/data/processed/docking_pred/2023-Apr-25-1630_maxeplen5_maxtrainstep200_exh32_gamma099_lrac3e-4_lrcr1e-3/141be626e2cd6ba8f6b8a46d6dbef4dd02701a2b_ligand_2.pdbqt
 12 12 0 0 0
SMALL
GASTEIGER

@<TRIPOS>ATOM
      1  C          8.4610   -0.6860   -2.0830 C.3     1  UNL1        0.1270
      2  C          8.4840   -1.9380   -2.8760 C.2     1  UNL1        0.3030
      3  O          9.5460   -2.5500   -3.0670 O.2     1  UNL1       -0.2520
      4  O          7.3070   -2.4300   -3.4080 O.3     1  UNL1       -0.4810
      5  H          6.4510   -1.8840   -3.4290 H       1  UNL1        0.2960
      6  C          7.0770   -0.0860   -2.0790 C.3     1  UNL1        0.0470
      7  C          6.5060    0.0280   -0.7240 C.2     1  UNL1       -0.0470
      8  C          6.5860   -0.9520    0.2330 C.2     1  UNL1        0.0040
      9  C          5.8500    1.1930   -0.4040 C.2     1  UNL1        0.0040
     10  C          6.0200   -0.7610    1.4780 C.2     1  UNL1        0.0000
     11  C          5.2840    1.4010    0.8190 C.2     1  UNL1        0.0000
     12  C          5.3660    0.4170    1.7810 C.2     1  UNL1        0.0000
@<TRIPOS>BOND
     1     5     4    1
     2     4     2    1
     3     3     2    2
     4     2     1    1
     5     1     6    1
     6     6     7    1
     7     7     9    2
     8     7     8    1
     9     9    11    1
    10     8    10    2
    11    11    12    2
    12    10    12    1
