@<TRIPOS>MOLECULE
/home/cewinharhar/GITHUB/reincatalyze/data/processed/docking_pred/2023-Apr-25-1630_maxeplen5_maxtrainstep200_exh32_gamma099_lrac3e-4_lrcr1e-3/1444e75be78da7e2931ed2b5f85ad252461f0798_ligand_2.pdbqt
 12 12 0 0 0
SMALL
GASTEIGER

@<TRIPOS>ATOM
      1  C          4.9740    1.7510    0.7100 C.3     1  UNL1        0.1270
      2  C          4.4670    1.0740    1.9270 C.2     1  UNL1        0.3030
      3  O          5.1210    0.1710    2.4710 O.2     1  UNL1       -0.2520
      4  O          3.2500    1.4530    2.4610 O.3     1  UNL1       -0.4810
      5  H          3.1630    1.8230    3.4040 H       1  UNL1        0.2960
      6  C          6.4810    1.7960    0.7170 C.3     1  UNL1        0.0470
      7  C          7.0840    0.9880   -0.3600 C.2     1  UNL1       -0.0470
      8  C          6.4130    0.0270   -1.0720 C.2     1  UNL1        0.0040
      9  C          8.4050    1.2170   -0.6660 C.2     1  UNL1        0.0040
     10  C          7.0580   -0.6840   -2.0660 C.2     1  UNL1        0.0000
     11  C          9.0590    0.5260   -1.6420 C.2     1  UNL1        0.0000
     12  C          8.3850   -0.4400   -2.3580 C.2     1  UNL1        0.0000
@<TRIPOS>BOND
     1    12    10    2
     2    12    11    1
     3    10     8    1
     4    11     9    2
     5     8     7    2
     6     9     7    1
     7     7     6    1
     8     1     6    1
     9     1     2    1
    10     2     4    1
    11     2     3    2
    12     4     5    1
