@<TRIPOS>MOLECULE
/home/cewinharhar/GITHUB/reincatalyze/data/processed/docking_pred/2023-Apr-25-1630_maxeplen5_maxtrainstep200_exh32_gamma099_lrac3e-4_lrcr1e-3/1444e75be78da7e2931ed2b5f85ad252461f0798_ligand_2.pdbqt
 12 12 0 0 0
SMALL
GASTEIGER

@<TRIPOS>ATOM
      1  C          4.9690    1.6670    0.6300 C.3     1  UNL1        0.1270
      2  C          4.5260    1.0300    1.8930 C.2     1  UNL1        0.3030
      3  O          3.4400    1.3350    2.4110 O.2     1  UNL1       -0.2520
      4  O          5.3310    0.0860    2.5000 O.3     1  UNL1       -0.4810
      5  H          5.4120   -0.8650    2.1510 H       1  UNL1        0.2960
      6  C          6.4630    1.8760    0.6380 C.3     1  UNL1        0.0470
      7  C          7.1580    1.0740   -0.3860 C.2     1  UNL1       -0.0470
      8  C          8.4990    1.1660   -0.6600 C.2     1  UNL1        0.0040
      9  C          6.4090    0.1780   -1.1110 C.2     1  UNL1        0.0040
     10  C          9.0680    0.3760   -1.6400 C.2     1  UNL1        0.0000
     11  C          6.9520   -0.6110   -2.0820 C.2     1  UNL1        0.0000
     12  C          8.2990   -0.5190   -2.3580 C.2     1  UNL1        0.0000
@<TRIPOS>BOND
     1    12    11    2
     2    12    10    1
     3    11     9    1
     4    10     8    2
     5     9     7    2
     6     8     7    1
     7     7     6    1
     8     1     6    1
     9     1     2    1
    10     2     3    2
    11     2     4    1
    12     5     4    1
