@<TRIPOS>MOLECULE
/home/cewinharhar/GITHUB/reincatalyze/data/processed/docking_pred/2023-Apr-25-1630_maxeplen5_maxtrainstep200_exh32_gamma099_lrac3e-4_lrcr1e-3/1444e75be78da7e2931ed2b5f85ad252461f0798_ligand_2.pdbqt
 12 12 0 0 0
SMALL
GASTEIGER

@<TRIPOS>ATOM
      1  C          8.4670   -0.6480   -2.1540 C.3     1  UNL1        0.1270
      2  C          8.5000   -1.9270   -2.9030 C.2     1  UNL1        0.3030
      3  O          9.5660   -2.5420   -3.0620 O.2     1  UNL1       -0.2520
      4  O          7.3300   -2.4390   -3.4300 O.3     1  UNL1       -0.4810
      5  H          6.4160   -2.1990   -3.0580 H       1  UNL1        0.2960
      6  C          7.0700   -0.0790   -2.1380 C.3     1  UNL1        0.0470
      7  C          6.4940   -0.0130   -0.7810 C.2     1  UNL1       -0.0470
      8  C          6.5760   -1.0240    0.1420 C.2     1  UNL1        0.0040
      9  C          5.8330    1.1380   -0.4250 C.2     1  UNL1        0.0040
     10  C          6.0050   -0.8770    1.3920 C.2     1  UNL1        0.0000
     11  C          5.2630    1.3030    0.8030 C.2     1  UNL1        0.0000
     12  C          5.3450    0.2870    1.7320 C.2     1  UNL1        0.0000
@<TRIPOS>BOND
     1     4     5    1
     2     4     2    1
     3     3     2    2
     4     2     1    1
     5     1     6    1
     6     6     7    1
     7     7     9    2
     8     7     8    1
     9     9    11    1
    10     8    10    2
    11    11    12    2
    12    10    12    1
