MODEL 1
REMARK VINA RESULT:      -7.3      0.000      0.000
REMARK SMILES O=C(O)CCc1ccccc1
REMARK SMILES IDX 4 1 2 2 1 3 3 4 5 6 6 7 7 8 11 9 8 10 10 11 9 12
REMARK H PARENT 3 5
REMARK Flexibility Score: inf
ROOT
ATOM      1  C   UNL     1       8.467  -0.648  -2.154  1.00  0.00     0.127 C 
ENDROOT
BRANCH   1   2
ATOM      2  C   UNL     1       8.500  -1.927  -2.903  1.00  0.00     0.303 C 
ATOM      3  O   UNL     1       9.566  -2.542  -3.062  1.00  0.00    -0.252 OA
BRANCH   2   4
ATOM      4  O   UNL     1       7.330  -2.439  -3.430  1.00  0.00    -0.481 OA
ATOM      5  H   UNL     1       6.416  -2.199  -3.058  1.00  0.00     0.296 HD
ENDBRANCH   2   4
ENDBRANCH   1   2
BRANCH   1   6
ATOM      6  C   UNL     1       7.070  -0.079  -2.138  1.00  0.00     0.047 C 
BRANCH   6   7
ATOM      7  C   UNL     1       6.494  -0.013  -0.781  1.00  0.00    -0.047 A 
ATOM      8  C   UNL     1       6.576  -1.024   0.142  1.00  0.00     0.004 A 
ATOM      9  C   UNL     1       5.833   1.138  -0.425  1.00  0.00     0.004 A 
ATOM     10  C   UNL     1       6.005  -0.877   1.392  1.00  0.00     0.000 A 
ATOM     11  C   UNL     1       5.263   1.303   0.803  1.00  0.00     0.000 A 
ATOM     12  C   UNL     1       5.345   0.287   1.732  1.00  0.00     0.000 A 
ENDBRANCH   6   7
ENDBRANCH   1   6
TORSDOF 4
ENDMDL
MODEL 2
REMARK VINA RESULT:      -7.3      0.092      1.428
REMARK SMILES O=C(O)CCc1ccccc1
REMARK SMILES IDX 4 1 2 2 1 3 3 4 5 6 6 7 7 8 11 9 8 10 10 11 9 12
REMARK H PARENT 3 5
REMARK Flexibility Score: inf
ROOT
ATOM      1  C   UNL     1       8.430  -0.688  -2.073  1.00  0.00     0.127 C 
ENDROOT
BRANCH   1   2
ATOM      2  C   UNL     1       8.485  -1.930  -2.879  1.00  0.00     0.303 C 
ATOM      3  O   UNL     1       9.565  -2.502  -3.093  1.00  0.00    -0.252 OA
BRANCH   2   4
ATOM      4  O   UNL     1       7.319  -2.458  -3.400  1.00  0.00    -0.481 OA
ATOM      5  H   UNL     1       6.589  -1.874  -3.798  1.00  0.00     0.296 HD
ENDBRANCH   2   4
ENDBRANCH   1   2
BRANCH   1   6
ATOM      6  C   UNL     1       7.046  -0.090  -2.113  1.00  0.00     0.047 C 
BRANCH   6   7
ATOM      7  C   UNL     1       6.447   0.056  -0.772  1.00  0.00    -0.047 A 
ATOM      8  C   UNL     1       5.775   1.173  -0.344  1.00  0.00     0.004 A 
ATOM      9  C   UNL     1       6.574  -0.998   0.101  1.00  0.00     0.004 A 
ATOM     10  C   UNL     1       5.246   1.224   0.931  1.00  0.00     0.000 A 
ATOM     11  C   UNL     1       6.060  -0.967   1.364  1.00  0.00     0.000 A 
ATOM     12  C   UNL     1       5.384   0.155   1.794  1.00  0.00     0.000 A 
ENDBRANCH   6   7
ENDBRANCH   1   6
TORSDOF 4
ENDMDL
MODEL 3
REMARK VINA RESULT:      -7.1      0.609      1.118
REMARK SMILES O=C(O)CCc1ccccc1
REMARK SMILES IDX 4 1 2 2 1 3 3 4 5 6 6 7 7 8 11 9 8 10 10 11 9 12
REMARK H PARENT 3 5
REMARK Flexibility Score: inf
ROOT
ATOM      1  C   UNL     1       8.139  -0.903  -1.905  1.00  0.00     0.127 C 
ENDROOT
BRANCH   1   2
ATOM      2  C   UNL     1       8.340  -2.018  -2.860  1.00  0.00     0.303 C 
ATOM      3  O   UNL     1       9.470  -2.490  -3.057  1.00  0.00    -0.252 OA
BRANCH   2   4
ATOM      4  O   UNL     1       7.255  -2.539  -3.539  1.00  0.00    -0.481 OA
ATOM      5  H   UNL     1       6.316  -2.166  -3.430  1.00  0.00     0.296 HD
ENDBRANCH   2   4
ENDBRANCH   1   2
BRANCH   1   6
ATOM      6  C   UNL     1       7.492  -1.400  -0.637  1.00  0.00     0.047 C 
BRANCH   6   7
ATOM      7  C   UNL     1       6.590  -0.405  -0.026  1.00  0.00    -0.047 A 
ATOM      8  C   UNL     1       6.011  -0.543   1.209  1.00  0.00     0.004 A 
ATOM      9  C   UNL     1       6.314   0.732  -0.748  1.00  0.00     0.004 A 
ATOM     10  C   UNL     1       5.177   0.440   1.704  1.00  0.00     0.000 A 
ATOM     11  C   UNL     1       5.493   1.714  -0.277  1.00  0.00     0.000 A 
ATOM     12  C   UNL     1       4.912   1.576   0.965  1.00  0.00     0.000 A 
ENDBRANCH   6   7
ENDBRANCH   1   6
TORSDOF 4
ENDMDL
MODEL 4
REMARK VINA RESULT:      -6.9      3.381      5.067
REMARK SMILES O=C(O)CCc1ccccc1
REMARK SMILES IDX 4 1 2 2 1 3 3 4 5 6 6 7 7 8 11 9 8 10 10 11 9 12
REMARK H PARENT 3 5
REMARK Flexibility Score: inf
ROOT
ATOM      1  C   UNL     1       4.974   1.751   0.710  1.00  0.00     0.127 C 
ENDROOT
BRANCH   1   2
ATOM      2  C   UNL     1       4.467   1.074   1.927  1.00  0.00     0.303 C 
ATOM      3  O   UNL     1       5.121   0.171   2.471  1.00  0.00    -0.252 OA
BRANCH   2   4
ATOM      4  O   UNL     1       3.250   1.453   2.461  1.00  0.00    -0.481 OA
ATOM      5  H   UNL     1       3.163   1.823   3.404  1.00  0.00     0.296 HD
ENDBRANCH   2   4
ENDBRANCH   1   2
BRANCH   1   6
ATOM      6  C   UNL     1       6.481   1.796   0.717  1.00  0.00     0.047 C 
BRANCH   6   7
ATOM      7  C   UNL     1       7.084   0.988  -0.360  1.00  0.00    -0.047 A 
ATOM      8  C   UNL     1       6.413   0.027  -1.072  1.00  0.00     0.004 A 
ATOM      9  C   UNL     1       8.405   1.217  -0.666  1.00  0.00     0.004 A 
ATOM     10  C   UNL     1       7.058  -0.684  -2.066  1.00  0.00     0.000 A 
ATOM     11  C   UNL     1       9.059   0.526  -1.642  1.00  0.00     0.000 A 
ATOM     12  C   UNL     1       8.385  -0.440  -2.358  1.00  0.00     0.000 A 
ENDBRANCH   6   7
ENDBRANCH   1   6
TORSDOF 4
ENDMDL
MODEL 5
REMARK VINA RESULT:      -6.7      3.327      5.104
REMARK SMILES O=C(O)CCc1ccccc1
REMARK SMILES IDX 4 1 2 2 1 3 3 4 5 6 6 7 7 8 11 9 8 10 10 11 9 12
REMARK H PARENT 3 5
REMARK Flexibility Score: inf
ROOT
ATOM      1  C   UNL     1       4.969   1.667   0.630  1.00  0.00     0.127 C 
ENDROOT
BRANCH   1   2
ATOM      2  C   UNL     1       4.526   1.030   1.893  1.00  0.00     0.303 C 
ATOM      3  O   UNL     1       3.440   1.335   2.411  1.00  0.00    -0.252 OA
BRANCH   2   4
ATOM      4  O   UNL     1       5.331   0.086   2.500  1.00  0.00    -0.481 OA
ATOM      5  H   UNL     1       5.412  -0.865   2.151  1.00  0.00     0.296 HD
ENDBRANCH   2   4
ENDBRANCH   1   2
BRANCH   1   6
ATOM      6  C   UNL     1       6.463   1.876   0.638  1.00  0.00     0.047 C 
BRANCH   6   7
ATOM      7  C   UNL     1       7.158   1.074  -0.386  1.00  0.00    -0.047 A 
ATOM      8  C   UNL     1       8.499   1.166  -0.660  1.00  0.00     0.004 A 
ATOM      9  C   UNL     1       6.409   0.178  -1.111  1.00  0.00     0.004 A 
ATOM     10  C   UNL     1       9.068   0.376  -1.640  1.00  0.00     0.000 A 
ATOM     11  C   UNL     1       6.952  -0.611  -2.082  1.00  0.00     0.000 A 
ATOM     12  C   UNL     1       8.299  -0.519  -2.358  1.00  0.00     0.000 A 
ENDBRANCH   6   7
ENDBRANCH   1   6
TORSDOF 4
ENDMDL
