@<TRIPOS>MOLECULE
/home/cewinharhar/GITHUB/reincatalyze/data/processed/docking_pred/2023-Apr-25-1630_maxeplen5_maxtrainstep200_exh32_gamma099_lrac3e-4_lrcr1e-3/1444e75be78da7e2931ed2b5f85ad252461f0798_ligand_2.pdbqt
 12 12 0 0 0
SMALL
GASTEIGER

@<TRIPOS>ATOM
      1  C          8.1390   -0.9030   -1.9050 C.3     1  UNL1        0.1270
      2  C          8.3400   -2.0180   -2.8600 C.2     1  UNL1        0.3030
      3  O          9.4700   -2.4900   -3.0570 O.2     1  UNL1       -0.2520
      4  O          7.2550   -2.5390   -3.5390 O.3     1  UNL1       -0.4810
      5  H          6.3160   -2.1660   -3.4300 H       1  UNL1        0.2960
      6  C          7.4920   -1.4000   -0.6370 C.3     1  UNL1        0.0470
      7  C          6.5900   -0.4050   -0.0260 C.2     1  UNL1       -0.0470
      8  C          6.0110   -0.5430    1.2090 C.2     1  UNL1        0.0040
      9  C          6.3140    0.7320   -0.7480 C.2     1  UNL1        0.0040
     10  C          5.1770    0.4400    1.7040 C.2     1  UNL1        0.0000
     11  C          5.4930    1.7140   -0.2770 C.2     1  UNL1        0.0000
     12  C          4.9120    1.5760    0.9650 C.2     1  UNL1        0.0000
@<TRIPOS>BOND
     1     4     5    1
     2     4     2    1
     3     3     2    2
     4     2     1    1
     5     1     6    1
     6     9    11    1
     7     9     7    2
     8     6     7    1
     9    11    12    2
    10     7     8    1
    11    12    10    1
    12     8    10    2
