@<TRIPOS>MOLECULE
/home/cewinharhar/GITHUB/reincatalyze/data/processed/docking_pred/2023-Apr-25-1630_maxeplen5_maxtrainstep200_exh32_gamma099_lrac3e-4_lrcr1e-3/1444e75be78da7e2931ed2b5f85ad252461f0798_ligand_2.pdbqt
 12 12 0 0 0
SMALL
GASTEIGER

@<TRIPOS>ATOM
      1  C          8.4300   -0.6880   -2.0730 C.3     1  UNL1        0.1270
      2  C          8.4850   -1.9300   -2.8790 C.2     1  UNL1        0.3030
      3  O          9.5650   -2.5020   -3.0930 O.2     1  UNL1       -0.2520
      4  O          7.3190   -2.4580   -3.4000 O.3     1  UNL1       -0.4810
      5  H          6.5890   -1.8740   -3.7980 H       1  UNL1        0.2960
      6  C          7.0460   -0.0900   -2.1130 C.3     1  UNL1        0.0470
      7  C          6.4470    0.0560   -0.7720 C.2     1  UNL1       -0.0470
      8  C          5.7750    1.1730   -0.3440 C.2     1  UNL1        0.0040
      9  C          6.5740   -0.9980    0.1010 C.2     1  UNL1        0.0040
     10  C          5.2460    1.2240    0.9310 C.2     1  UNL1        0.0000
     11  C          6.0600   -0.9670    1.3640 C.2     1  UNL1        0.0000
     12  C          5.3840    0.1550    1.7940 C.2     1  UNL1        0.0000
@<TRIPOS>BOND
     1     5     4    1
     2     4     2    1
     3     3     2    2
     4     2     1    1
     5     6     1    1
     6     6     7    1
     7     7     8    2
     8     7     9    1
     9     8    10    1
    10     9    11    2
    11    10    12    2
    12    11    12    1
