@<TRIPOS>MOLECULE
/home/cewinharhar/GITHUB/reincatalyze/data/processed/docking_pred/2023-Apr-25-1630_maxeplen5_maxtrainstep200_exh32_gamma099_lrac3e-4_lrcr1e-3/16519f8051380dc2329c6f51dcb24a8f5dfeda31_ligand_2.pdbqt
 12 12 0 0 0
SMALL
GASTEIGER

@<TRIPOS>ATOM
      1  C          5.0180    1.7850    0.7380 C.3     1  UNL1        0.1270
      2  C          4.4900    1.0930    1.9380 C.2     1  UNL1        0.3030
      3  O          5.1390    0.1890    2.4860 O.2     1  UNL1       -0.2520
      4  O          3.2610    1.4590    2.4520 O.3     1  UNL1       -0.4810
      5  H          2.5120    1.8170    1.8650 H       1  UNL1        0.2960
      6  C          6.5230    1.8610    0.7890 C.3     1  UNL1        0.0470
      7  C          7.1710    1.1110   -0.3040 C.2     1  UNL1       -0.0470
      8  C          8.4940    1.2320   -0.6450 C.2     1  UNL1        0.0040
      9  C          6.3940    0.2370   -1.0250 C.2     1  UNL1        0.0040
     10  C          9.0180    0.4890   -1.6850 C.2     1  UNL1        0.0000
     11  C          6.8910   -0.5040   -2.0560 C.2     1  UNL1        0.0000
     12  C          8.2210   -0.3840   -2.3990 C.2     1  UNL1        0.0000
@<TRIPOS>BOND
     1    12    11    2
     2    12    10    1
     3    11     9    1
     4    10     8    2
     5     9     7    2
     6     8     7    1
     7     7     6    1
     8     1     6    1
     9     1     2    1
    10     5     4    1
    11     2     4    1
    12     2     3    2
