@<TRIPOS>MOLECULE
/home/cewinharhar/GITHUB/reincatalyze/data/processed/docking_pred/2023-Apr-25-1630_maxeplen5_maxtrainstep200_exh32_gamma099_lrac3e-4_lrcr1e-3/16519f8051380dc2329c6f51dcb24a8f5dfeda31_ligand_2.pdbqt
 12 12 0 0 0
SMALL
GASTEIGER

@<TRIPOS>ATOM
      1  C          5.3680    2.9830    0.0890 C.3     1  UNL1        0.1270
      2  C          6.2360    3.9170    0.8440 C.2     1  UNL1        0.3030
      3  O          6.9120    4.7740    0.2540 O.2     1  UNL1       -0.2520
      4  O          6.2930    3.8330    2.2220 O.3     1  UNL1       -0.4810
      5  H          7.0180    3.3100    2.7050 H       1  UNL1        0.2960
      6  C          5.1810    1.6970    0.8550 C.3     1  UNL1        0.0470
      7  C          5.9650    0.5780    0.2970 C.2     1  UNL1       -0.0470
      8  C          6.3770   -0.5120    1.0190 C.2     1  UNL1        0.0040
      9  C          6.3020    0.6390   -1.0350 C.2     1  UNL1        0.0040
     10  C          7.1100   -1.5150    0.4140 C.2     1  UNL1        0.0000
     11  C          7.0250   -0.3400   -1.6500 C.2     1  UNL1        0.0000
     12  C          7.4390   -1.4360   -0.9250 C.2     1  UNL1        0.0000
@<TRIPOS>BOND
     1    11     9    1
     2    11    12    2
     3     9     7    2
     4    12    10    1
     5     1     2    1
     6     1     6    1
     7     3     2    2
     8     7     6    1
     9     7     8    1
    10    10     8    2
    11     2     4    1
    12     4     5    1
