@<TRIPOS>MOLECULE
/home/cewinharhar/GITHUB/reincatalyze/data/processed/docking_pred/2023-Apr-25-1630_maxeplen5_maxtrainstep200_exh32_gamma099_lrac3e-4_lrcr1e-3/16519f8051380dc2329c6f51dcb24a8f5dfeda31_ligand_2.pdbqt
 12 12 0 0 0
SMALL
GASTEIGER

@<TRIPOS>ATOM
      1  C          8.4500   -0.6220   -2.1730 C.3     1  UNL1        0.1270
      2  C          8.4920   -1.9020   -2.9190 C.2     1  UNL1        0.3030
      3  O          9.5650   -2.4980   -3.0990 O.2     1  UNL1       -0.2520
      4  O          7.3210   -2.4370   -3.4210 O.3     1  UNL1       -0.4810
      5  H          6.5480   -1.8560   -3.7320 H       1  UNL1        0.2960
      6  C          7.0470   -0.0700   -2.1440 C.3     1  UNL1        0.0470
      7  C          6.5020    0.0390   -0.7780 C.2     1  UNL1       -0.0470
      8  C          6.6040   -0.9430    0.1750 C.2     1  UNL1        0.0040
      9  C          5.8500    1.2020   -0.4420 C.2     1  UNL1        0.0040
     10  C          6.0620   -0.7560    1.4310 C.2     1  UNL1        0.0000
     11  C          5.3090    1.4060    0.7920 C.2     1  UNL1        0.0000
     12  C          5.4110    0.4200    1.7500 C.2     1  UNL1        0.0000
@<TRIPOS>BOND
     1     5     4    1
     2     4     2    1
     3     3     2    2
     4     2     1    1
     5     1     6    1
     6     6     7    1
     7     7     9    2
     8     7     8    1
     9     9    11    1
    10     8    10    2
    11    11    12    2
    12    10    12    1
