MODEL 1
REMARK VINA RESULT:      -7.4      0.000      0.000
REMARK SMILES O=C(O)CCc1ccccc1
REMARK SMILES IDX 4 1 2 2 1 3 3 4 5 6 6 7 7 8 11 9 8 10 10 11 9 12
REMARK H PARENT 3 5
REMARK Flexibility Score: inf
ROOT
ATOM      1  C   UNL     1       8.450  -0.622  -2.173  1.00  0.00     0.127 C 
ENDROOT
BRANCH   1   2
ATOM      2  C   UNL     1       8.492  -1.902  -2.919  1.00  0.00     0.303 C 
ATOM      3  O   UNL     1       9.565  -2.498  -3.099  1.00  0.00    -0.252 OA
BRANCH   2   4
ATOM      4  O   UNL     1       7.321  -2.437  -3.421  1.00  0.00    -0.481 OA
ATOM      5  H   UNL     1       6.548  -1.856  -3.732  1.00  0.00     0.296 HD
ENDBRANCH   2   4
ENDBRANCH   1   2
BRANCH   1   6
ATOM      6  C   UNL     1       7.047  -0.070  -2.144  1.00  0.00     0.047 C 
BRANCH   6   7
ATOM      7  C   UNL     1       6.502   0.039  -0.778  1.00  0.00    -0.047 A 
ATOM      8  C   UNL     1       6.604  -0.943   0.175  1.00  0.00     0.004 A 
ATOM      9  C   UNL     1       5.850   1.202  -0.442  1.00  0.00     0.004 A 
ATOM     10  C   UNL     1       6.062  -0.756   1.431  1.00  0.00     0.000 A 
ATOM     11  C   UNL     1       5.309   1.406   0.792  1.00  0.00     0.000 A 
ATOM     12  C   UNL     1       5.411   0.420   1.750  1.00  0.00     0.000 A 
ENDBRANCH   6   7
ENDBRANCH   1   6
TORSDOF 4
ENDMDL
MODEL 2
REMARK VINA RESULT:      -7.3      0.103      1.429
REMARK SMILES O=C(O)CCc1ccccc1
REMARK SMILES IDX 4 1 2 2 1 3 3 4 5 6 6 7 7 8 11 9 8 10 10 11 9 12
REMARK H PARENT 3 5
REMARK Flexibility Score: inf
ROOT
ATOM      1  C   UNL     1       8.388  -0.664  -2.102  1.00  0.00     0.127 C 
ENDROOT
BRANCH   1   2
ATOM      2  C   UNL     1       8.455  -1.917  -2.891  1.00  0.00     0.303 C 
ATOM      3  O   UNL     1       9.539  -2.487  -3.087  1.00  0.00    -0.252 OA
BRANCH   2   4
ATOM      4  O   UNL     1       7.296  -2.455  -3.415  1.00  0.00    -0.481 OA
ATOM      5  H   UNL     1       6.425  -2.484  -2.892  1.00  0.00     0.296 HD
ENDBRANCH   2   4
ENDBRANCH   1   2
BRANCH   1   6
ATOM      6  C   UNL     1       6.987  -0.105  -2.113  1.00  0.00     0.047 C 
BRANCH   6   7
ATOM      7  C   UNL     1       6.439   0.094  -0.757  1.00  0.00    -0.047 A 
ATOM      8  C   UNL     1       5.820   1.243  -0.336  1.00  0.00     0.004 A 
ATOM      9  C   UNL     1       6.562  -0.942   0.137  1.00  0.00     0.004 A 
ATOM     10  C   UNL     1       5.337   1.343   0.954  1.00  0.00     0.000 A 
ATOM     11  C   UNL     1       6.092  -0.863   1.415  1.00  0.00     0.000 A 
ATOM     12  C   UNL     1       5.469   0.292   1.839  1.00  0.00     0.000 A 
ENDBRANCH   6   7
ENDBRANCH   1   6
TORSDOF 4
ENDMDL
MODEL 3
REMARK VINA RESULT:      -6.8      3.377      5.079
REMARK SMILES O=C(O)CCc1ccccc1
REMARK SMILES IDX 4 1 2 2 1 3 3 4 5 6 6 7 7 8 11 9 8 10 10 11 9 12
REMARK H PARENT 3 5
REMARK Flexibility Score: inf
ROOT
ATOM      1  C   UNL     1       5.018   1.785   0.738  1.00  0.00     0.127 C 
ENDROOT
BRANCH   1   2
ATOM      2  C   UNL     1       4.490   1.093   1.938  1.00  0.00     0.303 C 
ATOM      3  O   UNL     1       5.139   0.189   2.486  1.00  0.00    -0.252 OA
BRANCH   2   4
ATOM      4  O   UNL     1       3.261   1.459   2.452  1.00  0.00    -0.481 OA
ATOM      5  H   UNL     1       2.512   1.817   1.865  1.00  0.00     0.296 HD
ENDBRANCH   2   4
ENDBRANCH   1   2
BRANCH   1   6
ATOM      6  C   UNL     1       6.523   1.861   0.789  1.00  0.00     0.047 C 
BRANCH   6   7
ATOM      7  C   UNL     1       7.171   1.111  -0.304  1.00  0.00    -0.047 A 
ATOM      8  C   UNL     1       8.494   1.232  -0.645  1.00  0.00     0.004 A 
ATOM      9  C   UNL     1       6.394   0.237  -1.025  1.00  0.00     0.004 A 
ATOM     10  C   UNL     1       9.018   0.489  -1.685  1.00  0.00     0.000 A 
ATOM     11  C   UNL     1       6.891  -0.504  -2.056  1.00  0.00     0.000 A 
ATOM     12  C   UNL     1       8.221  -0.384  -2.399  1.00  0.00     0.000 A 
ENDBRANCH   6   7
ENDBRANCH   1   6
TORSDOF 4
ENDMDL
MODEL 4
REMARK VINA RESULT:      -6.6      1.945      2.623
REMARK SMILES O=C(O)CCc1ccccc1
REMARK SMILES IDX 4 1 2 2 1 3 3 4 5 6 6 7 7 8 11 9 8 10 10 11 9 12
REMARK H PARENT 3 5
REMARK Flexibility Score: inf
ROOT
ATOM      1  C   UNL     1       8.224   0.263  -2.101  1.00  0.00     0.127 C 
ENDROOT
BRANCH   1   2
ATOM      2  C   UNL     1       9.387   0.368  -1.189  1.00  0.00     0.303 C 
ATOM      3  O   UNL     1       9.490  -0.377  -0.202  1.00  0.00    -0.252 OA
BRANCH   2   4
ATOM      4  O   UNL     1      10.368   1.307  -1.440  1.00  0.00    -0.481 OA
ATOM      5  H   UNL     1      10.165   2.301  -1.505  1.00  0.00     0.296 HD
ENDBRANCH   2   4
ENDBRANCH   1   2
BRANCH   1   6
ATOM      6  C   UNL     1       7.133  -0.570  -1.474  1.00  0.00     0.047 C 
BRANCH   6   7
ATOM      7  C   UNL     1       6.344   0.177  -0.476  1.00  0.00    -0.047 A 
ATOM      8  C   UNL     1       5.777   1.405  -0.702  1.00  0.00     0.004 A 
ATOM      9  C   UNL     1       6.172  -0.399   0.760  1.00  0.00     0.004 A 
ATOM     10  C   UNL     1       5.054   2.035   0.293  1.00  0.00     0.000 A 
ATOM     11  C   UNL     1       5.462   0.206   1.756  1.00  0.00     0.000 A 
ATOM     12  C   UNL     1       4.891   1.440   1.529  1.00  0.00     0.000 A 
ENDBRANCH   6   7
ENDBRANCH   1   6
TORSDOF 4
ENDMDL
MODEL 5
REMARK VINA RESULT:      -6.6      3.729      4.978
REMARK SMILES O=C(O)CCc1ccccc1
REMARK SMILES IDX 4 1 2 2 1 3 3 4 5 6 6 7 7 8 11 9 8 10 10 11 9 12
REMARK H PARENT 3 5
REMARK Flexibility Score: inf
ROOT
ATOM      1  C   UNL     1       5.368   2.983   0.089  1.00  0.00     0.127 C 
ENDROOT
BRANCH   1   2
ATOM      2  C   UNL     1       6.236   3.917   0.844  1.00  0.00     0.303 C 
ATOM      3  O   UNL     1       6.912   4.774   0.254  1.00  0.00    -0.252 OA
BRANCH   2   4
ATOM      4  O   UNL     1       6.293   3.833   2.222  1.00  0.00    -0.481 OA
ATOM      5  H   UNL     1       7.018   3.310   2.705  1.00  0.00     0.296 HD
ENDBRANCH   2   4
ENDBRANCH   1   2
BRANCH   1   6
ATOM      6  C   UNL     1       5.181   1.697   0.855  1.00  0.00     0.047 C 
BRANCH   6   7
ATOM      7  C   UNL     1       5.965   0.578   0.297  1.00  0.00    -0.047 A 
ATOM      8  C   UNL     1       6.377  -0.512   1.019  1.00  0.00     0.004 A 
ATOM      9  C   UNL     1       6.302   0.639  -1.035  1.00  0.00     0.004 A 
ATOM     10  C   UNL     1       7.110  -1.515   0.414  1.00  0.00     0.000 A 
ATOM     11  C   UNL     1       7.025  -0.340  -1.650  1.00  0.00     0.000 A 
ATOM     12  C   UNL     1       7.439  -1.436  -0.925  1.00  0.00     0.000 A 
ENDBRANCH   6   7
ENDBRANCH   1   6
TORSDOF 4
ENDMDL
