@<TRIPOS>MOLECULE
/home/cewinharhar/GITHUB/reincatalyze/data/processed/docking_pred/2023-Apr-25-1630_maxeplen5_maxtrainstep200_exh32_gamma099_lrac3e-4_lrcr1e-3/16519f8051380dc2329c6f51dcb24a8f5dfeda31_ligand_2.pdbqt
 12 12 0 0 0
SMALL
GASTEIGER

@<TRIPOS>ATOM
      1  C          8.2240    0.2630   -2.1010 C.3     1  UNL1        0.1270
      2  C          9.3870    0.3680   -1.1890 C.2     1  UNL1        0.3030
      3  O          9.4900   -0.3770   -0.2020 O.2     1  UNL1       -0.2520
      4  O         10.3680    1.3070   -1.4400 O.3     1  UNL1       -0.4810
      5  H         10.1650    2.3010   -1.5050 H       1  UNL1        0.2960
      6  C          7.1330   -0.5700   -1.4740 C.3     1  UNL1        0.0470
      7  C          6.3440    0.1770   -0.4760 C.2     1  UNL1       -0.0470
      8  C          5.7770    1.4050   -0.7020 C.2     1  UNL1        0.0040
      9  C          6.1720   -0.3990    0.7600 C.2     1  UNL1        0.0040
     10  C          5.0540    2.0350    0.2930 C.2     1  UNL1        0.0000
     11  C          5.4620    0.2060    1.7560 C.2     1  UNL1        0.0000
     12  C          4.8910    1.4400    1.5290 C.2     1  UNL1        0.0000
@<TRIPOS>BOND
     1     1     6    1
     2     1     2    1
     3     5     4    1
     4     6     7    1
     5     4     2    1
     6     2     3    2
     7     8     7    2
     8     8    10    1
     9     7     9    1
    10    10    12    2
    11     9    11    2
    12    12    11    1
