@<TRIPOS>MOLECULE
/home/cewinharhar/GITHUB/reincatalyze/data/processed/docking_pred/2023-Apr-25-1630_maxeplen5_maxtrainstep200_exh32_gamma099_lrac3e-4_lrcr1e-3/16519f8051380dc2329c6f51dcb24a8f5dfeda31_ligand_2.pdbqt
 12 12 0 0 0
SMALL
GASTEIGER

@<TRIPOS>ATOM
      1  C          8.3880   -0.6640   -2.1020 C.3     1  UNL1        0.1270
      2  C          8.4550   -1.9170   -2.8910 C.2     1  UNL1        0.3030
      3  O          9.5390   -2.4870   -3.0870 O.2     1  UNL1       -0.2520
      4  O          7.2960   -2.4550   -3.4150 O.3     1  UNL1       -0.4810
      5  H          6.4250   -2.4840   -2.8920 H       1  UNL1        0.2960
      6  C          6.9870   -0.1050   -2.1130 C.3     1  UNL1        0.0470
      7  C          6.4390    0.0940   -0.7570 C.2     1  UNL1       -0.0470
      8  C          5.8200    1.2430   -0.3360 C.2     1  UNL1        0.0040
      9  C          6.5620   -0.9420    0.1370 C.2     1  UNL1        0.0040
     10  C          5.3370    1.3430    0.9540 C.2     1  UNL1        0.0000
     11  C          6.0920   -0.8630    1.4150 C.2     1  UNL1        0.0000
     12  C          5.4690    0.2920    1.8390 C.2     1  UNL1        0.0000
@<TRIPOS>BOND
     1     4     5    1
     2     4     2    1
     3     3     2    2
     4     2     1    1
     5     6     1    1
     6     6     7    1
     7     7     8    2
     8     7     9    1
     9     8    10    1
    10     9    11    2
    11    10    12    2
    12    11    12    1
