@<TRIPOS>MOLECULE
/home/cewinharhar/GITHUB/reincatalyze/data/processed/docking_pred/2023-Apr-25-1630_maxeplen5_maxtrainstep200_exh32_gamma099_lrac3e-4_lrcr1e-3/1a0a4210c7fbec369f44508687af2363e72d8760_ligand_2.pdbqt
 12 12 0 0 0
SMALL
GASTEIGER

@<TRIPOS>ATOM
      1  C          5.0030    1.8060    0.7230 C.3     1  UNL1        0.1270
      2  C          4.5010    1.1040    1.9290 C.2     1  UNL1        0.3030
      3  O          5.1720    0.2120    2.4700 O.2     1  UNL1       -0.2520
      4  O          3.2710    1.4480    2.4550 O.3     1  UNL1       -0.4810
      5  H          2.4410    0.8780    2.3160 H       1  UNL1        0.2960
      6  C          6.5100    1.8430    0.7210 C.3     1  UNL1        0.0470
      7  C          7.1010    1.0300   -0.3600 C.2     1  UNL1       -0.0470
      8  C          6.4060    0.1120   -1.1040 C.2     1  UNL1        0.0040
      9  C          8.4360    1.2090   -0.6340 C.2     1  UNL1        0.0040
     10  C          7.0410   -0.6070   -2.0980 C.2     1  UNL1        0.0000
     11  C          9.0820    0.5090   -1.6110 C.2     1  UNL1        0.0000
     12  C          8.3830   -0.4140   -2.3590 C.2     1  UNL1        0.0000
@<TRIPOS>BOND
     1    12    10    2
     2    12    11    1
     3    10     8    1
     4    11     9    2
     5     8     7    2
     6     9     7    1
     7     7     6    1
     8     6     1    1
     9     1     2    1
    10     2     4    1
    11     2     3    2
    12     5     4    1
