@<TRIPOS>MOLECULE
/home/cewinharhar/GITHUB/reincatalyze/data/processed/docking_pred/2023-Apr-25-1630_maxeplen5_maxtrainstep200_exh32_gamma099_lrac3e-4_lrcr1e-3/1a0a4210c7fbec369f44508687af2363e72d8760_ligand_2.pdbqt
 12 12 0 0 0
SMALL
GASTEIGER

@<TRIPOS>ATOM
      1  C          8.1970    0.2250   -2.1190 C.3     1  UNL1        0.1270
      2  C          9.3510    0.3570   -1.1980 C.2     1  UNL1        0.3030
      3  O          9.4690   -0.3920   -0.2150 O.2     1  UNL1       -0.2520
      4  O         10.3060    1.3270   -1.4350 O.3     1  UNL1       -0.4810
      5  H         10.6070    1.5740   -2.3740 H       1  UNL1        0.2960
      6  C          7.1020   -0.5940   -1.4820 C.3     1  UNL1        0.0470
      7  C          6.3250    0.1670   -0.4840 C.2     1  UNL1       -0.0470
      8  C          5.7790    1.4040   -0.7110 C.2     1  UNL1        0.0040
      9  C          6.1400   -0.4070    0.7520 C.2     1  UNL1        0.0040
     10  C          5.0660    2.0460    0.2830 C.2     1  UNL1        0.0000
     11  C          5.4400    0.2100    1.7460 C.2     1  UNL1        0.0000
     12  C          4.8910    1.4540    1.5180 C.2     1  UNL1        0.0000
@<TRIPOS>BOND
     1     5     4    1
     2     1     6    1
     3     1     2    1
     4     6     7    1
     5     4     2    1
     6     2     3    2
     7     8     7    2
     8     8    10    1
     9     7     9    1
    10    10    12    2
    11     9    11    2
    12    12    11    1
