@<TRIPOS>MOLECULE
/home/cewinharhar/GITHUB/reincatalyze/data/processed/docking_pred/2023-Apr-25-1630_maxeplen5_maxtrainstep200_exh32_gamma099_lrac3e-4_lrcr1e-3/1a0a4210c7fbec369f44508687af2363e72d8760_ligand_2.pdbqt
 12 12 0 0 0
SMALL
GASTEIGER

@<TRIPOS>ATOM
      1  C          8.4830   -0.6370   -2.1700 C.3     1  UNL1        0.1270
      2  C          8.4940   -1.9150   -2.9210 C.2     1  UNL1        0.3030
      3  O          9.5530   -2.5370   -3.0990 O.2     1  UNL1       -0.2520
      4  O          7.3120   -2.4180   -3.4280 O.3     1  UNL1       -0.4810
      5  H          7.1510   -2.5260   -4.4260 H       1  UNL1        0.2960
      6  C          7.0900   -0.0600   -2.1270 C.3     1  UNL1        0.0470
      7  C          6.5430    0.0130   -0.7580 C.2     1  UNL1       -0.0470
      8  C          6.6580   -0.9870    0.1730 C.2     1  UNL1        0.0040
      9  C          5.8740    1.1590   -0.3990 C.2     1  UNL1        0.0040
     10  C          6.1130   -0.8340    1.4330 C.2     1  UNL1        0.0000
     11  C          5.3290    1.3290    0.8390 C.2     1  UNL1        0.0000
     12  C          5.4450    0.3240    1.7750 C.2     1  UNL1        0.0000
@<TRIPOS>BOND
     1     5     4    1
     2     4     2    1
     3     3     2    2
     4     2     1    1
     5     1     6    1
     6     6     7    1
     7     7     9    2
     8     7     8    1
     9     9    11    1
    10     8    10    2
    11    11    12    2
    12    10    12    1
