MODEL 1
REMARK VINA RESULT:      -7.4      0.000      0.000
REMARK SMILES O=C(O)CCc1ccccc1
REMARK SMILES IDX 4 1 2 2 1 3 3 4 5 6 6 7 7 8 11 9 8 10 10 11 9 12
REMARK H PARENT 3 5
REMARK Flexibility Score: inf
ROOT
ATOM      1  C   UNL     1       8.483  -0.637  -2.170  1.00  0.00     0.127 C 
ENDROOT
BRANCH   1   2
ATOM      2  C   UNL     1       8.494  -1.915  -2.921  1.00  0.00     0.303 C 
ATOM      3  O   UNL     1       9.553  -2.537  -3.099  1.00  0.00    -0.252 OA
BRANCH   2   4
ATOM      4  O   UNL     1       7.312  -2.418  -3.428  1.00  0.00    -0.481 OA
ATOM      5  H   UNL     1       7.151  -2.526  -4.426  1.00  0.00     0.296 HD
ENDBRANCH   2   4
ENDBRANCH   1   2
BRANCH   1   6
ATOM      6  C   UNL     1       7.090  -0.060  -2.127  1.00  0.00     0.047 C 
BRANCH   6   7
ATOM      7  C   UNL     1       6.543   0.013  -0.758  1.00  0.00    -0.047 A 
ATOM      8  C   UNL     1       6.658  -0.987   0.173  1.00  0.00     0.004 A 
ATOM      9  C   UNL     1       5.874   1.159  -0.399  1.00  0.00     0.004 A 
ATOM     10  C   UNL     1       6.113  -0.834   1.433  1.00  0.00     0.000 A 
ATOM     11  C   UNL     1       5.329   1.329   0.839  1.00  0.00     0.000 A 
ATOM     12  C   UNL     1       5.445   0.324   1.775  1.00  0.00     0.000 A 
ENDBRANCH   6   7
ENDBRANCH   1   6
TORSDOF 4
ENDMDL
MODEL 2
REMARK VINA RESULT:      -7.3      0.153      1.728
REMARK SMILES O=C(O)CCc1ccccc1
REMARK SMILES IDX 4 1 2 2 1 3 3 4 5 6 6 7 7 8 11 9 8 10 10 11 9 12
REMARK H PARENT 3 5
REMARK Flexibility Score: inf
ROOT
ATOM      1  C   UNL     1       8.385  -0.749  -1.994  1.00  0.00     0.127 C 
ENDROOT
BRANCH   1   2
ATOM      2  C   UNL     1       8.362  -1.943  -2.871  1.00  0.00     0.303 C 
ATOM      3  O   UNL     1       7.287  -2.416  -3.272  1.00  0.00    -0.252 OA
BRANCH   2   4
ATOM      4  O   UNL     1       9.551  -2.537  -3.246  1.00  0.00    -0.481 OA
ATOM      5  H   UNL     1      10.426  -2.356  -2.761  1.00  0.00     0.296 HD
ENDBRANCH   2   4
ENDBRANCH   1   2
BRANCH   1   6
ATOM      6  C   UNL     1       7.066  -0.020  -2.056  1.00  0.00     0.047 C 
BRANCH   6   7
ATOM      7  C   UNL     1       6.454   0.172  -0.727  1.00  0.00    -0.047 A 
ATOM      8  C   UNL     1       5.778   1.302  -0.344  1.00  0.00     0.004 A 
ATOM      9  C   UNL     1       6.574  -0.851   0.183  1.00  0.00     0.004 A 
ATOM     10  C   UNL     1       5.237   1.397   0.923  1.00  0.00     0.000 A 
ATOM     11  C   UNL     1       6.048  -0.777   1.439  1.00  0.00     0.000 A 
ATOM     12  C   UNL     1       5.367   0.359   1.824  1.00  0.00     0.000 A 
ENDBRANCH   6   7
ENDBRANCH   1   6
TORSDOF 4
ENDMDL
MODEL 3
REMARK VINA RESULT:      -6.8      3.368      5.065
REMARK SMILES O=C(O)CCc1ccccc1
REMARK SMILES IDX 4 1 2 2 1 3 3 4 5 6 6 7 7 8 11 9 8 10 10 11 9 12
REMARK H PARENT 3 5
REMARK Flexibility Score: inf
ROOT
ATOM      1  C   UNL     1       5.003   1.806   0.723  1.00  0.00     0.127 C 
ENDROOT
BRANCH   1   2
ATOM      2  C   UNL     1       4.501   1.104   1.929  1.00  0.00     0.303 C 
ATOM      3  O   UNL     1       5.172   0.212   2.470  1.00  0.00    -0.252 OA
BRANCH   2   4
ATOM      4  O   UNL     1       3.271   1.448   2.455  1.00  0.00    -0.481 OA
ATOM      5  H   UNL     1       2.441   0.878   2.316  1.00  0.00     0.296 HD
ENDBRANCH   2   4
ENDBRANCH   1   2
BRANCH   1   6
ATOM      6  C   UNL     1       6.510   1.843   0.721  1.00  0.00     0.047 C 
BRANCH   6   7
ATOM      7  C   UNL     1       7.101   1.030  -0.360  1.00  0.00    -0.047 A 
ATOM      8  C   UNL     1       6.406   0.112  -1.104  1.00  0.00     0.004 A 
ATOM      9  C   UNL     1       8.436   1.209  -0.634  1.00  0.00     0.004 A 
ATOM     10  C   UNL     1       7.041  -0.607  -2.098  1.00  0.00     0.000 A 
ATOM     11  C   UNL     1       9.082   0.509  -1.611  1.00  0.00     0.000 A 
ATOM     12  C   UNL     1       8.383  -0.414  -2.359  1.00  0.00     0.000 A 
ENDBRANCH   6   7
ENDBRANCH   1   6
TORSDOF 4
ENDMDL
MODEL 4
REMARK VINA RESULT:      -6.6      1.941      2.628
REMARK SMILES O=C(O)CCc1ccccc1
REMARK SMILES IDX 4 1 2 2 1 3 3 4 5 6 6 7 7 8 11 9 8 10 10 11 9 12
REMARK H PARENT 3 5
REMARK Flexibility Score: inf
ROOT
ATOM      1  C   UNL     1       8.197   0.225  -2.119  1.00  0.00     0.127 C 
ENDROOT
BRANCH   1   2
ATOM      2  C   UNL     1       9.351   0.357  -1.198  1.00  0.00     0.303 C 
ATOM      3  O   UNL     1       9.469  -0.392  -0.215  1.00  0.00    -0.252 OA
BRANCH   2   4
ATOM      4  O   UNL     1      10.306   1.327  -1.435  1.00  0.00    -0.481 OA
ATOM      5  H   UNL     1      10.607   1.574  -2.374  1.00  0.00     0.296 HD
ENDBRANCH   2   4
ENDBRANCH   1   2
BRANCH   1   6
ATOM      6  C   UNL     1       7.102  -0.594  -1.482  1.00  0.00     0.047 C 
BRANCH   6   7
ATOM      7  C   UNL     1       6.325   0.167  -0.484  1.00  0.00    -0.047 A 
ATOM      8  C   UNL     1       5.779   1.404  -0.711  1.00  0.00     0.004 A 
ATOM      9  C   UNL     1       6.140  -0.407   0.752  1.00  0.00     0.004 A 
ATOM     10  C   UNL     1       5.066   2.046   0.283  1.00  0.00     0.000 A 
ATOM     11  C   UNL     1       5.440   0.210   1.746  1.00  0.00     0.000 A 
ATOM     12  C   UNL     1       4.891   1.454   1.518  1.00  0.00     0.000 A 
ENDBRANCH   6   7
ENDBRANCH   1   6
TORSDOF 4
ENDMDL
MODEL 5
REMARK VINA RESULT:      -6.6      1.893      2.895
REMARK SMILES O=C(O)CCc1ccccc1
REMARK SMILES IDX 4 1 2 2 1 3 3 4 5 6 6 7 7 8 11 9 8 10 10 11 9 12
REMARK H PARENT 3 5
REMARK Flexibility Score: inf
ROOT
ATOM      1  C   UNL     1       8.209  -1.648   1.145  1.00  0.00     0.127 C 
ENDROOT
BRANCH   1   2
ATOM      2  C   UNL     1       8.538  -2.857   0.353  1.00  0.00     0.303 C 
ATOM      3  O   UNL     1       9.196  -3.783   0.852  1.00  0.00    -0.252 OA
BRANCH   2   4
ATOM      4  O   UNL     1       8.107  -2.953  -0.956  1.00  0.00    -0.481 OA
ATOM      5  H   UNL     1       8.734  -3.197  -1.718  1.00  0.00     0.296 HD
ENDBRANCH   2   4
ENDBRANCH   1   2
BRANCH   1   6
ATOM      6  C   UNL     1       6.718  -1.538   1.350  1.00  0.00     0.047 C 
BRANCH   6   7
ATOM      7  C   UNL     1       6.166  -0.260   0.862  1.00  0.00    -0.047 A 
ATOM      8  C   UNL     1       5.390   0.583   1.615  1.00  0.00     0.004 A 
ATOM      9  C   UNL     1       6.449   0.103  -0.433  1.00  0.00     0.004 A 
ATOM     10  C   UNL     1       4.913   1.762   1.076  1.00  0.00     0.000 A 
ATOM     11  C   UNL     1       5.988   1.262  -0.984  1.00  0.00     0.000 A 
ATOM     12  C   UNL     1       5.209   2.111  -0.227  1.00  0.00     0.000 A 
ENDBRANCH   6   7
ENDBRANCH   1   6
TORSDOF 4
ENDMDL
