@<TRIPOS>MOLECULE
/home/cewinharhar/GITHUB/reincatalyze/data/processed/docking_pred/2023-Apr-25-1630_maxeplen5_maxtrainstep200_exh32_gamma099_lrac3e-4_lrcr1e-3/1a0a4210c7fbec369f44508687af2363e72d8760_ligand_2.pdbqt
 12 12 0 0 0
SMALL
GASTEIGER

@<TRIPOS>ATOM
      1  C          8.3850   -0.7490   -1.9940 C.3     1  UNL1        0.1270
      2  C          8.3620   -1.9430   -2.8710 C.2     1  UNL1        0.3030
      3  O          7.2870   -2.4160   -3.2720 O.2     1  UNL1       -0.2520
      4  O          9.5510   -2.5370   -3.2460 O.3     1  UNL1       -0.4810
      5  H         10.4260   -2.3560   -2.7610 H       1  UNL1        0.2960
      6  C          7.0660   -0.0200   -2.0560 C.3     1  UNL1        0.0470
      7  C          6.4540    0.1720   -0.7270 C.2     1  UNL1       -0.0470
      8  C          5.7780    1.3020   -0.3440 C.2     1  UNL1        0.0040
      9  C          6.5740   -0.8510    0.1830 C.2     1  UNL1        0.0040
     10  C          5.2370    1.3970    0.9230 C.2     1  UNL1        0.0000
     11  C          6.0480   -0.7770    1.4390 C.2     1  UNL1        0.0000
     12  C          5.3670    0.3590    1.8240 C.2     1  UNL1        0.0000
@<TRIPOS>BOND
     1     3     2    2
     2     4     2    1
     3     4     5    1
     4     2     1    1
     5     6     1    1
     6     6     7    1
     7     7     8    2
     8     7     9    1
     9     8    10    1
    10     9    11    2
    11    10    12    2
    12    11    12    1
