@<TRIPOS>MOLECULE
/home/cewinharhar/GITHUB/reincatalyze/data/processed/docking_pred/2023-Apr-25-1630_maxeplen5_maxtrainstep200_exh32_gamma099_lrac3e-4_lrcr1e-3/1a0a4210c7fbec369f44508687af2363e72d8760_ligand_2.pdbqt
 12 12 0 0 0
SMALL
GASTEIGER

@<TRIPOS>ATOM
      1  C          8.2090   -1.6480    1.1450 C.3     1  UNL1        0.1270
      2  C          8.5380   -2.8570    0.3530 C.2     1  UNL1        0.3030
      3  O          9.1960   -3.7830    0.8520 O.2     1  UNL1       -0.2520
      4  O          8.1070   -2.9530   -0.9560 O.3     1  UNL1       -0.4810
      5  H          8.7340   -3.1970   -1.7180 H       1  UNL1        0.2960
      6  C          6.7180   -1.5380    1.3500 C.3     1  UNL1        0.0470
      7  C          6.1660   -0.2600    0.8620 C.2     1  UNL1       -0.0470
      8  C          5.3900    0.5830    1.6150 C.2     1  UNL1        0.0040
      9  C          6.4490    0.1030   -0.4330 C.2     1  UNL1        0.0040
     10  C          4.9130    1.7620    1.0760 C.2     1  UNL1        0.0000
     11  C          5.9880    1.2620   -0.9840 C.2     1  UNL1        0.0000
     12  C          5.2090    2.1110   -0.2270 C.2     1  UNL1        0.0000
@<TRIPOS>BOND
     1     5     4    1
     2    11     9    1
     3    11    12    2
     4     4     2    1
     5     9     7    2
     6    12    10    1
     7     2     3    2
     8     2     1    1
     9     7     6    1
    10     7     8    1
    11    10     8    2
    12     1     6    1
