@<TRIPOS>MOLECULE
/home/cewinharhar/GITHUB/reincatalyze/data/processed/docking_pred/2023-Apr-25-1630_maxeplen5_maxtrainstep200_exh32_gamma099_lrac3e-4_lrcr1e-3/1e8ffecbec14ce573bf52adb8829230239be76a8_ligand_2.pdbqt
 12 12 0 0 0
SMALL
GASTEIGER

@<TRIPOS>ATOM
      1  C          8.1990   -0.8610   -2.0140 C.3     1  UNL1        0.1270
      2  C          8.3340   -2.0420   -2.9000 C.2     1  UNL1        0.3030
      3  O          9.4300   -2.6030   -3.0470 O.2     1  UNL1       -0.2520
      4  O          7.2250   -2.5220   -3.5700 O.3     1  UNL1       -0.4810
      5  H          7.2340   -2.7150   -4.5680 H       1  UNL1        0.2960
      6  C          7.6260   -1.2630   -0.6780 C.3     1  UNL1        0.0470
      7  C          6.7030   -0.2540   -0.1240 C.2     1  UNL1       -0.0470
      8  C          6.2880    0.8650   -0.7990 C.2     1  UNL1        0.0040
      9  C          6.2320   -0.4540    1.1520 C.2     1  UNL1        0.0040
     10  C          5.4210    1.7600   -0.2010 C.2     1  UNL1        0.0000
     11  C          5.3760    0.4170    1.7590 C.2     1  UNL1        0.0000
     12  C          4.9580    1.5420    1.0820 C.2     1  UNL1        0.0000
@<TRIPOS>BOND
     1     5     4    1
     2     4     2    1
     3     3     2    2
     4     2     1    1
     5     1     6    1
     6     8    10    1
     7     8     7    2
     8     6     7    1
     9    10    12    2
    10     7     9    1
    11    12    11    1
    12     9    11    2
