@<TRIPOS>MOLECULE
/home/cewinharhar/GITHUB/reincatalyze/data/processed/docking_pred/2023-Apr-25-1630_maxeplen5_maxtrainstep200_exh32_gamma099_lrac3e-4_lrcr1e-3/1e8ffecbec14ce573bf52adb8829230239be76a8_ligand_2.pdbqt
 12 12 0 0 0
SMALL
GASTEIGER

@<TRIPOS>ATOM
      1  C          8.4330   -0.6340   -2.1520 C.3     1  UNL1        0.1270
      2  C          8.3950   -1.9110   -2.9030 C.2     1  UNL1        0.3030
      3  O          7.3130   -2.4280   -3.2210 O.2     1  UNL1       -0.2520
      4  O          9.5780   -2.5330   -3.2520 O.3     1  UNL1       -0.4810
      5  H         10.3260   -2.0440   -3.7360 H       1  UNL1        0.2960
      6  C          7.0640   -0.0040   -2.1070 C.3     1  UNL1        0.0470
      7  C          6.5090    0.0650   -0.7420 C.2     1  UNL1       -0.0470
      8  C          6.6030   -0.9460    0.1810 C.2     1  UNL1        0.0040
      9  C          5.8550    1.2170   -0.3760 C.2     1  UNL1        0.0040
     10  C          6.0520   -0.7960    1.4390 C.2     1  UNL1        0.0000
     11  C          5.3050    1.3840    0.8600 C.2     1  UNL1        0.0000
     12  C          5.3990    0.3690    1.7880 C.2     1  UNL1        0.0000
@<TRIPOS>BOND
     1     5     4    1
     2     4     2    1
     3     3     2    2
     4     2     1    1
     5     1     6    1
     6     6     7    1
     7     7     9    2
     8     7     8    1
     9     9    11    1
    10     8    10    2
    11    11    12    2
    12    10    12    1
