@<TRIPOS>MOLECULE
/home/cewinharhar/GITHUB/reincatalyze/data/processed/docking_pred/2023-Apr-25-1630_maxeplen5_maxtrainstep200_exh32_gamma099_lrac3e-4_lrcr1e-3/1e8ffecbec14ce573bf52adb8829230239be76a8_ligand_2.pdbqt
 12 12 0 0 0
SMALL
GASTEIGER

@<TRIPOS>ATOM
      1  C          5.0590    1.7240    0.7530 C.3     1  UNL1        0.1270
      2  C          4.5650    1.0120    1.9550 C.2     1  UNL1        0.3030
      3  O          5.2470    0.1240    2.4920 O.2     1  UNL1       -0.2520
      4  O          3.3320    1.3390    2.4840 O.3     1  UNL1       -0.4810
      5  H          3.1100    1.2080    3.4670 H       1  UNL1        0.2960
      6  C          6.5640    1.8210    0.7750 C.3     1  UNL1        0.0470
      7  C          7.2020    1.0670   -0.3210 C.2     1  UNL1       -0.0470
      8  C          8.5140    1.2090   -0.6950 C.2     1  UNL1        0.0040
      9  C          6.4260    0.1650   -1.0100 C.2     1  UNL1        0.0040
     10  C          9.0290    0.4610   -1.7360 C.2     1  UNL1        0.0000
     11  C          6.9150   -0.5820   -2.0410 C.2     1  UNL1        0.0000
     12  C          8.2340   -0.4400   -2.4160 C.2     1  UNL1        0.0000
@<TRIPOS>BOND
     1    12    11    2
     2    12    10    1
     3    11     9    1
     4    10     8    2
     5     9     7    2
     6     8     7    1
     7     7     6    1
     8     1     6    1
     9     1     2    1
    10     2     4    1
    11     2     3    2
    12     4     5    1
