MODEL 1
REMARK VINA RESULT:      -7.3      0.000      0.000
REMARK SMILES O=C(O)CCc1ccccc1
REMARK SMILES IDX 4 1 2 2 1 3 3 4 5 6 6 7 7 8 11 9 8 10 10 11 9 12
REMARK H PARENT 3 5
REMARK Flexibility Score: inf
ROOT
ATOM      1  C   UNL     1       8.411  -0.634  -2.134  1.00  0.00     0.127 C 
ENDROOT
BRANCH   1   2
ATOM      2  C   UNL     1       8.482  -1.899  -2.903  1.00  0.00     0.303 C 
ATOM      3  O   UNL     1       9.567  -2.472  -3.084  1.00  0.00    -0.252 OA
BRANCH   2   4
ATOM      4  O   UNL     1       7.325  -2.445  -3.426  1.00  0.00    -0.481 OA
ATOM      5  H   UNL     1       7.165  -2.522  -4.426  1.00  0.00     0.296 HD
ENDBRANCH   2   4
ENDBRANCH   1   2
BRANCH   1   6
ATOM      6  C   UNL     1       7.006  -0.086  -2.142  1.00  0.00     0.047 C 
BRANCH   6   7
ATOM      7  C   UNL     1       6.454   0.097  -0.786  1.00  0.00    -0.047 A 
ATOM      8  C   UNL     1       5.820   1.235  -0.357  1.00  0.00     0.004 A 
ATOM      9  C   UNL     1       6.589  -0.944   0.102  1.00  0.00     0.004 A 
ATOM     10  C   UNL     1       5.335   1.320   0.933  1.00  0.00     0.000 A 
ATOM     11  C   UNL     1       6.117  -0.879   1.380  1.00  0.00     0.000 A 
ATOM     12  C   UNL     1       5.479   0.264   1.811  1.00  0.00     0.000 A 
ENDBRANCH   6   7
ENDBRANCH   1   6
TORSDOF 4
ENDMDL
MODEL 2
REMARK VINA RESULT:      -7.3      0.118      1.723
REMARK SMILES O=C(O)CCc1ccccc1
REMARK SMILES IDX 4 1 2 2 1 3 3 4 5 6 6 7 7 8 11 9 8 10 10 11 9 12
REMARK H PARENT 3 5
REMARK Flexibility Score: inf
ROOT
ATOM      1  C   UNL     1       8.433  -0.634  -2.152  1.00  0.00     0.127 C 
ENDROOT
BRANCH   1   2
ATOM      2  C   UNL     1       8.395  -1.911  -2.903  1.00  0.00     0.303 C 
ATOM      3  O   UNL     1       7.313  -2.428  -3.221  1.00  0.00    -0.252 OA
BRANCH   2   4
ATOM      4  O   UNL     1       9.578  -2.533  -3.252  1.00  0.00    -0.481 OA
ATOM      5  H   UNL     1      10.326  -2.044  -3.736  1.00  0.00     0.296 HD
ENDBRANCH   2   4
ENDBRANCH   1   2
BRANCH   1   6
ATOM      6  C   UNL     1       7.064  -0.004  -2.107  1.00  0.00     0.047 C 
BRANCH   6   7
ATOM      7  C   UNL     1       6.509   0.065  -0.742  1.00  0.00    -0.047 A 
ATOM      8  C   UNL     1       6.603  -0.946   0.181  1.00  0.00     0.004 A 
ATOM      9  C   UNL     1       5.855   1.217  -0.376  1.00  0.00     0.004 A 
ATOM     10  C   UNL     1       6.052  -0.796   1.439  1.00  0.00     0.000 A 
ATOM     11  C   UNL     1       5.305   1.384   0.860  1.00  0.00     0.000 A 
ATOM     12  C   UNL     1       5.399   0.369   1.788  1.00  0.00     0.000 A 
ENDBRANCH   6   7
ENDBRANCH   1   6
TORSDOF 4
ENDMDL
MODEL 3
REMARK VINA RESULT:      -7.1      0.631      1.090
REMARK SMILES O=C(O)CCc1ccccc1
REMARK SMILES IDX 4 1 2 2 1 3 3 4 5 6 6 7 7 8 11 9 8 10 10 11 9 12
REMARK H PARENT 3 5
REMARK Flexibility Score: inf
ROOT
ATOM      1  C   UNL     1       8.199  -0.861  -2.014  1.00  0.00     0.127 C 
ENDROOT
BRANCH   1   2
ATOM      2  C   UNL     1       8.334  -2.042  -2.900  1.00  0.00     0.303 C 
ATOM      3  O   UNL     1       9.430  -2.603  -3.047  1.00  0.00    -0.252 OA
BRANCH   2   4
ATOM      4  O   UNL     1       7.225  -2.522  -3.570  1.00  0.00    -0.481 OA
ATOM      5  H   UNL     1       7.234  -2.715  -4.568  1.00  0.00     0.296 HD
ENDBRANCH   2   4
ENDBRANCH   1   2
BRANCH   1   6
ATOM      6  C   UNL     1       7.626  -1.263  -0.678  1.00  0.00     0.047 C 
BRANCH   6   7
ATOM      7  C   UNL     1       6.703  -0.254  -0.124  1.00  0.00    -0.047 A 
ATOM      8  C   UNL     1       6.288   0.865  -0.799  1.00  0.00     0.004 A 
ATOM      9  C   UNL     1       6.232  -0.454   1.152  1.00  0.00     0.004 A 
ATOM     10  C   UNL     1       5.421   1.760  -0.201  1.00  0.00     0.000 A 
ATOM     11  C   UNL     1       5.376   0.417   1.759  1.00  0.00     0.000 A 
ATOM     12  C   UNL     1       4.958   1.542   1.082  1.00  0.00     0.000 A 
ENDBRANCH   6   7
ENDBRANCH   1   6
TORSDOF 4
ENDMDL
MODEL 4
REMARK VINA RESULT:      -6.7      3.358      5.028
REMARK SMILES O=C(O)CCc1ccccc1
REMARK SMILES IDX 4 1 2 2 1 3 3 4 5 6 6 7 7 8 11 9 8 10 10 11 9 12
REMARK H PARENT 3 5
REMARK Flexibility Score: inf
ROOT
ATOM      1  C   UNL     1       5.059   1.724   0.753  1.00  0.00     0.127 C 
ENDROOT
BRANCH   1   2
ATOM      2  C   UNL     1       4.565   1.012   1.955  1.00  0.00     0.303 C 
ATOM      3  O   UNL     1       5.247   0.124   2.492  1.00  0.00    -0.252 OA
BRANCH   2   4
ATOM      4  O   UNL     1       3.332   1.339   2.484  1.00  0.00    -0.481 OA
ATOM      5  H   UNL     1       3.110   1.208   3.467  1.00  0.00     0.296 HD
ENDBRANCH   2   4
ENDBRANCH   1   2
BRANCH   1   6
ATOM      6  C   UNL     1       6.564   1.821   0.775  1.00  0.00     0.047 C 
BRANCH   6   7
ATOM      7  C   UNL     1       7.202   1.067  -0.321  1.00  0.00    -0.047 A 
ATOM      8  C   UNL     1       8.514   1.209  -0.695  1.00  0.00     0.004 A 
ATOM      9  C   UNL     1       6.426   0.165  -1.010  1.00  0.00     0.004 A 
ATOM     10  C   UNL     1       9.029   0.461  -1.736  1.00  0.00     0.000 A 
ATOM     11  C   UNL     1       6.915  -0.582  -2.041  1.00  0.00     0.000 A 
ATOM     12  C   UNL     1       8.234  -0.440  -2.416  1.00  0.00     0.000 A 
ENDBRANCH   6   7
ENDBRANCH   1   6
TORSDOF 4
ENDMDL
MODEL 5
REMARK VINA RESULT:      -6.7      3.817      4.982
REMARK SMILES O=C(O)CCc1ccccc1
REMARK SMILES IDX 4 1 2 2 1 3 3 4 5 6 6 7 7 8 11 9 8 10 10 11 9 12
REMARK H PARENT 3 5
REMARK Flexibility Score: inf
ROOT
ATOM      1  C   UNL     1       5.515   2.893   0.026  1.00  0.00     0.127 C 
ENDROOT
BRANCH   1   2
ATOM      2  C   UNL     1       6.271   3.898   0.810  1.00  0.00     0.303 C 
ATOM      3  O   UNL     1       6.940   4.775   0.241  1.00  0.00    -0.252 OA
BRANCH   2   4
ATOM      4  O   UNL     1       6.232   3.858   2.190  1.00  0.00    -0.481 OA
ATOM      5  H   UNL     1       5.391   3.607   2.702  1.00  0.00     0.296 HD
ENDBRANCH   2   4
ENDBRANCH   1   2
BRANCH   1   6
ATOM      6  C   UNL     1       4.903   1.860   0.939  1.00  0.00     0.047 C 
BRANCH   6   7
ATOM      7  C   UNL     1       5.685   0.610   0.994  1.00  0.00    -0.047 A 
ATOM      8  C   UNL     1       5.762  -0.204   2.095  1.00  0.00     0.004 A 
ATOM      9  C   UNL     1       6.382   0.244  -0.133  1.00  0.00     0.004 A 
ATOM     10  C   UNL     1       6.521  -1.358   2.059  1.00  0.00     0.000 A 
ATOM     11  C   UNL     1       7.137  -0.891  -0.189  1.00  0.00     0.000 A 
ATOM     12  C   UNL     1       7.213  -1.710   0.917  1.00  0.00     0.000 A 
ENDBRANCH   6   7
ENDBRANCH   1   6
TORSDOF 4
ENDMDL
