@<TRIPOS>MOLECULE
/home/cewinharhar/GITHUB/reincatalyze/data/processed/docking_pred/2023-Apr-25-1630_maxeplen5_maxtrainstep200_exh32_gamma099_lrac3e-4_lrcr1e-3/1e8ffecbec14ce573bf52adb8829230239be76a8_ligand_2.pdbqt
 12 12 0 0 0
SMALL
GASTEIGER

@<TRIPOS>ATOM
      1  C          5.5150    2.8930    0.0260 C.3     1  UNL1        0.1270
      2  C          6.2710    3.8980    0.8100 C.2     1  UNL1        0.3030
      3  O          6.9400    4.7750    0.2410 O.2     1  UNL1       -0.2520
      4  O          6.2320    3.8580    2.1900 O.3     1  UNL1       -0.4810
      5  H          5.3910    3.6070    2.7020 H       1  UNL1        0.2960
      6  C          4.9030    1.8600    0.9390 C.3     1  UNL1        0.0470
      7  C          5.6850    0.6100    0.9940 C.2     1  UNL1       -0.0470
      8  C          5.7620   -0.2040    2.0950 C.2     1  UNL1        0.0040
      9  C          6.3820    0.2440   -0.1330 C.2     1  UNL1        0.0040
     10  C          6.5210   -1.3580    2.0590 C.2     1  UNL1        0.0000
     11  C          7.1370   -0.8910   -0.1890 C.2     1  UNL1        0.0000
     12  C          7.2130   -1.7100    0.9170 C.2     1  UNL1        0.0000
@<TRIPOS>BOND
     1    11     9    1
     2    11    12    2
     3     9     7    2
     4     1     2    1
     5     1     6    1
     6     3     2    2
     7     2     4    1
     8    12    10    1
     9     6     7    1
    10     7     8    1
    11    10     8    2
    12     4     5    1
