@<TRIPOS>MOLECULE
/home/cewinharhar/GITHUB/reincatalyze/data/processed/docking_pred/2023-Apr-25-1630_maxeplen5_maxtrainstep200_exh32_gamma099_lrac3e-4_lrcr1e-3/1e8ffecbec14ce573bf52adb8829230239be76a8_ligand_2.pdbqt
 12 12 0 0 0
SMALL
GASTEIGER

@<TRIPOS>ATOM
      1  C          8.4110   -0.6340   -2.1340 C.3     1  UNL1        0.1270
      2  C          8.4820   -1.8990   -2.9030 C.2     1  UNL1        0.3030
      3  O          9.5670   -2.4720   -3.0840 O.2     1  UNL1       -0.2520
      4  O          7.3250   -2.4450   -3.4260 O.3     1  UNL1       -0.4810
      5  H          7.1650   -2.5220   -4.4260 H       1  UNL1        0.2960
      6  C          7.0060   -0.0860   -2.1420 C.3     1  UNL1        0.0470
      7  C          6.4540    0.0970   -0.7860 C.2     1  UNL1       -0.0470
      8  C          5.8200    1.2350   -0.3570 C.2     1  UNL1        0.0040
      9  C          6.5890   -0.9440    0.1020 C.2     1  UNL1        0.0040
     10  C          5.3350    1.3200    0.9330 C.2     1  UNL1        0.0000
     11  C          6.1170   -0.8790    1.3800 C.2     1  UNL1        0.0000
     12  C          5.4790    0.2640    1.8110 C.2     1  UNL1        0.0000
@<TRIPOS>BOND
     1     5     4    1
     2     4     2    1
     3     3     2    2
     4     2     1    1
     5     6     1    1
     6     6     7    1
     7     7     8    2
     8     7     9    1
     9     8    10    1
    10     9    11    2
    11    10    12    2
    12    11    12    1
