@<TRIPOS>MOLECULE
/home/cewinharhar/GITHUB/reincatalyze/data/processed/docking_pred/2023-Apr-25-1630_maxeplen5_maxtrainstep200_exh32_gamma099_lrac3e-4_lrcr1e-3/1f3204452a604bf2b5a1468570937d609aafa137_ligand_2.pdbqt
 12 12 0 0 0
SMALL
GASTEIGER

@<TRIPOS>ATOM
      1  C          8.3230   -0.9680   -1.8130 C.3     1  UNL1        0.1270
      2  C          8.4440   -2.0330   -2.8370 C.2     1  UNL1        0.3030
      3  O          9.5490   -2.5190   -3.1200 O.2     1  UNL1       -0.2520
      4  O          7.3110   -2.4890   -3.4840 O.3     1  UNL1       -0.4810
      5  H          7.2620   -3.4110   -3.9070 H       1  UNL1        0.2960
      6  C          7.4040   -1.4050   -0.7000 C.3     1  UNL1        0.0470
      7  C          6.5740   -0.3030   -0.1760 C.2     1  UNL1       -0.0470
      8  C          6.2220    0.8080   -0.8980 C.2     1  UNL1        0.0040
      9  C          6.1290   -0.4010    1.1210 C.2     1  UNL1        0.0040
     10  C          5.4410    1.7940   -0.3270 C.2     1  UNL1        0.0000
     11  C          5.3580    0.5610    1.7030 C.2     1  UNL1        0.0000
     12  C          5.0030    1.6780    0.9770 C.2     1  UNL1        0.0000
@<TRIPOS>BOND
     1     5     4    1
     2     4     2    1
     3     3     2    2
     4     2     1    1
     5     1     6    1
     6     8    10    1
     7     8     7    2
     8     6     7    1
     9    10    12    2
    10     7     9    1
    11    12    11    1
    12     9    11    2
