@<TRIPOS>MOLECULE
/home/cewinharhar/GITHUB/reincatalyze/data/processed/docking_pred/2023-Apr-25-1630_maxeplen5_maxtrainstep200_exh32_gamma099_lrac3e-4_lrcr1e-3/1f3204452a604bf2b5a1468570937d609aafa137_ligand_2.pdbqt
 12 12 0 0 0
SMALL
GASTEIGER

@<TRIPOS>ATOM
      1  C          8.4190   -0.6520   -2.1280 C.3     1  UNL1        0.1270
      2  C          8.4600   -1.9230   -2.8890 C.2     1  UNL1        0.3030
      3  O          9.5320   -2.5230   -3.0660 O.2     1  UNL1       -0.2520
      4  O          7.2920   -2.4450   -3.4090 O.3     1  UNL1       -0.4810
      5  H          6.3800   -2.0450   -3.2050 H       1  UNL1        0.2960
      6  C          7.0140   -0.1030   -2.0890 C.3     1  UNL1        0.0470
      7  C          6.4760   -0.0050   -0.7180 C.2     1  UNL1       -0.0470
      8  C          6.5690   -1.0010    0.2200 C.2     1  UNL1        0.0040
      9  C          5.8410    1.1620   -0.3650 C.2     1  UNL1        0.0040
     10  C          6.0340   -0.8230    1.4820 C.2     1  UNL1        0.0000
     11  C          5.3060    1.3560    0.8740 C.2     1  UNL1        0.0000
     12  C          5.4000    0.3560    1.8180 C.2     1  UNL1        0.0000
@<TRIPOS>BOND
     1     4     5    1
     2     4     2    1
     3     3     2    2
     4     2     1    1
     5     1     6    1
     6     6     7    1
     7     7     9    2
     8     7     8    1
     9     9    11    1
    10     8    10    2
    11    11    12    2
    12    10    12    1
