@<TRIPOS>MOLECULE
/home/cewinharhar/GITHUB/reincatalyze/data/processed/docking_pred/2023-Apr-25-1630_maxeplen5_maxtrainstep200_exh32_gamma099_lrac3e-4_lrcr1e-3/1f3204452a604bf2b5a1468570937d609aafa137_ligand_2.pdbqt
 12 12 0 0 0
SMALL
GASTEIGER

@<TRIPOS>ATOM
      1  C          8.2740    0.2480   -2.1810 C.3     1  UNL1        0.1270
      2  C          9.3930    0.3680   -1.2180 C.2     1  UNL1        0.3030
      3  O          9.4690   -0.3840   -0.2340 O.2     1  UNL1       -0.2520
      4  O         10.3640    1.3310   -1.4170 O.3     1  UNL1       -0.4810
      5  H         10.3160    2.0010   -2.1790 H       1  UNL1        0.2960
      6  C          7.1210   -0.5040   -1.5640 C.3     1  UNL1        0.0470
      7  C          6.3320    0.3230   -0.6310 C.2     1  UNL1       -0.0470
      8  C          5.7980    1.5460   -0.9470 C.2     1  UNL1        0.0040
      9  C          6.1210   -0.1690    0.6350 C.2     1  UNL1        0.0040
     10  C          5.0710    2.2540   -0.0100 C.2     1  UNL1        0.0000
     11  C          5.4070    0.5150    1.5740 C.2     1  UNL1        0.0000
     12  C          4.8700    1.7440    1.2570 C.2     1  UNL1        0.0000
@<TRIPOS>BOND
     1     1     6    1
     2     1     2    1
     3     5     4    1
     4     6     7    1
     5     4     2    1
     6     2     3    2
     7     8     7    2
     8     8    10    1
     9     7     9    1
    10    10    12    2
    11     9    11    2
    12    12    11    1
