@<TRIPOS>MOLECULE
/home/cewinharhar/GITHUB/reincatalyze/data/processed/docking_pred/2023-Apr-25-1630_maxeplen5_maxtrainstep200_exh32_gamma099_lrac3e-4_lrcr1e-3/1f3204452a604bf2b5a1468570937d609aafa137_ligand_2.pdbqt
 12 12 0 0 0
SMALL
GASTEIGER

@<TRIPOS>ATOM
      1  C          8.3910   -0.7200   -2.0260 C.3     1  UNL1        0.1270
      2  C          8.3680   -1.9360   -2.8730 C.2     1  UNL1        0.3030
      3  O          7.2920   -2.4230   -3.2550 O.2     1  UNL1       -0.2520
      4  O          9.5570   -2.5350   -3.2400 O.3     1  UNL1       -0.4810
      5  H          9.9920   -2.3710   -4.1440 H       1  UNL1        0.2960
      6  C          7.0600   -0.0120   -2.0790 C.3     1  UNL1        0.0470
      7  C          6.4580    0.1750   -0.7450 C.2     1  UNL1       -0.0470
      8  C          5.7840    1.3040   -0.3530 C.2     1  UNL1        0.0040
      9  C          6.5840   -0.8510    0.1610 C.2     1  UNL1        0.0040
     10  C          5.2520    1.3940    0.9180 C.2     1  UNL1        0.0000
     11  C          6.0670   -0.7820    1.4200 C.2     1  UNL1        0.0000
     12  C          5.3890    0.3520    1.8140 C.2     1  UNL1        0.0000
@<TRIPOS>BOND
     1     5     4    1
     2     3     2    2
     3     4     2    1
     4     2     1    1
     5     6     1    1
     6     6     7    1
     7     7     8    2
     8     7     9    1
     9     8    10    1
    10     9    11    2
    11    10    12    2
    12    11    12    1
