@<TRIPOS>MOLECULE
/home/cewinharhar/GITHUB/reincatalyze/data/processed/docking_pred/2023-Apr-25-1630_maxeplen5_maxtrainstep200_exh32_gamma099_lrac3e-4_lrcr1e-3/1f3204452a604bf2b5a1468570937d609aafa137_ligand_2.pdbqt
 12 12 0 0 0
SMALL
GASTEIGER

@<TRIPOS>ATOM
      1  C          4.9820    1.8050    0.7380 C.3     1  UNL1        0.1270
      2  C          4.4730    1.0960    1.9350 C.2     1  UNL1        0.3030
      3  O          5.1310    0.1880    2.4640 O.2     1  UNL1       -0.2520
      4  O          3.2490    1.4520    2.4690 O.3     1  UNL1       -0.4810
      5  H          3.1460    1.7660    3.4300 H       1  UNL1        0.2960
      6  C          6.4900    1.8400    0.7450 C.3     1  UNL1        0.0470
      7  C          7.0870    1.0460   -0.3470 C.2     1  UNL1       -0.0470
      8  C          6.3950    0.1400   -1.1090 C.2     1  UNL1        0.0040
      9  C          8.4230    1.2290   -0.6100 C.2     1  UNL1        0.0040
     10  C          7.0350   -0.5630   -2.1120 C.2     1  UNL1        0.0000
     11  C          9.0740    0.5450   -1.5950 C.2     1  UNL1        0.0000
     12  C          8.3790   -0.3650   -2.3620 C.2     1  UNL1        0.0000
@<TRIPOS>BOND
     1    12    10    2
     2    12    11    1
     3    10     8    1
     4    11     9    2
     5     8     7    2
     6     9     7    1
     7     7     6    1
     8     1     6    1
     9     1     2    1
    10     2     3    2
    11     2     4    1
    12     4     5    1
