MODEL 1
REMARK VINA RESULT:      -7.4      0.000      0.000
REMARK SMILES O=C(O)CCc1ccccc1
REMARK SMILES IDX 4 1 2 2 1 3 3 4 5 6 6 7 7 8 11 9 8 10 10 11 9 12
REMARK H PARENT 3 5
REMARK Flexibility Score: inf
ROOT
ATOM      1  C   UNL     1       8.419  -0.652  -2.128  1.00  0.00     0.127 C 
ENDROOT
BRANCH   1   2
ATOM      2  C   UNL     1       8.460  -1.923  -2.889  1.00  0.00     0.303 C 
ATOM      3  O   UNL     1       9.532  -2.523  -3.066  1.00  0.00    -0.252 OA
BRANCH   2   4
ATOM      4  O   UNL     1       7.292  -2.445  -3.409  1.00  0.00    -0.481 OA
ATOM      5  H   UNL     1       6.380  -2.045  -3.205  1.00  0.00     0.296 HD
ENDBRANCH   2   4
ENDBRANCH   1   2
BRANCH   1   6
ATOM      6  C   UNL     1       7.014  -0.103  -2.089  1.00  0.00     0.047 C 
BRANCH   6   7
ATOM      7  C   UNL     1       6.476  -0.005  -0.718  1.00  0.00    -0.047 A 
ATOM      8  C   UNL     1       6.569  -1.001   0.220  1.00  0.00     0.004 A 
ATOM      9  C   UNL     1       5.841   1.162  -0.365  1.00  0.00     0.004 A 
ATOM     10  C   UNL     1       6.034  -0.823   1.482  1.00  0.00     0.000 A 
ATOM     11  C   UNL     1       5.306   1.356   0.874  1.00  0.00     0.000 A 
ATOM     12  C   UNL     1       5.400   0.356   1.818  1.00  0.00     0.000 A 
ENDBRANCH   6   7
ENDBRANCH   1   6
TORSDOF 4
ENDMDL
MODEL 2
REMARK VINA RESULT:      -7.3      0.130      1.725
REMARK SMILES O=C(O)CCc1ccccc1
REMARK SMILES IDX 4 1 2 2 1 3 3 4 5 6 6 7 7 8 11 9 8 10 10 11 9 12
REMARK H PARENT 3 5
REMARK Flexibility Score: inf
ROOT
ATOM      1  C   UNL     1       8.391  -0.720  -2.026  1.00  0.00     0.127 C 
ENDROOT
BRANCH   1   2
ATOM      2  C   UNL     1       8.368  -1.936  -2.873  1.00  0.00     0.303 C 
ATOM      3  O   UNL     1       7.292  -2.423  -3.255  1.00  0.00    -0.252 OA
BRANCH   2   4
ATOM      4  O   UNL     1       9.557  -2.535  -3.240  1.00  0.00    -0.481 OA
ATOM      5  H   UNL     1       9.992  -2.371  -4.144  1.00  0.00     0.296 HD
ENDBRANCH   2   4
ENDBRANCH   1   2
BRANCH   1   6
ATOM      6  C   UNL     1       7.060  -0.012  -2.079  1.00  0.00     0.047 C 
BRANCH   6   7
ATOM      7  C   UNL     1       6.458   0.175  -0.745  1.00  0.00    -0.047 A 
ATOM      8  C   UNL     1       5.784   1.304  -0.353  1.00  0.00     0.004 A 
ATOM      9  C   UNL     1       6.584  -0.851   0.161  1.00  0.00     0.004 A 
ATOM     10  C   UNL     1       5.252   1.394   0.918  1.00  0.00     0.000 A 
ATOM     11  C   UNL     1       6.067  -0.782   1.420  1.00  0.00     0.000 A 
ATOM     12  C   UNL     1       5.389   0.352   1.814  1.00  0.00     0.000 A 
ENDBRANCH   6   7
ENDBRANCH   1   6
TORSDOF 4
ENDMDL
MODEL 3
REMARK VINA RESULT:      -7.3      0.670      1.601
REMARK SMILES O=C(O)CCc1ccccc1
REMARK SMILES IDX 4 1 2 2 1 3 3 4 5 6 6 7 7 8 11 9 8 10 10 11 9 12
REMARK H PARENT 3 5
REMARK Flexibility Score: inf
ROOT
ATOM      1  C   UNL     1       8.323  -0.968  -1.813  1.00  0.00     0.127 C 
ENDROOT
BRANCH   1   2
ATOM      2  C   UNL     1       8.444  -2.033  -2.837  1.00  0.00     0.303 C 
ATOM      3  O   UNL     1       9.549  -2.519  -3.120  1.00  0.00    -0.252 OA
BRANCH   2   4
ATOM      4  O   UNL     1       7.311  -2.489  -3.484  1.00  0.00    -0.481 OA
ATOM      5  H   UNL     1       7.262  -3.411  -3.907  1.00  0.00     0.296 HD
ENDBRANCH   2   4
ENDBRANCH   1   2
BRANCH   1   6
ATOM      6  C   UNL     1       7.404  -1.405  -0.700  1.00  0.00     0.047 C 
BRANCH   6   7
ATOM      7  C   UNL     1       6.574  -0.303  -0.176  1.00  0.00    -0.047 A 
ATOM      8  C   UNL     1       6.222   0.808  -0.898  1.00  0.00     0.004 A 
ATOM      9  C   UNL     1       6.129  -0.401   1.121  1.00  0.00     0.004 A 
ATOM     10  C   UNL     1       5.441   1.794  -0.327  1.00  0.00     0.000 A 
ATOM     11  C   UNL     1       5.358   0.561   1.703  1.00  0.00     0.000 A 
ATOM     12  C   UNL     1       5.003   1.678   0.977  1.00  0.00     0.000 A 
ENDBRANCH   6   7
ENDBRANCH   1   6
TORSDOF 4
ENDMDL
MODEL 4
REMARK VINA RESULT:      -6.8      3.373      5.073
REMARK SMILES O=C(O)CCc1ccccc1
REMARK SMILES IDX 4 1 2 2 1 3 3 4 5 6 6 7 7 8 11 9 8 10 10 11 9 12
REMARK H PARENT 3 5
REMARK Flexibility Score: inf
ROOT
ATOM      1  C   UNL     1       4.982   1.805   0.738  1.00  0.00     0.127 C 
ENDROOT
BRANCH   1   2
ATOM      2  C   UNL     1       4.473   1.096   1.935  1.00  0.00     0.303 C 
ATOM      3  O   UNL     1       5.131   0.188   2.464  1.00  0.00    -0.252 OA
BRANCH   2   4
ATOM      4  O   UNL     1       3.249   1.452   2.469  1.00  0.00    -0.481 OA
ATOM      5  H   UNL     1       3.146   1.766   3.430  1.00  0.00     0.296 HD
ENDBRANCH   2   4
ENDBRANCH   1   2
BRANCH   1   6
ATOM      6  C   UNL     1       6.490   1.840   0.745  1.00  0.00     0.047 C 
BRANCH   6   7
ATOM      7  C   UNL     1       7.087   1.046  -0.347  1.00  0.00    -0.047 A 
ATOM      8  C   UNL     1       6.395   0.140  -1.109  1.00  0.00     0.004 A 
ATOM      9  C   UNL     1       8.423   1.229  -0.610  1.00  0.00     0.004 A 
ATOM     10  C   UNL     1       7.035  -0.563  -2.112  1.00  0.00     0.000 A 
ATOM     11  C   UNL     1       9.074   0.545  -1.595  1.00  0.00     0.000 A 
ATOM     12  C   UNL     1       8.379  -0.365  -2.362  1.00  0.00     0.000 A 
ENDBRANCH   6   7
ENDBRANCH   1   6
TORSDOF 4
ENDMDL
MODEL 5
REMARK VINA RESULT:      -6.7      1.945      2.667
REMARK SMILES O=C(O)CCc1ccccc1
REMARK SMILES IDX 4 1 2 2 1 3 3 4 5 6 6 7 7 8 11 9 8 10 10 11 9 12
REMARK H PARENT 3 5
REMARK Flexibility Score: inf
ROOT
ATOM      1  C   UNL     1       8.274   0.248  -2.181  1.00  0.00     0.127 C 
ENDROOT
BRANCH   1   2
ATOM      2  C   UNL     1       9.393   0.368  -1.218  1.00  0.00     0.303 C 
ATOM      3  O   UNL     1       9.469  -0.384  -0.234  1.00  0.00    -0.252 OA
BRANCH   2   4
ATOM      4  O   UNL     1      10.364   1.331  -1.417  1.00  0.00    -0.481 OA
ATOM      5  H   UNL     1      10.316   2.001  -2.179  1.00  0.00     0.296 HD
ENDBRANCH   2   4
ENDBRANCH   1   2
BRANCH   1   6
ATOM      6  C   UNL     1       7.121  -0.504  -1.564  1.00  0.00     0.047 C 
BRANCH   6   7
ATOM      7  C   UNL     1       6.332   0.323  -0.631  1.00  0.00    -0.047 A 
ATOM      8  C   UNL     1       5.798   1.546  -0.947  1.00  0.00     0.004 A 
ATOM      9  C   UNL     1       6.121  -0.169   0.635  1.00  0.00     0.004 A 
ATOM     10  C   UNL     1       5.071   2.254  -0.010  1.00  0.00     0.000 A 
ATOM     11  C   UNL     1       5.407   0.515   1.574  1.00  0.00     0.000 A 
ATOM     12  C   UNL     1       4.870   1.744   1.257  1.00  0.00     0.000 A 
ENDBRANCH   6   7
ENDBRANCH   1   6
TORSDOF 4
ENDMDL
