@<TRIPOS>MOLECULE
/home/cewinharhar/GITHUB/reincatalyze/data/processed/docking_pred/2023-Apr-25-1630_maxeplen5_maxtrainstep200_exh32_gamma099_lrac3e-4_lrcr1e-3/1f53ccdef65850680f3a99c865464637782ca6a5_ligand_2.pdbqt
 12 12 0 0 0
SMALL
GASTEIGER

@<TRIPOS>ATOM
      1  C          8.4030   -0.7280   -2.0430 C.3     1  UNL1        0.1270
      2  C          8.4660   -1.9490   -2.8810 C.2     1  UNL1        0.3030
      3  O          9.5490   -2.5090   -3.1070 O.2     1  UNL1       -0.2520
      4  O          7.3030   -2.4680   -3.4170 O.3     1  UNL1       -0.4810
      5  H          6.6790   -3.0670   -2.8830 H       1  UNL1        0.2960
      6  C          7.0250   -0.1170   -2.0980 C.3     1  UNL1        0.0470
      7  C          6.4450    0.1070   -0.7600 C.2     1  UNL1       -0.0470
      8  C          5.7990    1.2560   -0.3810 C.2     1  UNL1        0.0040
      9  C          6.5630   -0.9050    0.1630 C.2     1  UNL1        0.0040
     10  C          5.2870    1.3800    0.8960 C.2     1  UNL1        0.0000
     11  C          6.0650   -0.8020    1.4280 C.2     1  UNL1        0.0000
     12  C          5.4150    0.3530    1.8100 C.2     1  UNL1        0.0000
@<TRIPOS>BOND
     1     4     5    1
     2     4     2    1
     3     3     2    2
     4     2     1    1
     5     6     1    1
     6     6     7    1
     7     7     8    2
     8     7     9    1
     9     8    10    1
    10     9    11    2
    11    10    12    2
    12    11    12    1
