MODEL 1
REMARK VINA RESULT:      -7.4      0.000      0.000
REMARK SMILES O=C(O)CCc1ccccc1
REMARK SMILES IDX 4 1 2 2 1 3 3 4 5 6 6 7 7 8 11 9 8 10 10 11 9 12
REMARK H PARENT 3 5
REMARK Flexibility Score: inf
ROOT
ATOM      1  C   UNL     1       8.437  -0.648  -2.164  1.00  0.00     0.127 C 
ENDROOT
BRANCH   1   2
ATOM      2  C   UNL     1       8.483  -1.927  -2.911  1.00  0.00     0.303 C 
ATOM      3  O   UNL     1       9.559  -2.515  -3.098  1.00  0.00    -0.252 OA
BRANCH   2   4
ATOM      4  O   UNL     1       7.313  -2.471  -3.405  1.00  0.00    -0.481 OA
ATOM      5  H   UNL     1       7.278  -3.395  -3.825  1.00  0.00     0.296 HD
ENDBRANCH   2   4
ENDBRANCH   1   2
BRANCH   1   6
ATOM      6  C   UNL     1       7.031  -0.103  -2.131  1.00  0.00     0.047 C 
BRANCH   6   7
ATOM      7  C   UNL     1       6.494   0.013  -0.761  1.00  0.00    -0.047 A 
ATOM      8  C   UNL     1       6.585  -0.971   0.190  1.00  0.00     0.004 A 
ATOM      9  C   UNL     1       5.860   1.185  -0.423  1.00  0.00     0.004 A 
ATOM     10  C   UNL     1       6.051  -0.777   1.449  1.00  0.00     0.000 A 
ATOM     11  C   UNL     1       5.327   1.396   0.814  1.00  0.00     0.000 A 
ATOM     12  C   UNL     1       5.419   0.408   1.771  1.00  0.00     0.000 A 
ENDBRANCH   6   7
ENDBRANCH   1   6
TORSDOF 4
ENDMDL
MODEL 2
REMARK VINA RESULT:      -7.3      0.078      1.428
REMARK SMILES O=C(O)CCc1ccccc1
REMARK SMILES IDX 4 1 2 2 1 3 3 4 5 6 6 7 7 8 11 9 8 10 10 11 9 12
REMARK H PARENT 3 5
REMARK Flexibility Score: inf
ROOT
ATOM      1  C   UNL     1       8.403  -0.728  -2.043  1.00  0.00     0.127 C 
ENDROOT
BRANCH   1   2
ATOM      2  C   UNL     1       8.466  -1.949  -2.881  1.00  0.00     0.303 C 
ATOM      3  O   UNL     1       9.549  -2.509  -3.107  1.00  0.00    -0.252 OA
BRANCH   2   4
ATOM      4  O   UNL     1       7.303  -2.468  -3.417  1.00  0.00    -0.481 OA
ATOM      5  H   UNL     1       6.679  -3.067  -2.883  1.00  0.00     0.296 HD
ENDBRANCH   2   4
ENDBRANCH   1   2
BRANCH   1   6
ATOM      6  C   UNL     1       7.025  -0.117  -2.098  1.00  0.00     0.047 C 
BRANCH   6   7
ATOM      7  C   UNL     1       6.445   0.107  -0.760  1.00  0.00    -0.047 A 
ATOM      8  C   UNL     1       5.799   1.256  -0.381  1.00  0.00     0.004 A 
ATOM      9  C   UNL     1       6.563  -0.905   0.163  1.00  0.00     0.004 A 
ATOM     10  C   UNL     1       5.287   1.380   0.896  1.00  0.00     0.000 A 
ATOM     11  C   UNL     1       6.065  -0.802   1.428  1.00  0.00     0.000 A 
ATOM     12  C   UNL     1       5.415   0.353   1.810  1.00  0.00     0.000 A 
ENDBRANCH   6   7
ENDBRANCH   1   6
TORSDOF 4
ENDMDL
MODEL 3
REMARK VINA RESULT:      -6.8      3.375      5.069
REMARK SMILES O=C(O)CCc1ccccc1
REMARK SMILES IDX 4 1 2 2 1 3 3 4 5 6 6 7 7 8 11 9 8 10 10 11 9 12
REMARK H PARENT 3 5
REMARK Flexibility Score: inf
ROOT
ATOM      1  C   UNL     1       5.000   1.768   0.745  1.00  0.00     0.127 C 
ENDROOT
BRANCH   1   2
ATOM      2  C   UNL     1       4.478   1.076   1.948  1.00  0.00     0.303 C 
ATOM      3  O   UNL     1       5.129   0.170   2.492  1.00  0.00    -0.252 OA
BRANCH   2   4
ATOM      4  O   UNL     1       3.252   1.444   2.469  1.00  0.00    -0.481 OA
ATOM      5  H   UNL     1       2.909   2.399   2.426  1.00  0.00     0.296 HD
ENDBRANCH   2   4
ENDBRANCH   1   2
BRANCH   1   6
ATOM      6  C   UNL     1       6.508   1.787   0.757  1.00  0.00     0.047 C 
BRANCH   6   7
ATOM      7  C   UNL     1       7.099   0.993  -0.338  1.00  0.00    -0.047 A 
ATOM      8  C   UNL     1       6.422   0.038  -1.052  1.00  0.00     0.004 A 
ATOM      9  C   UNL     1       8.415   1.231  -0.658  1.00  0.00     0.004 A 
ATOM     10  C   UNL     1       7.056  -0.659  -2.062  1.00  0.00     0.000 A 
ATOM     11  C   UNL     1       9.058   0.553  -1.651  1.00  0.00     0.000 A 
ATOM     12  C   UNL     1       8.378  -0.407  -2.369  1.00  0.00     0.000 A 
ENDBRANCH   6   7
ENDBRANCH   1   6
TORSDOF 4
ENDMDL
MODEL 4
REMARK VINA RESULT:      -6.7      3.343      5.047
REMARK SMILES O=C(O)CCc1ccccc1
REMARK SMILES IDX 4 1 2 2 1 3 3 4 5 6 6 7 7 8 11 9 8 10 10 11 9 12
REMARK H PARENT 3 5
REMARK Flexibility Score: inf
ROOT
ATOM      1  C   UNL     1       5.052   1.698   0.705  1.00  0.00     0.127 C 
ENDROOT
BRANCH   1   2
ATOM      2  C   UNL     1       4.595   1.014   1.938  1.00  0.00     0.303 C 
ATOM      3  O   UNL     1       5.306   0.161   2.492  1.00  0.00    -0.252 OA
BRANCH   2   4
ATOM      4  O   UNL     1       3.363   1.330   2.477  1.00  0.00    -0.481 OA
ATOM      5  H   UNL     1       2.840   0.679   3.055  1.00  0.00     0.296 HD
ENDBRANCH   2   4
ENDBRANCH   1   2
BRANCH   1   6
ATOM      6  C   UNL     1       6.553   1.852   0.710  1.00  0.00     0.047 C 
BRANCH   6   7
ATOM      7  C   UNL     1       7.212   1.074  -0.357  1.00  0.00    -0.047 A 
ATOM      8  C   UNL     1       8.540   1.179  -0.681  1.00  0.00     0.004 A 
ATOM      9  C   UNL     1       6.439   0.188  -1.069  1.00  0.00     0.004 A 
ATOM     10  C   UNL     1       9.074   0.411  -1.697  1.00  0.00     0.000 A 
ATOM     11  C   UNL     1       6.946  -0.579  -2.076  1.00  0.00     0.000 A 
ATOM     12  C   UNL     1       8.282  -0.474  -2.402  1.00  0.00     0.000 A 
ENDBRANCH   6   7
ENDBRANCH   1   6
TORSDOF 4
ENDMDL
MODEL 5
REMARK VINA RESULT:      -6.7      1.953      2.310
REMARK SMILES O=C(O)CCc1ccccc1
REMARK SMILES IDX 4 1 2 2 1 3 3 4 5 6 6 7 7 8 11 9 8 10 10 11 9 12
REMARK H PARENT 3 5
REMARK Flexibility Score: inf
ROOT
ATOM      1  C   UNL     1       8.276   0.249  -2.140  1.00  0.00     0.127 C 
ENDROOT
BRANCH   1   2
ATOM      2  C   UNL     1       9.414   0.366  -1.198  1.00  0.00     0.303 C 
ATOM      3  O   UNL     1       9.494  -0.372  -0.204  1.00  0.00    -0.252 OA
BRANCH   2   4
ATOM      4  O   UNL     1      10.397   1.309  -1.430  1.00  0.00    -0.481 OA
ATOM      5  H   UNL     1      10.215   2.170  -1.937  1.00  0.00     0.296 HD
ENDBRANCH   2   4
ENDBRANCH   1   2
BRANCH   1   6
ATOM      6  C   UNL     1       7.164  -0.568  -1.529  1.00  0.00     0.047 C 
BRANCH   6   7
ATOM      7  C   UNL     1       6.377   0.189  -0.536  1.00  0.00    -0.047 A 
ATOM      8  C   UNL     1       6.145  -0.233   0.748  1.00  0.00     0.004 A 
ATOM      9  C   UNL     1       5.843   1.393  -0.930  1.00  0.00     0.004 A 
ATOM     10  C   UNL     1       5.394   0.541   1.612  1.00  0.00     0.000 A 
ATOM     11  C   UNL     1       5.099   2.170  -0.093  1.00  0.00     0.000 A 
ATOM     12  C   UNL     1       4.866   1.747   1.199  1.00  0.00     0.000 A 
ENDBRANCH   6   7
ENDBRANCH   1   6
TORSDOF 4
ENDMDL
