@<TRIPOS>MOLECULE
/home/cewinharhar/GITHUB/reincatalyze/data/processed/docking_pred/2023-Apr-25-1630_maxeplen5_maxtrainstep200_exh32_gamma099_lrac3e-4_lrcr1e-3/1f53ccdef65850680f3a99c865464637782ca6a5_ligand_2.pdbqt
 12 12 0 0 0
SMALL
GASTEIGER

@<TRIPOS>ATOM
      1  C          8.2760    0.2490   -2.1400 C.3     1  UNL1        0.1270
      2  C          9.4140    0.3660   -1.1980 C.2     1  UNL1        0.3030
      3  O          9.4940   -0.3720   -0.2040 O.2     1  UNL1       -0.2520
      4  O         10.3970    1.3090   -1.4300 O.3     1  UNL1       -0.4810
      5  H         10.2150    2.1700   -1.9370 H       1  UNL1        0.2960
      6  C          7.1640   -0.5680   -1.5290 C.3     1  UNL1        0.0470
      7  C          6.3770    0.1890   -0.5360 C.2     1  UNL1       -0.0470
      8  C          6.1450   -0.2330    0.7480 C.2     1  UNL1        0.0040
      9  C          5.8430    1.3930   -0.9300 C.2     1  UNL1        0.0040
     10  C          5.3940    0.5410    1.6120 C.2     1  UNL1        0.0000
     11  C          5.0990    2.1700   -0.0930 C.2     1  UNL1        0.0000
     12  C          4.8660    1.7470    1.1990 C.2     1  UNL1        0.0000
@<TRIPOS>BOND
     1     1     6    1
     2     1     2    1
     3     5     4    1
     4     6     7    1
     5     4     2    1
     6     2     3    2
     7     9     7    2
     8     9    11    1
     9     7     8    1
    10    11    12    2
    11     8    10    2
    12    12    10    1
