@<TRIPOS>MOLECULE
/home/cewinharhar/GITHUB/reincatalyze/data/processed/docking_pred/2023-Apr-25-1630_maxeplen5_maxtrainstep200_exh32_gamma099_lrac3e-4_lrcr1e-3/1f53ccdef65850680f3a99c865464637782ca6a5_ligand_2.pdbqt
 12 12 0 0 0
SMALL
GASTEIGER

@<TRIPOS>ATOM
      1  C          5.0520    1.6980    0.7050 C.3     1  UNL1        0.1270
      2  C          4.5950    1.0140    1.9380 C.2     1  UNL1        0.3030
      3  O          5.3060    0.1610    2.4920 O.2     1  UNL1       -0.2520
      4  O          3.3630    1.3300    2.4770 O.3     1  UNL1       -0.4810
      5  H          2.8400    0.6790    3.0550 H       1  UNL1        0.2960
      6  C          6.5530    1.8520    0.7100 C.3     1  UNL1        0.0470
      7  C          7.2120    1.0740   -0.3570 C.2     1  UNL1       -0.0470
      8  C          8.5400    1.1790   -0.6810 C.2     1  UNL1        0.0040
      9  C          6.4390    0.1880   -1.0690 C.2     1  UNL1        0.0040
     10  C          9.0740    0.4110   -1.6970 C.2     1  UNL1        0.0000
     11  C          6.9460   -0.5790   -2.0760 C.2     1  UNL1        0.0000
     12  C          8.2820   -0.4740   -2.4020 C.2     1  UNL1        0.0000
@<TRIPOS>BOND
     1    12    11    2
     2    12    10    1
     3    11     9    1
     4    10     8    2
     5     9     7    2
     6     8     7    1
     7     7     6    1
     8     1     6    1
     9     1     2    1
    10     2     4    1
    11     2     3    2
    12     4     5    1
