@<TRIPOS>MOLECULE
/home/cewinharhar/GITHUB/reincatalyze/data/processed/docking_pred/2023-Apr-25-1630_maxeplen5_maxtrainstep200_exh32_gamma099_lrac3e-4_lrcr1e-3/1f53ccdef65850680f3a99c865464637782ca6a5_ligand_2.pdbqt
 12 12 0 0 0
SMALL
GASTEIGER

@<TRIPOS>ATOM
      1  C          5.0000    1.7680    0.7450 C.3     1  UNL1        0.1270
      2  C          4.4780    1.0760    1.9480 C.2     1  UNL1        0.3030
      3  O          5.1290    0.1700    2.4920 O.2     1  UNL1       -0.2520
      4  O          3.2520    1.4440    2.4690 O.3     1  UNL1       -0.4810
      5  H          2.9090    2.3990    2.4260 H       1  UNL1        0.2960
      6  C          6.5080    1.7870    0.7570 C.3     1  UNL1        0.0470
      7  C          7.0990    0.9930   -0.3380 C.2     1  UNL1       -0.0470
      8  C          6.4220    0.0380   -1.0520 C.2     1  UNL1        0.0040
      9  C          8.4150    1.2310   -0.6580 C.2     1  UNL1        0.0040
     10  C          7.0560   -0.6590   -2.0620 C.2     1  UNL1        0.0000
     11  C          9.0580    0.5530   -1.6510 C.2     1  UNL1        0.0000
     12  C          8.3780   -0.4070   -2.3690 C.2     1  UNL1        0.0000
@<TRIPOS>BOND
     1    12    10    2
     2    12    11    1
     3    10     8    1
     4    11     9    2
     5     8     7    2
     6     9     7    1
     7     7     6    1
     8     1     6    1
     9     1     2    1
    10     2     4    1
    11     2     3    2
    12     5     4    1
