@<TRIPOS>MOLECULE
/home/cewinharhar/GITHUB/reincatalyze/data/processed/docking_pred/2023-Apr-25-1630_maxeplen5_maxtrainstep200_exh32_gamma099_lrac3e-4_lrcr1e-3/1f53ccdef65850680f3a99c865464637782ca6a5_ligand_2.pdbqt
 12 12 0 0 0
SMALL
GASTEIGER

@<TRIPOS>ATOM
      1  C          8.4370   -0.6480   -2.1640 C.3     1  UNL1        0.1270
      2  C          8.4830   -1.9270   -2.9110 C.2     1  UNL1        0.3030
      3  O          9.5590   -2.5150   -3.0980 O.2     1  UNL1       -0.2520
      4  O          7.3130   -2.4710   -3.4050 O.3     1  UNL1       -0.4810
      5  H          7.2780   -3.3950   -3.8250 H       1  UNL1        0.2960
      6  C          7.0310   -0.1030   -2.1310 C.3     1  UNL1        0.0470
      7  C          6.4940    0.0130   -0.7610 C.2     1  UNL1       -0.0470
      8  C          6.5850   -0.9710    0.1900 C.2     1  UNL1        0.0040
      9  C          5.8600    1.1850   -0.4230 C.2     1  UNL1        0.0040
     10  C          6.0510   -0.7770    1.4490 C.2     1  UNL1        0.0000
     11  C          5.3270    1.3960    0.8140 C.2     1  UNL1        0.0000
     12  C          5.4190    0.4080    1.7710 C.2     1  UNL1        0.0000
@<TRIPOS>BOND
     1     5     4    1
     2     4     2    1
     3     3     2    2
     4     2     1    1
     5     1     6    1
     6     6     7    1
     7     7     9    2
     8     7     8    1
     9     9    11    1
    10     8    10    2
    11    11    12    2
    12    10    12    1
