@<TRIPOS>MOLECULE
/home/cewinharhar/GITHUB/reincatalyze/data/processed/docking_pred/2023-Apr-25-1630_maxeplen5_maxtrainstep200_exh32_gamma099_lrac3e-4_lrcr1e-3/1f774135605f6656ff2aa9e322f53f2a679c664c_ligand_2.pdbqt
 12 12 0 0 0
SMALL
GASTEIGER

@<TRIPOS>ATOM
      1  C          8.5830   -0.5760   -2.0080 C.3     1  UNL1        0.1270
      2  C          8.7450   -1.8340   -2.7750 C.2     1  UNL1        0.3030
      3  O          9.8680   -2.3300   -2.9500 O.2     1  UNL1       -0.2520
      4  O          7.6320   -2.4600   -3.3010 O.3     1  UNL1       -0.4810
      5  H          7.5230   -3.4710   -3.2940 H       1  UNL1        0.2960
      6  C          7.1660   -0.0710   -2.1110 C.3     1  UNL1        0.0470
      7  C          6.5350    0.1380   -0.7940 C.2     1  UNL1       -0.0470
      8  C          5.8530    1.2730   -0.4360 C.2     1  UNL1        0.0040
      9  C          6.6410   -0.8730    0.1310 C.2     1  UNL1        0.0040
     10  C          5.2940    1.3850    0.8220 C.2     1  UNL1        0.0000
     11  C          6.0960   -0.7820    1.3780 C.2     1  UNL1        0.0000
     12  C          5.4110    0.3580    1.7380 C.2     1  UNL1        0.0000
@<TRIPOS>BOND
     1     4     5    1
     2     4     2    1
     3     3     2    2
     4     2     1    1
     5     6     1    1
     6     6     7    1
     7     7     8    2
     8     7     9    1
     9     8    10    1
    10     9    11    2
    11    10    12    2
    12    11    12    1
