@<TRIPOS>MOLECULE
/home/cewinharhar/GITHUB/reincatalyze/data/processed/docking_pred/2023-Apr-25-1630_maxeplen5_maxtrainstep200_exh32_gamma099_lrac3e-4_lrcr1e-3/1f774135605f6656ff2aa9e322f53f2a679c664c_ligand_2.pdbqt
 12 12 0 0 0
SMALL
GASTEIGER

@<TRIPOS>ATOM
      1  C          8.6410    0.6370   -1.7660 C.3     1  UNL1        0.1270
      2  C          9.7750   -0.1440   -1.2170 C.2     1  UNL1        0.3030
      3  O          9.7020   -1.3770   -1.1030 O.2     1  UNL1       -0.2520
      4  O         10.9280    0.5100   -0.8270 O.3     1  UNL1       -0.4810
      5  H         11.2730    1.3370   -1.3070 H       1  UNL1        0.2960
      6  C          7.3660   -0.1670   -1.7050 C.3     1  UNL1        0.0470
      7  C          6.5970    0.0730   -0.4690 C.2     1  UNL1       -0.0470
      8  C          6.5100   -0.8170    0.5710 C.2     1  UNL1        0.0040
      9  C          5.9230    1.2660   -0.3590 C.2     1  UNL1        0.0040
     10  C          5.7640   -0.5100    1.6930 C.2     1  UNL1        0.0000
     11  C          5.1820    1.5880    0.7390 C.2     1  UNL1        0.0000
     12  C          5.0950    0.6940    1.7850 C.2     1  UNL1        0.0000
@<TRIPOS>BOND
     1     1     6    1
     2     1     2    1
     3     6     7    1
     4     5     4    1
     5     2     3    2
     6     2     4    1
     7     7     9    2
     8     7     8    1
     9     9    11    1
    10     8    10    2
    11    11    12    2
    12    10    12    1
