@<TRIPOS>MOLECULE
/home/cewinharhar/GITHUB/reincatalyze/data/processed/docking_pred/2023-Apr-25-1630_maxeplen5_maxtrainstep200_exh32_gamma099_lrac3e-4_lrcr1e-3/1f774135605f6656ff2aa9e322f53f2a679c664c_ligand_2.pdbqt
 12 12 0 0 0
SMALL
GASTEIGER

@<TRIPOS>ATOM
      1  C          5.0070    1.7600    0.7210 C.3     1  UNL1        0.1270
      2  C          4.4880    1.0890    1.9360 C.2     1  UNL1        0.3030
      3  O          5.1430    0.1970    2.4980 O.2     1  UNL1       -0.2520
      4  O          3.2610    1.4610    2.4500 O.3     1  UNL1       -0.4810
      5  H          2.6500    2.1200    1.9750 H       1  UNL1        0.2960
      6  C          6.5110    1.8610    0.7720 C.3     1  UNL1        0.0470
      7  C          7.1720    1.1220   -0.3210 C.2     1  UNL1       -0.0470
      8  C          8.5020    1.2370   -0.6360 C.2     1  UNL1        0.0040
      9  C          6.4000    0.2650   -1.0680 C.2     1  UNL1        0.0040
     10  C          9.0380    0.5070   -1.6780 C.2     1  UNL1        0.0000
     11  C          6.9110   -0.4650   -2.1010 C.2     1  UNL1        0.0000
     12  C          8.2470   -0.3500   -2.4180 C.2     1  UNL1        0.0000
@<TRIPOS>BOND
     1    12    11    2
     2    12    10    1
     3    11     9    1
     4    10     8    2
     5     9     7    2
     6     8     7    1
     7     7     6    1
     8     1     6    1
     9     1     2    1
    10     2     4    1
    11     2     3    2
    12     5     4    1
