MODEL 1
REMARK VINA RESULT:      -6.9      0.000      0.000
REMARK SMILES O=C(O)CCc1ccccc1
REMARK SMILES IDX 4 1 2 2 1 3 3 4 5 6 6 7 7 8 11 9 8 10 10 11 9 12
REMARK H PARENT 3 5
REMARK Flexibility Score: inf
ROOT
ATOM      1  C   UNL     1       8.583  -0.576  -2.008  1.00  0.00     0.127 C 
ENDROOT
BRANCH   1   2
ATOM      2  C   UNL     1       8.745  -1.834  -2.775  1.00  0.00     0.303 C 
ATOM      3  O   UNL     1       9.868  -2.330  -2.950  1.00  0.00    -0.252 OA
BRANCH   2   4
ATOM      4  O   UNL     1       7.632  -2.460  -3.301  1.00  0.00    -0.481 OA
ATOM      5  H   UNL     1       7.523  -3.471  -3.294  1.00  0.00     0.296 HD
ENDBRANCH   2   4
ENDBRANCH   1   2
BRANCH   1   6
ATOM      6  C   UNL     1       7.166  -0.071  -2.111  1.00  0.00     0.047 C 
BRANCH   6   7
ATOM      7  C   UNL     1       6.535   0.138  -0.794  1.00  0.00    -0.047 A 
ATOM      8  C   UNL     1       5.853   1.273  -0.436  1.00  0.00     0.004 A 
ATOM      9  C   UNL     1       6.641  -0.873   0.131  1.00  0.00     0.004 A 
ATOM     10  C   UNL     1       5.294   1.385   0.822  1.00  0.00     0.000 A 
ATOM     11  C   UNL     1       6.096  -0.782   1.378  1.00  0.00     0.000 A 
ATOM     12  C   UNL     1       5.411   0.358   1.738  1.00  0.00     0.000 A 
ENDBRANCH   6   7
ENDBRANCH   1   6
TORSDOF 4
ENDMDL
MODEL 2
REMARK VINA RESULT:      -6.9      0.257      1.733
REMARK SMILES O=C(O)CCc1ccccc1
REMARK SMILES IDX 4 1 2 2 1 3 3 4 5 6 6 7 7 8 11 9 8 10 10 11 9 12
REMARK H PARENT 3 5
REMARK Flexibility Score: inf
ROOT
ATOM      1  C   UNL     1       8.564  -0.785  -1.979  1.00  0.00     0.127 C 
ENDROOT
BRANCH   1   2
ATOM      2  C   UNL     1       8.442  -1.993  -2.828  1.00  0.00     0.303 C 
ATOM      3  O   UNL     1       7.327  -2.426  -3.161  1.00  0.00    -0.252 OA
BRANCH   2   4
ATOM      4  O   UNL     1       9.582  -2.646  -3.255  1.00  0.00    -0.481 OA
ATOM      5  H   UNL     1      10.343  -2.880  -2.623  1.00  0.00     0.296 HD
ENDBRANCH   2   4
ENDBRANCH   1   2
BRANCH   1   6
ATOM      6  C   UNL     1       7.300   0.036  -2.040  1.00  0.00     0.047 C 
BRANCH   6   7
ATOM      7  C   UNL     1       6.621   0.141  -0.735  1.00  0.00    -0.047 A 
ATOM      8  C   UNL     1       6.656  -0.828   0.234  1.00  0.00     0.004 A 
ATOM      9  C   UNL     1       5.907   1.288  -0.478  1.00  0.00     0.004 A 
ATOM     10  C   UNL     1       5.989  -0.646   1.430  1.00  0.00     0.000 A 
ATOM     11  C   UNL     1       5.241   1.487   0.695  1.00  0.00     0.000 A 
ATOM     12  C   UNL     1       5.277   0.512   1.669  1.00  0.00     0.000 A 
ENDBRANCH   6   7
ENDBRANCH   1   6
TORSDOF 4
ENDMDL
MODEL 3
REMARK VINA RESULT:      -6.6      3.393      5.083
REMARK SMILES O=C(O)CCc1ccccc1
REMARK SMILES IDX 4 1 2 2 1 3 3 4 5 6 6 7 7 8 11 9 8 10 10 11 9 12
REMARK H PARENT 3 5
REMARK Flexibility Score: inf
ROOT
ATOM      1  C   UNL     1       5.007   1.760   0.721  1.00  0.00     0.127 C 
ENDROOT
BRANCH   1   2
ATOM      2  C   UNL     1       4.488   1.089   1.936  1.00  0.00     0.303 C 
ATOM      3  O   UNL     1       5.143   0.197   2.498  1.00  0.00    -0.252 OA
BRANCH   2   4
ATOM      4  O   UNL     1       3.261   1.461   2.450  1.00  0.00    -0.481 OA
ATOM      5  H   UNL     1       2.650   2.120   1.975  1.00  0.00     0.296 HD
ENDBRANCH   2   4
ENDBRANCH   1   2
BRANCH   1   6
ATOM      6  C   UNL     1       6.511   1.861   0.772  1.00  0.00     0.047 C 
BRANCH   6   7
ATOM      7  C   UNL     1       7.172   1.122  -0.321  1.00  0.00    -0.047 A 
ATOM      8  C   UNL     1       8.502   1.237  -0.636  1.00  0.00     0.004 A 
ATOM      9  C   UNL     1       6.400   0.265  -1.068  1.00  0.00     0.004 A 
ATOM     10  C   UNL     1       9.038   0.507  -1.678  1.00  0.00     0.000 A 
ATOM     11  C   UNL     1       6.911  -0.465  -2.101  1.00  0.00     0.000 A 
ATOM     12  C   UNL     1       8.247  -0.350  -2.418  1.00  0.00     0.000 A 
ENDBRANCH   6   7
ENDBRANCH   1   6
TORSDOF 4
ENDMDL
MODEL 4
REMARK VINA RESULT:      -6.6      3.812      4.896
REMARK SMILES O=C(O)CCc1ccccc1
REMARK SMILES IDX 4 1 2 2 1 3 3 4 5 6 6 7 7 8 11 9 8 10 10 11 9 12
REMARK H PARENT 3 5
REMARK Flexibility Score: inf
ROOT
ATOM      1  C   UNL     1       5.492   2.912  -0.029  1.00  0.00     0.127 C 
ENDROOT
BRANCH   1   2
ATOM      2  C   UNL     1       6.275   3.867   0.791  1.00  0.00     0.303 C 
ATOM      3  O   UNL     1       6.930   4.775   0.256  1.00  0.00    -0.252 OA
BRANCH   2   4
ATOM      4  O   UNL     1       6.274   3.745   2.167  1.00  0.00    -0.481 OA
ATOM      5  H   UNL     1       5.710   3.052   2.651  1.00  0.00     0.296 HD
ENDBRANCH   2   4
ENDBRANCH   1   2
BRANCH   1   6
ATOM      6  C   UNL     1       4.901   1.829   0.839  1.00  0.00     0.047 C 
BRANCH   6   7
ATOM      7  C   UNL     1       5.734   0.611   0.882  1.00  0.00    -0.047 A 
ATOM      8  C   UNL     1       6.519   0.176  -0.155  1.00  0.00     0.004 A 
ATOM      9  C   UNL     1       5.716  -0.132   2.038  1.00  0.00     0.004 A 
ATOM     10  C   UNL     1       7.266  -0.978  -0.029  1.00  0.00     0.000 A 
ATOM     11  C   UNL     1       6.446  -1.275   2.182  1.00  0.00     0.000 A 
ATOM     12  C   UNL     1       7.236  -1.712   1.141  1.00  0.00     0.000 A 
ENDBRANCH   6   7
ENDBRANCH   1   6
TORSDOF 4
ENDMDL
MODEL 5
REMARK VINA RESULT:      -6.6      1.449      2.358
REMARK SMILES O=C(O)CCc1ccccc1
REMARK SMILES IDX 4 1 2 2 1 3 3 4 5 6 6 7 7 8 11 9 8 10 10 11 9 12
REMARK H PARENT 3 5
REMARK Flexibility Score: inf
ROOT
ATOM      1  C   UNL     1       8.641   0.637  -1.766  1.00  0.00     0.127 C 
ENDROOT
BRANCH   1   2
ATOM      2  C   UNL     1       9.775  -0.144  -1.217  1.00  0.00     0.303 C 
ATOM      3  O   UNL     1       9.702  -1.377  -1.103  1.00  0.00    -0.252 OA
BRANCH   2   4
ATOM      4  O   UNL     1      10.928   0.510  -0.827  1.00  0.00    -0.481 OA
ATOM      5  H   UNL     1      11.273   1.337  -1.307  1.00  0.00     0.296 HD
ENDBRANCH   2   4
ENDBRANCH   1   2
BRANCH   1   6
ATOM      6  C   UNL     1       7.366  -0.167  -1.705  1.00  0.00     0.047 C 
BRANCH   6   7
ATOM      7  C   UNL     1       6.597   0.073  -0.469  1.00  0.00    -0.047 A 
ATOM      8  C   UNL     1       6.510  -0.817   0.571  1.00  0.00     0.004 A 
ATOM      9  C   UNL     1       5.923   1.266  -0.359  1.00  0.00     0.004 A 
ATOM     10  C   UNL     1       5.764  -0.510   1.693  1.00  0.00     0.000 A 
ATOM     11  C   UNL     1       5.182   1.588   0.739  1.00  0.00     0.000 A 
ATOM     12  C   UNL     1       5.095   0.694   1.785  1.00  0.00     0.000 A 
ENDBRANCH   6   7
ENDBRANCH   1   6
TORSDOF 4
ENDMDL
