@<TRIPOS>MOLECULE
/home/cewinharhar/GITHUB/reincatalyze/data/processed/docking_pred/2023-Apr-25-1630_maxeplen5_maxtrainstep200_exh32_gamma099_lrac3e-4_lrcr1e-3/1f774135605f6656ff2aa9e322f53f2a679c664c_ligand_2.pdbqt
 12 12 0 0 0
SMALL
GASTEIGER

@<TRIPOS>ATOM
      1  C          8.5640   -0.7850   -1.9790 C.3     1  UNL1        0.1270
      2  C          8.4420   -1.9930   -2.8280 C.2     1  UNL1        0.3030
      3  O          7.3270   -2.4260   -3.1610 O.2     1  UNL1       -0.2520
      4  O          9.5820   -2.6460   -3.2550 O.3     1  UNL1       -0.4810
      5  H         10.3430   -2.8800   -2.6230 H       1  UNL1        0.2960
      6  C          7.3000    0.0360   -2.0400 C.3     1  UNL1        0.0470
      7  C          6.6210    0.1410   -0.7350 C.2     1  UNL1       -0.0470
      8  C          6.6560   -0.8280    0.2340 C.2     1  UNL1        0.0040
      9  C          5.9070    1.2880   -0.4780 C.2     1  UNL1        0.0040
     10  C          5.9890   -0.6460    1.4300 C.2     1  UNL1        0.0000
     11  C          5.2410    1.4870    0.6950 C.2     1  UNL1        0.0000
     12  C          5.2770    0.5120    1.6690 C.2     1  UNL1        0.0000
@<TRIPOS>BOND
     1     4     2    1
     2     4     5    1
     3     3     2    2
     4     2     1    1
     5     6     1    1
     6     6     7    1
     7     7     9    2
     8     7     8    1
     9     9    11    1
    10     8    10    2
    11    11    12    2
    12    10    12    1
