@<TRIPOS>MOLECULE
/home/cewinharhar/GITHUB/reincatalyze/data/processed/docking_pred/2023-Apr-25-1630_maxeplen5_maxtrainstep200_exh32_gamma099_lrac3e-4_lrcr1e-3/1f774135605f6656ff2aa9e322f53f2a679c664c_ligand_2.pdbqt
 12 12 0 0 0
SMALL
GASTEIGER

@<TRIPOS>ATOM
      1  C          5.4920    2.9120   -0.0290 C.3     1  UNL1        0.1270
      2  C          6.2750    3.8670    0.7910 C.2     1  UNL1        0.3030
      3  O          6.9300    4.7750    0.2560 O.2     1  UNL1       -0.2520
      4  O          6.2740    3.7450    2.1670 O.3     1  UNL1       -0.4810
      5  H          5.7100    3.0520    2.6510 H       1  UNL1        0.2960
      6  C          4.9010    1.8290    0.8390 C.3     1  UNL1        0.0470
      7  C          5.7340    0.6110    0.8820 C.2     1  UNL1       -0.0470
      8  C          6.5190    0.1760   -0.1550 C.2     1  UNL1        0.0040
      9  C          5.7160   -0.1320    2.0380 C.2     1  UNL1        0.0040
     10  C          7.2660   -0.9780   -0.0290 C.2     1  UNL1        0.0000
     11  C          6.4460   -1.2750    2.1820 C.2     1  UNL1        0.0000
     12  C          7.2360   -1.7120    1.1410 C.2     1  UNL1        0.0000
@<TRIPOS>BOND
     1     8    10    1
     2     8     7    2
     3     1     2    1
     4     1     6    1
     5    10    12    2
     6     3     2    2
     7     2     4    1
     8     6     7    1
     9     7     9    1
    10    12    11    1
    11     9    11    2
    12     4     5    1
