@<TRIPOS>MOLECULE
/home/cewinharhar/GITHUB/reincatalyze/data/processed/docking_pred/2023-Apr-25-1630_maxeplen5_maxtrainstep200_exh32_gamma099_lrac3e-4_lrcr1e-3/1fd5ec6d4a6889d2560636754963a08404c0587d_ligand_2.pdbqt
 12 12 0 0 0
SMALL
GASTEIGER

@<TRIPOS>ATOM
      1  C          8.4100   -0.5850   -2.2000 C.3     1  UNL1        0.1270
      2  C          8.4670   -1.8890   -2.9010 C.2     1  UNL1        0.3030
      3  O          9.5430   -2.4910   -3.0360 O.2     1  UNL1       -0.2520
      4  O          7.3070   -2.4410   -3.4110 O.3     1  UNL1       -0.4810
      5  H          6.5420   -1.8700   -3.7590 H       1  UNL1        0.2960
      6  C          6.9920   -0.0720   -2.1500 C.3     1  UNL1        0.0470
      7  C          6.4730    0.0430   -0.7730 C.2     1  UNL1       -0.0470
      8  C          6.5810   -0.9400    0.1770 C.2     1  UNL1        0.0040
      9  C          5.8400    1.2130   -0.4260 C.2     1  UNL1        0.0040
     10  C          6.0640   -0.7480    1.4430 C.2     1  UNL1        0.0000
     11  C          5.3220    1.4220    0.8180 C.2     1  UNL1        0.0000
     12  C          5.4310    0.4340    1.7740 C.2     1  UNL1        0.0000
@<TRIPOS>BOND
     1     5     4    1
     2     4     2    1
     3     3     2    2
     4     2     1    1
     5     1     6    1
     6     6     7    1
     7     7     9    2
     8     7     8    1
     9     9    11    1
    10     8    10    2
    11    11    12    2
    12    10    12    1
