@<TRIPOS>MOLECULE
/home/cewinharhar/GITHUB/reincatalyze/data/processed/docking_pred/2023-Apr-25-1630_maxeplen5_maxtrainstep200_exh32_gamma099_lrac3e-4_lrcr1e-3/1fd5ec6d4a6889d2560636754963a08404c0587d_ligand_2.pdbqt
 12 12 0 0 0
SMALL
GASTEIGER

@<TRIPOS>ATOM
      1  C          8.3670   -0.5940   -2.1680 C.3     1  UNL1        0.1270
      2  C          8.3320   -1.8500   -2.9540 C.2     1  UNL1        0.3030
      3  O          7.2510   -2.3510   -3.3030 O.2     1  UNL1       -0.2520
      4  O          9.5160   -2.4710   -3.3010 O.3     1  UNL1       -0.4810
      5  H         10.3480   -2.4170   -2.7210 H       1  UNL1        0.2960
      6  C          7.0020    0.0480   -2.1330 C.3     1  UNL1        0.0470
      7  C          6.4730    0.1940   -0.7640 C.2     1  UNL1       -0.0470
      8  C          5.8030    1.3010   -0.3090 C.2     1  UNL1        0.0040
      9  C          6.6680   -0.8500    0.1100 C.2     1  UNL1        0.0040
     10  C          5.3420    1.3530    0.9920 C.2     1  UNL1        0.0000
     11  C          6.2210   -0.8170    1.3980 C.2     1  UNL1        0.0000
     12  C          5.5470    0.2950    1.8550 C.2     1  UNL1        0.0000
@<TRIPOS>BOND
     1     3     2    2
     2     4     2    1
     3     4     5    1
     4     2     1    1
     5     1     6    1
     6     6     7    1
     7     7     8    2
     8     7     9    1
     9     8    10    1
    10     9    11    2
    11    10    12    2
    12    11    12    1
