@<TRIPOS>MOLECULE
/home/cewinharhar/GITHUB/reincatalyze/data/processed/docking_pred/2023-Apr-25-1630_maxeplen5_maxtrainstep200_exh32_gamma099_lrac3e-4_lrcr1e-3/1fd5ec6d4a6889d2560636754963a08404c0587d_ligand_2.pdbqt
 12 12 0 0 0
SMALL
GASTEIGER

@<TRIPOS>ATOM
      1  C          8.2710    0.2560   -2.1830 C.3     1  UNL1        0.1270
      2  C          9.3940    0.3830   -1.2240 C.2     1  UNL1        0.3030
      3  O          9.4820   -0.3750   -0.2450 O.2     1  UNL1       -0.2520
      4  O         10.3530    1.3570   -1.4210 O.3     1  UNL1       -0.4810
      5  H         10.9450    1.3770   -2.2470 H       1  UNL1        0.2960
      6  C          7.1260   -0.5030   -1.5610 C.3     1  UNL1        0.0470
      7  C          6.3340    0.3200   -0.6270 C.2     1  UNL1       -0.0470
      8  C          5.7860    1.5360   -0.9440 C.2     1  UNL1        0.0040
      9  C          6.1360   -0.1680    0.6430 C.2     1  UNL1        0.0040
     10  C          5.0570    2.2410   -0.0050 C.2     1  UNL1        0.0000
     11  C          5.4210    0.5120    1.5840 C.2     1  UNL1        0.0000
     12  C          4.8700    1.7340    1.2650 C.2     1  UNL1        0.0000
@<TRIPOS>BOND
     1     5     4    1
     2     1     6    1
     3     1     2    1
     4     6     7    1
     5     4     2    1
     6     2     3    2
     7     8     7    2
     8     8    10    1
     9     7     9    1
    10    10    12    2
    11     9    11    2
    12    12    11    1
