MODEL 1
REMARK VINA RESULT:      -7.3      0.000      0.000
REMARK SMILES O=C(O)CCc1ccccc1
REMARK SMILES IDX 4 1 2 2 1 3 3 4 5 6 6 7 7 8 11 9 8 10 10 11 9 12
REMARK H PARENT 3 5
REMARK Flexibility Score: inf
ROOT
ATOM      1  C   UNL     1       8.410  -0.585  -2.200  1.00  0.00     0.127 C 
ENDROOT
BRANCH   1   2
ATOM      2  C   UNL     1       8.467  -1.889  -2.901  1.00  0.00     0.303 C 
ATOM      3  O   UNL     1       9.543  -2.491  -3.036  1.00  0.00    -0.252 OA
BRANCH   2   4
ATOM      4  O   UNL     1       7.307  -2.441  -3.411  1.00  0.00    -0.481 OA
ATOM      5  H   UNL     1       6.542  -1.870  -3.759  1.00  0.00     0.296 HD
ENDBRANCH   2   4
ENDBRANCH   1   2
BRANCH   1   6
ATOM      6  C   UNL     1       6.992  -0.072  -2.150  1.00  0.00     0.047 C 
BRANCH   6   7
ATOM      7  C   UNL     1       6.473   0.043  -0.773  1.00  0.00    -0.047 A 
ATOM      8  C   UNL     1       6.581  -0.940   0.177  1.00  0.00     0.004 A 
ATOM      9  C   UNL     1       5.840   1.213  -0.426  1.00  0.00     0.004 A 
ATOM     10  C   UNL     1       6.064  -0.748   1.443  1.00  0.00     0.000 A 
ATOM     11  C   UNL     1       5.322   1.422   0.818  1.00  0.00     0.000 A 
ATOM     12  C   UNL     1       5.431   0.434   1.774  1.00  0.00     0.000 A 
ENDBRANCH   6   7
ENDBRANCH   1   6
TORSDOF 4
ENDMDL
MODEL 2
REMARK VINA RESULT:      -7.2      0.167      1.725
REMARK SMILES O=C(O)CCc1ccccc1
REMARK SMILES IDX 4 1 2 2 1 3 3 4 5 6 6 7 7 8 11 9 8 10 10 11 9 12
REMARK H PARENT 3 5
REMARK Flexibility Score: inf
ROOT
ATOM      1  C   UNL     1       8.367  -0.594  -2.168  1.00  0.00     0.127 C 
ENDROOT
BRANCH   1   2
ATOM      2  C   UNL     1       8.332  -1.850  -2.954  1.00  0.00     0.303 C 
ATOM      3  O   UNL     1       7.251  -2.351  -3.303  1.00  0.00    -0.252 OA
BRANCH   2   4
ATOM      4  O   UNL     1       9.516  -2.471  -3.301  1.00  0.00    -0.481 OA
ATOM      5  H   UNL     1      10.348  -2.417  -2.721  1.00  0.00     0.296 HD
ENDBRANCH   2   4
ENDBRANCH   1   2
BRANCH   1   6
ATOM      6  C   UNL     1       7.002   0.048  -2.133  1.00  0.00     0.047 C 
BRANCH   6   7
ATOM      7  C   UNL     1       6.473   0.194  -0.764  1.00  0.00    -0.047 A 
ATOM      8  C   UNL     1       5.803   1.301  -0.309  1.00  0.00     0.004 A 
ATOM      9  C   UNL     1       6.668  -0.850   0.110  1.00  0.00     0.004 A 
ATOM     10  C   UNL     1       5.342   1.353   0.992  1.00  0.00     0.000 A 
ATOM     11  C   UNL     1       6.221  -0.817   1.398  1.00  0.00     0.000 A 
ATOM     12  C   UNL     1       5.547   0.295   1.855  1.00  0.00     0.000 A 
ENDBRANCH   6   7
ENDBRANCH   1   6
TORSDOF 4
ENDMDL
MODEL 3
REMARK VINA RESULT:      -7.1      0.806      1.002
REMARK SMILES O=C(O)CCc1ccccc1
REMARK SMILES IDX 4 1 2 2 1 3 3 4 5 6 6 7 7 8 11 9 8 10 10 11 9 12
REMARK H PARENT 3 5
REMARK Flexibility Score: inf
ROOT
ATOM      1  C   UNL     1       7.279  -1.280  -2.410  1.00  0.00     0.127 C 
ENDROOT
BRANCH   1   2
ATOM      2  C   UNL     1       8.746  -1.416  -2.574  1.00  0.00     0.303 C 
ATOM      3  O   UNL     1       9.519  -0.563  -2.110  1.00  0.00    -0.252 OA
BRANCH   2   4
ATOM      4  O   UNL     1       9.258  -2.504  -3.254  1.00  0.00    -0.481 OA
ATOM      5  H   UNL     1       8.806  -3.414  -3.243  1.00  0.00     0.296 HD
ENDBRANCH   2   4
ENDBRANCH   1   2
BRANCH   1   6
ATOM      6  C   UNL     1       6.924   0.113  -1.954  1.00  0.00     0.047 C 
BRANCH   6   7
ATOM      7  C   UNL     1       6.371   0.144  -0.586  1.00  0.00    -0.047 A 
ATOM      8  C   UNL     1       6.509  -0.871   0.326  1.00  0.00     0.004 A 
ATOM      9  C   UNL     1       5.673   1.265  -0.206  1.00  0.00     0.004 A 
ATOM     10  C   UNL     1       5.957  -0.758   1.587  1.00  0.00     0.000 A 
ATOM     11  C   UNL     1       5.120   1.397   1.034  1.00  0.00     0.000 A 
ATOM     12  C   UNL     1       5.259   0.377   1.951  1.00  0.00     0.000 A 
ENDBRANCH   6   7
ENDBRANCH   1   6
TORSDOF 4
ENDMDL
MODEL 4
REMARK VINA RESULT:      -6.8      3.366      5.054
REMARK SMILES O=C(O)CCc1ccccc1
REMARK SMILES IDX 4 1 2 2 1 3 3 4 5 6 6 7 7 8 11 9 8 10 10 11 9 12
REMARK H PARENT 3 5
REMARK Flexibility Score: inf
ROOT
ATOM      1  C   UNL     1       4.991   1.796   0.725  1.00  0.00     0.127 C 
ENDROOT
BRANCH   1   2
ATOM      2  C   UNL     1       4.492   1.097   1.933  1.00  0.00     0.303 C 
ATOM      3  O   UNL     1       5.163   0.205   2.474  1.00  0.00    -0.252 OA
BRANCH   2   4
ATOM      4  O   UNL     1       3.263   1.443   2.462  1.00  0.00    -0.481 OA
ATOM      5  H   UNL     1       2.387   1.139   2.046  1.00  0.00     0.296 HD
ENDBRANCH   2   4
ENDBRANCH   1   2
BRANCH   1   6
ATOM      6  C   UNL     1       6.499   1.842   0.725  1.00  0.00     0.047 C 
BRANCH   6   7
ATOM      7  C   UNL     1       7.097   1.037  -0.357  1.00  0.00    -0.047 A 
ATOM      8  C   UNL     1       6.406   0.123  -1.111  1.00  0.00     0.004 A 
ATOM      9  C   UNL     1       8.433   1.217  -0.622  1.00  0.00     0.004 A 
ATOM     10  C   UNL     1       7.047  -0.589  -2.107  1.00  0.00     0.000 A 
ATOM     11  C   UNL     1       9.085   0.523  -1.599  1.00  0.00     0.000 A 
ATOM     12  C   UNL     1       8.390  -0.394  -2.358  1.00  0.00     0.000 A 
ENDBRANCH   6   7
ENDBRANCH   1   6
TORSDOF 4
ENDMDL
MODEL 5
REMARK VINA RESULT:      -6.7      1.925      2.647
REMARK SMILES O=C(O)CCc1ccccc1
REMARK SMILES IDX 4 1 2 2 1 3 3 4 5 6 6 7 7 8 11 9 8 10 10 11 9 12
REMARK H PARENT 3 5
REMARK Flexibility Score: inf
ROOT
ATOM      1  C   UNL     1       8.271   0.256  -2.183  1.00  0.00     0.127 C 
ENDROOT
BRANCH   1   2
ATOM      2  C   UNL     1       9.394   0.383  -1.224  1.00  0.00     0.303 C 
ATOM      3  O   UNL     1       9.482  -0.375  -0.245  1.00  0.00    -0.252 OA
BRANCH   2   4
ATOM      4  O   UNL     1      10.353   1.357  -1.421  1.00  0.00    -0.481 OA
ATOM      5  H   UNL     1      10.945   1.377  -2.247  1.00  0.00     0.296 HD
ENDBRANCH   2   4
ENDBRANCH   1   2
BRANCH   1   6
ATOM      6  C   UNL     1       7.126  -0.503  -1.561  1.00  0.00     0.047 C 
BRANCH   6   7
ATOM      7  C   UNL     1       6.334   0.320  -0.627  1.00  0.00    -0.047 A 
ATOM      8  C   UNL     1       5.786   1.536  -0.944  1.00  0.00     0.004 A 
ATOM      9  C   UNL     1       6.136  -0.168   0.643  1.00  0.00     0.004 A 
ATOM     10  C   UNL     1       5.057   2.241  -0.005  1.00  0.00     0.000 A 
ATOM     11  C   UNL     1       5.421   0.512   1.584  1.00  0.00     0.000 A 
ATOM     12  C   UNL     1       4.870   1.734   1.265  1.00  0.00     0.000 A 
ENDBRANCH   6   7
ENDBRANCH   1   6
TORSDOF 4
ENDMDL
