@<TRIPOS>MOLECULE
/home/cewinharhar/GITHUB/reincatalyze/data/processed/docking_pred/2023-Apr-25-1630_maxeplen5_maxtrainstep200_exh32_gamma099_lrac3e-4_lrcr1e-3/1fd5ec6d4a6889d2560636754963a08404c0587d_ligand_2.pdbqt
 12 12 0 0 0
SMALL
GASTEIGER

@<TRIPOS>ATOM
      1  C          4.9910    1.7960    0.7250 C.3     1  UNL1        0.1270
      2  C          4.4920    1.0970    1.9330 C.2     1  UNL1        0.3030
      3  O          5.1630    0.2050    2.4740 O.2     1  UNL1       -0.2520
      4  O          3.2630    1.4430    2.4620 O.3     1  UNL1       -0.4810
      5  H          2.3870    1.1390    2.0460 H       1  UNL1        0.2960
      6  C          6.4990    1.8420    0.7250 C.3     1  UNL1        0.0470
      7  C          7.0970    1.0370   -0.3570 C.2     1  UNL1       -0.0470
      8  C          6.4060    0.1230   -1.1110 C.2     1  UNL1        0.0040
      9  C          8.4330    1.2170   -0.6220 C.2     1  UNL1        0.0040
     10  C          7.0470   -0.5890   -2.1070 C.2     1  UNL1        0.0000
     11  C          9.0850    0.5230   -1.5990 C.2     1  UNL1        0.0000
     12  C          8.3900   -0.3940   -2.3580 C.2     1  UNL1        0.0000
@<TRIPOS>BOND
     1    12    10    2
     2    12    11    1
     3    10     8    1
     4    11     9    2
     5     8     7    2
     6     9     7    1
     7     7     6    1
     8     1     6    1
     9     1     2    1
    10     2     4    1
    11     2     3    2
    12     5     4    1
