@<TRIPOS>MOLECULE
/home/cewinharhar/GITHUB/reincatalyze/data/processed/docking_pred/2023-Apr-25-1630_maxeplen5_maxtrainstep200_exh32_gamma099_lrac3e-4_lrcr1e-3/1fd5ec6d4a6889d2560636754963a08404c0587d_ligand_2.pdbqt
 12 12 0 0 0
SMALL
GASTEIGER

@<TRIPOS>ATOM
      1  C          7.2790   -1.2800   -2.4100 C.3     1  UNL1        0.1270
      2  C          8.7460   -1.4160   -2.5740 C.2     1  UNL1        0.3030
      3  O          9.5190   -0.5630   -2.1100 O.2     1  UNL1       -0.2520
      4  O          9.2580   -2.5040   -3.2540 O.3     1  UNL1       -0.4810
      5  H          8.8060   -3.4140   -3.2430 H       1  UNL1        0.2960
      6  C          6.9240    0.1130   -1.9540 C.3     1  UNL1        0.0470
      7  C          6.3710    0.1440   -0.5860 C.2     1  UNL1       -0.0470
      8  C          6.5090   -0.8710    0.3260 C.2     1  UNL1        0.0040
      9  C          5.6730    1.2650   -0.2060 C.2     1  UNL1        0.0040
     10  C          5.9570   -0.7580    1.5870 C.2     1  UNL1        0.0000
     11  C          5.1200    1.3970    1.0340 C.2     1  UNL1        0.0000
     12  C          5.2590    0.3770    1.9510 C.2     1  UNL1        0.0000
@<TRIPOS>BOND
     1     4     5    1
     2     4     2    1
     3     2     1    1
     4     2     3    2
     5     1     6    1
     6     6     7    1
     7     7     9    2
     8     7     8    1
     9     9    11    1
    10     8    10    2
    11    11    12    2
    12    10    12    1
