@<TRIPOS>MOLECULE
/home/cewinharhar/GITHUB/reincatalyze/data/processed/docking_pred/2023-Apr-25-1630_maxeplen5_maxtrainstep200_exh32_gamma099_lrac3e-4_lrcr1e-3/2037f81c995398ea407fbfc0a5ecaefc5001139a_ligand_2.pdbqt
 12 12 0 0 0
SMALL
GASTEIGER

@<TRIPOS>ATOM
      1  C          5.6420    2.9500   -0.0710 C.3     1  UNL1        0.1270
      2  C          6.3520    3.9220    0.7940 C.2     1  UNL1        0.3030
      3  O          7.1080    4.7750    0.3040 O.2     1  UNL1       -0.2520
      4  O          6.1700    3.8760    2.1630 O.3     1  UNL1       -0.4810
      5  H          6.9230    4.0690    2.8170 H       1  UNL1        0.2960
      6  C          4.9580    1.8970    0.7650 C.3     1  UNL1        0.0470
      7  C          5.7220    0.6370    0.8360 C.2     1  UNL1       -0.0470
      8  C          6.3870    0.0760   -0.2240 C.2     1  UNL1        0.0040
      9  C          5.7660   -0.0140    2.0460 C.2     1  UNL1        0.0040
     10  C          7.0780   -1.1100   -0.0670 C.2     1  UNL1        0.0000
     11  C          6.4420   -1.1860    2.2210 C.2     1  UNL1        0.0000
     12  C          7.1110   -1.7490    1.1560 C.2     1  UNL1        0.0000
@<TRIPOS>BOND
     1     8    10    1
     2     8     7    2
     3     1     6    1
     4     1     2    1
     5    10    12    2
     6     3     2    2
     7     6     7    1
     8     2     4    1
     9     7     9    1
    10    12    11    1
    11     9    11    2
    12     4     5    1
