@<TRIPOS>MOLECULE
/home/cewinharhar/GITHUB/reincatalyze/data/processed/docking_pred/2023-Apr-25-1630_maxeplen5_maxtrainstep200_exh32_gamma099_lrac3e-4_lrcr1e-3/2037f81c995398ea407fbfc0a5ecaefc5001139a_ligand_2.pdbqt
 12 12 0 0 0
SMALL
GASTEIGER

@<TRIPOS>ATOM
      1  C          8.2650   -0.9070   -1.8830 C.3     1  UNL1        0.1270
      2  C          8.4250   -2.0000   -2.8710 C.2     1  UNL1        0.3030
      3  O          9.5460   -2.4670   -3.1250 O.2     1  UNL1       -0.2520
      4  O          7.3130   -2.5040   -3.5180 O.3     1  UNL1       -0.4810
      5  H          7.2090   -2.4670   -4.5280 H       1  UNL1        0.2960
      6  C          7.3800   -1.3490   -0.7430 C.3     1  UNL1        0.0470
      7  C          6.5500   -0.2540   -0.2050 C.2     1  UNL1       -0.0470
      8  C          6.1770    0.8550   -0.9200 C.2     1  UNL1        0.0040
      9  C          6.1270   -0.3570    1.0990 C.2     1  UNL1        0.0040
     10  C          5.3980    1.8340   -0.3350 C.2     1  UNL1        0.0000
     11  C          5.3580    0.5990    1.6950 C.2     1  UNL1        0.0000
     12  C          4.9830    1.7130    0.9760 C.2     1  UNL1        0.0000
@<TRIPOS>BOND
     1     5     4    1
     2     4     2    1
     3     3     2    2
     4     2     1    1
     5     1     6    1
     6     8    10    1
     7     8     7    2
     8     6     7    1
     9    10    12    2
    10     7     9    1
    11    12    11    1
    12     9    11    2
