MODEL 1
REMARK VINA RESULT:      -7.3      0.000      0.000
REMARK SMILES O=C(O)CCc1ccccc1
REMARK SMILES IDX 4 1 2 2 1 3 3 4 5 6 6 7 7 8 11 9 8 10 10 11 9 12
REMARK H PARENT 3 5
REMARK Flexibility Score: inf
ROOT
ATOM      1  C   UNL     1       8.412  -0.653  -2.124  1.00  0.00     0.127 C 
ENDROOT
BRANCH   1   2
ATOM      2  C   UNL     1       8.470  -1.913  -2.901  1.00  0.00     0.303 C 
ATOM      3  O   UNL     1       9.552  -2.488  -3.099  1.00  0.00    -0.252 OA
BRANCH   2   4
ATOM      4  O   UNL     1       7.306  -2.455  -3.410  1.00  0.00    -0.481 OA
ATOM      5  H   UNL     1       6.422  -2.411  -2.911  1.00  0.00     0.296 HD
ENDBRANCH   2   4
ENDBRANCH   1   2
BRANCH   1   6
ATOM      6  C   UNL     1       7.014  -0.086  -2.137  1.00  0.00     0.047 C 
BRANCH   6   7
ATOM      7  C   UNL     1       6.458   0.100  -0.783  1.00  0.00    -0.047 A 
ATOM      8  C   UNL     1       5.815   1.235  -0.361  1.00  0.00     0.004 A 
ATOM      9  C   UNL     1       6.599  -0.936   0.111  1.00  0.00     0.004 A 
ATOM     10  C   UNL     1       5.326   1.323   0.928  1.00  0.00     0.000 A 
ATOM     11  C   UNL     1       6.124  -0.868   1.387  1.00  0.00     0.000 A 
ATOM     12  C   UNL     1       5.476   0.273   1.811  1.00  0.00     0.000 A 
ENDBRANCH   6   7
ENDBRANCH   1   6
TORSDOF 4
ENDMDL
MODEL 2
REMARK VINA RESULT:      -7.3      0.079      1.428
REMARK SMILES O=C(O)CCc1ccccc1
REMARK SMILES IDX 4 1 2 2 1 3 3 4 5 6 6 7 7 8 11 9 8 10 10 11 9 12
REMARK H PARENT 3 5
REMARK Flexibility Score: inf
ROOT
ATOM      1  C   UNL     1       8.435  -0.614  -2.169  1.00  0.00     0.127 C 
ENDROOT
BRANCH   1   2
ATOM      2  C   UNL     1       8.487  -1.897  -2.909  1.00  0.00     0.303 C 
ATOM      3  O   UNL     1       9.563  -2.491  -3.077  1.00  0.00    -0.252 OA
BRANCH   2   4
ATOM      4  O   UNL     1       7.322  -2.439  -3.417  1.00  0.00    -0.481 OA
ATOM      5  H   UNL     1       7.325  -3.143  -4.151  1.00  0.00     0.296 HD
ENDBRANCH   2   4
ENDBRANCH   1   2
BRANCH   1   6
ATOM      6  C   UNL     1       7.021  -0.095  -2.107  1.00  0.00     0.047 C 
BRANCH   6   7
ATOM      7  C   UNL     1       6.495  -0.029  -0.730  1.00  0.00    -0.047 A 
ATOM      8  C   UNL     1       6.601  -1.043   0.186  1.00  0.00     0.004 A 
ATOM      9  C   UNL     1       5.856   1.127  -0.347  1.00  0.00     0.004 A 
ATOM     10  C   UNL     1       6.077  -0.895   1.456  1.00  0.00     0.000 A 
ATOM     11  C   UNL     1       5.331   1.292   0.901  1.00  0.00     0.000 A 
ATOM     12  C   UNL     1       5.439   0.273   1.823  1.00  0.00     0.000 A 
ENDBRANCH   6   7
ENDBRANCH   1   6
TORSDOF 4
ENDMDL
MODEL 3
REMARK VINA RESULT:      -7.2      0.660      1.134
REMARK SMILES O=C(O)CCc1ccccc1
REMARK SMILES IDX 4 1 2 2 1 3 3 4 5 6 6 7 7 8 11 9 8 10 10 11 9 12
REMARK H PARENT 3 5
REMARK Flexibility Score: inf
ROOT
ATOM      1  C   UNL     1       8.265  -0.907  -1.883  1.00  0.00     0.127 C 
ENDROOT
BRANCH   1   2
ATOM      2  C   UNL     1       8.425  -2.000  -2.871  1.00  0.00     0.303 C 
ATOM      3  O   UNL     1       9.546  -2.467  -3.125  1.00  0.00    -0.252 OA
BRANCH   2   4
ATOM      4  O   UNL     1       7.313  -2.504  -3.518  1.00  0.00    -0.481 OA
ATOM      5  H   UNL     1       7.209  -2.467  -4.528  1.00  0.00     0.296 HD
ENDBRANCH   2   4
ENDBRANCH   1   2
BRANCH   1   6
ATOM      6  C   UNL     1       7.380  -1.349  -0.743  1.00  0.00     0.047 C 
BRANCH   6   7
ATOM      7  C   UNL     1       6.550  -0.254  -0.205  1.00  0.00    -0.047 A 
ATOM      8  C   UNL     1       6.177   0.855  -0.920  1.00  0.00     0.004 A 
ATOM      9  C   UNL     1       6.127  -0.357   1.099  1.00  0.00     0.004 A 
ATOM     10  C   UNL     1       5.398   1.834  -0.335  1.00  0.00     0.000 A 
ATOM     11  C   UNL     1       5.358   0.599   1.695  1.00  0.00     0.000 A 
ATOM     12  C   UNL     1       4.983   1.713   0.976  1.00  0.00     0.000 A 
ENDBRANCH   6   7
ENDBRANCH   1   6
TORSDOF 4
ENDMDL
MODEL 4
REMARK VINA RESULT:      -6.8      3.376      5.082
REMARK SMILES O=C(O)CCc1ccccc1
REMARK SMILES IDX 4 1 2 2 1 3 3 4 5 6 6 7 7 8 11 9 8 10 10 11 9 12
REMARK H PARENT 3 5
REMARK Flexibility Score: inf
ROOT
ATOM      1  C   UNL     1       4.977   1.774   0.705  1.00  0.00     0.127 C 
ENDROOT
BRANCH   1   2
ATOM      2  C   UNL     1       4.479   1.093   1.923  1.00  0.00     0.303 C 
ATOM      3  O   UNL     1       5.144   0.198   2.468  1.00  0.00    -0.252 OA
BRANCH   2   4
ATOM      4  O   UNL     1       3.258   1.458   2.458  1.00  0.00    -0.481 OA
ATOM      5  H   UNL     1       3.026   1.305   3.435  1.00  0.00     0.296 HD
ENDBRANCH   2   4
ENDBRANCH   1   2
BRANCH   1   6
ATOM      6  C   UNL     1       6.485   1.834   0.711  1.00  0.00     0.047 C 
BRANCH   6   7
ATOM      7  C   UNL     1       7.094   1.030  -0.366  1.00  0.00    -0.047 A 
ATOM      8  C   UNL     1       6.416   0.102  -1.114  1.00  0.00     0.004 A 
ATOM      9  C   UNL     1       8.428   1.228  -0.632  1.00  0.00     0.004 A 
ATOM     10  C   UNL     1       7.067  -0.608  -2.104  1.00  0.00     0.000 A 
ATOM     11  C   UNL     1       9.089   0.537  -1.605  1.00  0.00     0.000 A 
ATOM     12  C   UNL     1       8.408  -0.396  -2.357  1.00  0.00     0.000 A 
ENDBRANCH   6   7
ENDBRANCH   1   6
TORSDOF 4
ENDMDL
MODEL 5
REMARK VINA RESULT:      -6.7      3.828      4.907
REMARK SMILES O=C(O)CCc1ccccc1
REMARK SMILES IDX 4 1 2 2 1 3 3 4 5 6 6 7 7 8 11 9 8 10 10 11 9 12
REMARK H PARENT 3 5
REMARK Flexibility Score: inf
ROOT
ATOM      1  C   UNL     1       5.642   2.950  -0.071  1.00  0.00     0.127 C 
ENDROOT
BRANCH   1   2
ATOM      2  C   UNL     1       6.352   3.922   0.794  1.00  0.00     0.303 C 
ATOM      3  O   UNL     1       7.108   4.775   0.304  1.00  0.00    -0.252 OA
BRANCH   2   4
ATOM      4  O   UNL     1       6.170   3.876   2.163  1.00  0.00    -0.481 OA
ATOM      5  H   UNL     1       6.923   4.069   2.817  1.00  0.00     0.296 HD
ENDBRANCH   2   4
ENDBRANCH   1   2
BRANCH   1   6
ATOM      6  C   UNL     1       4.958   1.897   0.765  1.00  0.00     0.047 C 
BRANCH   6   7
ATOM      7  C   UNL     1       5.722   0.637   0.836  1.00  0.00    -0.047 A 
ATOM      8  C   UNL     1       6.387   0.076  -0.224  1.00  0.00     0.004 A 
ATOM      9  C   UNL     1       5.766  -0.014   2.046  1.00  0.00     0.004 A 
ATOM     10  C   UNL     1       7.078  -1.110  -0.067  1.00  0.00     0.000 A 
ATOM     11  C   UNL     1       6.442  -1.186   2.221  1.00  0.00     0.000 A 
ATOM     12  C   UNL     1       7.111  -1.749   1.156  1.00  0.00     0.000 A 
ENDBRANCH   6   7
ENDBRANCH   1   6
TORSDOF 4
ENDMDL
