@<TRIPOS>MOLECULE
/home/cewinharhar/GITHUB/reincatalyze/data/processed/docking_pred/2023-Apr-25-1630_maxeplen5_maxtrainstep200_exh32_gamma099_lrac3e-4_lrcr1e-3/2037f81c995398ea407fbfc0a5ecaefc5001139a_ligand_2.pdbqt
 12 12 0 0 0
SMALL
GASTEIGER

@<TRIPOS>ATOM
      1  C          8.4120   -0.6530   -2.1240 C.3     1  UNL1        0.1270
      2  C          8.4700   -1.9130   -2.9010 C.2     1  UNL1        0.3030
      3  O          9.5520   -2.4880   -3.0990 O.2     1  UNL1       -0.2520
      4  O          7.3060   -2.4550   -3.4100 O.3     1  UNL1       -0.4810
      5  H          6.4220   -2.4110   -2.9110 H       1  UNL1        0.2960
      6  C          7.0140   -0.0860   -2.1370 C.3     1  UNL1        0.0470
      7  C          6.4580    0.1000   -0.7830 C.2     1  UNL1       -0.0470
      8  C          5.8150    1.2350   -0.3610 C.2     1  UNL1        0.0040
      9  C          6.5990   -0.9360    0.1110 C.2     1  UNL1        0.0040
     10  C          5.3260    1.3230    0.9280 C.2     1  UNL1        0.0000
     11  C          6.1240   -0.8680    1.3870 C.2     1  UNL1        0.0000
     12  C          5.4760    0.2730    1.8110 C.2     1  UNL1        0.0000
@<TRIPOS>BOND
     1     4     5    1
     2     4     2    1
     3     3     2    2
     4     2     1    1
     5     6     1    1
     6     6     7    1
     7     7     8    2
     8     7     9    1
     9     8    10    1
    10     9    11    2
    11    10    12    2
    12    11    12    1
