@<TRIPOS>MOLECULE
/home/cewinharhar/GITHUB/reincatalyze/data/processed/docking_pred/2023-Apr-25-1630_maxeplen5_maxtrainstep200_exh32_gamma099_lrac3e-4_lrcr1e-3/2037f81c995398ea407fbfc0a5ecaefc5001139a_ligand_2.pdbqt
 12 12 0 0 0
SMALL
GASTEIGER

@<TRIPOS>ATOM
      1  C          8.4350   -0.6140   -2.1690 C.3     1  UNL1        0.1270
      2  C          8.4870   -1.8970   -2.9090 C.2     1  UNL1        0.3030
      3  O          9.5630   -2.4910   -3.0770 O.2     1  UNL1       -0.2520
      4  O          7.3220   -2.4390   -3.4170 O.3     1  UNL1       -0.4810
      5  H          7.3250   -3.1430   -4.1510 H       1  UNL1        0.2960
      6  C          7.0210   -0.0950   -2.1070 C.3     1  UNL1        0.0470
      7  C          6.4950   -0.0290   -0.7300 C.2     1  UNL1       -0.0470
      8  C          6.6010   -1.0430    0.1860 C.2     1  UNL1        0.0040
      9  C          5.8560    1.1270   -0.3470 C.2     1  UNL1        0.0040
     10  C          6.0770   -0.8950    1.4560 C.2     1  UNL1        0.0000
     11  C          5.3310    1.2920    0.9010 C.2     1  UNL1        0.0000
     12  C          5.4390    0.2730    1.8230 C.2     1  UNL1        0.0000
@<TRIPOS>BOND
     1     5     4    1
     2     4     2    1
     3     3     2    2
     4     2     1    1
     5     1     6    1
     6     6     7    1
     7     7     9    2
     8     7     8    1
     9     9    11    1
    10     8    10    2
    11    11    12    2
    12    10    12    1
