@<TRIPOS>MOLECULE
/home/cewinharhar/GITHUB/reincatalyze/data/processed/docking_pred/2023-Apr-25-1630_maxeplen5_maxtrainstep200_exh32_gamma099_lrac3e-4_lrcr1e-3/21195065f8807259401ec3420f3b6dd683f2acc0_ligand_2.pdbqt
 12 12 0 0 0
SMALL
GASTEIGER

@<TRIPOS>ATOM
      1  C          8.4080   -0.5400   -2.2790 C.3     1  UNL1        0.1270
      2  C          8.4680   -1.8720   -2.9250 C.2     1  UNL1        0.3030
      3  O          9.5450   -2.4800   -3.0290 O.2     1  UNL1       -0.2520
      4  O          7.3110   -2.4440   -3.4180 O.3     1  UNL1       -0.4810
      5  H          7.2390   -2.7880   -4.3720 H       1  UNL1        0.2960
      6  C          6.9820   -0.0540   -2.1990 C.3     1  UNL1        0.0470
      7  C          6.4840    0.0330   -0.8130 C.2     1  UNL1       -0.0470
      8  C          6.5990   -0.9710    0.1140 C.2     1  UNL1        0.0040
      9  C          5.8620    1.1990   -0.4310 C.2     1  UNL1        0.0040
     10  C          6.1020   -0.8030    1.3920 C.2     1  UNL1        0.0000
     11  C          5.3640    1.3840    0.8240 C.2     1  UNL1        0.0000
     12  C          5.4810    0.3750    1.7570 C.2     1  UNL1        0.0000
@<TRIPOS>BOND
     1     5     4    1
     2     4     2    1
     3     3     2    2
     4     2     1    1
     5     1     6    1
     6     6     7    1
     7     7     9    2
     8     7     8    1
     9     9    11    1
    10     8    10    2
    11    11    12    2
    12    10    12    1
