@<TRIPOS>MOLECULE
/home/cewinharhar/GITHUB/reincatalyze/data/processed/docking_pred/2023-Apr-25-1630_maxeplen5_maxtrainstep200_exh32_gamma099_lrac3e-4_lrcr1e-3/21195065f8807259401ec3420f3b6dd683f2acc0_ligand_2.pdbqt
 12 12 0 0 0
SMALL
GASTEIGER

@<TRIPOS>ATOM
      1  C          5.0060    1.7750    0.6960 C.3     1  UNL1        0.1270
      2  C          4.5000    1.1070    1.9190 C.2     1  UNL1        0.3030
      3  O          5.1660    0.2250    2.4830 O.2     1  UNL1       -0.2520
      4  O          3.2710    1.4700    2.4360 O.3     1  UNL1       -0.4810
      5  H          2.7620    2.2850    2.1050 H       1  UNL1        0.2960
      6  C          6.5090    1.8920    0.7400 C.3     1  UNL1        0.0470
      7  C          7.1750    1.1310   -0.3350 C.2     1  UNL1       -0.0470
      8  C          8.5100    1.2260   -0.6350 C.2     1  UNL1        0.0040
      9  C          6.4020    0.2740   -1.0810 C.2     1  UNL1        0.0040
     10  C          9.0500    0.4750   -1.6610 C.2     1  UNL1        0.0000
     11  C          6.9160   -0.4750   -2.0990 C.2     1  UNL1        0.0000
     12  C          8.2570   -0.3800   -2.4000 C.2     1  UNL1        0.0000
@<TRIPOS>BOND
     1    12    11    2
     2    12    10    1
     3    11     9    1
     4    10     8    2
     5     9     7    2
     6     8     7    1
     7     7     6    1
     8     1     6    1
     9     1     2    1
    10     2     4    1
    11     2     3    2
    12     5     4    1
