MODEL 1
REMARK VINA RESULT:      -7.3      0.000      0.000
REMARK SMILES O=C(O)CCc1ccccc1
REMARK SMILES IDX 4 1 2 2 1 3 3 4 5 6 6 7 7 8 11 9 8 10 10 11 9 12
REMARK H PARENT 3 5
REMARK Flexibility Score: inf
ROOT
ATOM      1  C   UNL     1       8.427  -0.641  -2.115  1.00  0.00     0.127 C 
ENDROOT
BRANCH   1   2
ATOM      2  C   UNL     1       8.483  -1.904  -2.889  1.00  0.00     0.303 C 
ATOM      3  O   UNL     1       9.563  -2.483  -3.081  1.00  0.00    -0.252 OA
BRANCH   2   4
ATOM      4  O   UNL     1       7.319  -2.441  -3.403  1.00  0.00    -0.481 OA
ATOM      5  H   UNL     1       6.593  -1.866  -3.821  1.00  0.00     0.296 HD
ENDBRANCH   2   4
ENDBRANCH   1   2
BRANCH   1   6
ATOM      6  C   UNL     1       7.035  -0.061  -2.147  1.00  0.00     0.047 C 
BRANCH   6   7
ATOM      7  C   UNL     1       6.464   0.132  -0.800  1.00  0.00    -0.047 A 
ATOM      8  C   UNL     1       5.798   1.261  -0.398  1.00  0.00     0.004 A 
ATOM      9  C   UNL     1       6.614  -0.890   0.108  1.00  0.00     0.004 A 
ATOM     10  C   UNL     1       5.296   1.357   0.885  1.00  0.00     0.000 A 
ATOM     11  C   UNL     1       6.127  -0.814   1.379  1.00  0.00     0.000 A 
ATOM     12  C   UNL     1       5.457   0.321   1.783  1.00  0.00     0.000 A 
ENDBRANCH   6   7
ENDBRANCH   1   6
TORSDOF 4
ENDMDL
MODEL 2
REMARK VINA RESULT:      -7.3      0.090      1.429
REMARK SMILES O=C(O)CCc1ccccc1
REMARK SMILES IDX 4 1 2 2 1 3 3 4 5 6 6 7 7 8 11 9 8 10 10 11 9 12
REMARK H PARENT 3 5
REMARK Flexibility Score: inf
ROOT
ATOM      1  C   UNL     1       8.408  -0.540  -2.279  1.00  0.00     0.127 C 
ENDROOT
BRANCH   1   2
ATOM      2  C   UNL     1       8.468  -1.872  -2.925  1.00  0.00     0.303 C 
ATOM      3  O   UNL     1       9.545  -2.480  -3.029  1.00  0.00    -0.252 OA
BRANCH   2   4
ATOM      4  O   UNL     1       7.311  -2.444  -3.418  1.00  0.00    -0.481 OA
ATOM      5  H   UNL     1       7.239  -2.788  -4.372  1.00  0.00     0.296 HD
ENDBRANCH   2   4
ENDBRANCH   1   2
BRANCH   1   6
ATOM      6  C   UNL     1       6.982  -0.054  -2.199  1.00  0.00     0.047 C 
BRANCH   6   7
ATOM      7  C   UNL     1       6.484   0.033  -0.813  1.00  0.00    -0.047 A 
ATOM      8  C   UNL     1       6.599  -0.971   0.114  1.00  0.00     0.004 A 
ATOM      9  C   UNL     1       5.862   1.199  -0.431  1.00  0.00     0.004 A 
ATOM     10  C   UNL     1       6.102  -0.803   1.392  1.00  0.00     0.000 A 
ATOM     11  C   UNL     1       5.364   1.384   0.824  1.00  0.00     0.000 A 
ATOM     12  C   UNL     1       5.481   0.375   1.757  1.00  0.00     0.000 A 
ENDBRANCH   6   7
ENDBRANCH   1   6
TORSDOF 4
ENDMDL
MODEL 3
REMARK VINA RESULT:      -7.2      0.669      1.134
REMARK SMILES O=C(O)CCc1ccccc1
REMARK SMILES IDX 4 1 2 2 1 3 3 4 5 6 6 7 7 8 11 9 8 10 10 11 9 12
REMARK H PARENT 3 5
REMARK Flexibility Score: inf
ROOT
ATOM      1  C   UNL     1       8.233  -0.965  -1.831  1.00  0.00     0.127 C 
ENDROOT
BRANCH   1   2
ATOM      2  C   UNL     1       8.408  -2.021  -2.855  1.00  0.00     0.303 C 
ATOM      3  O   UNL     1       9.538  -2.446  -3.143  1.00  0.00    -0.252 OA
BRANCH   2   4
ATOM      4  O   UNL     1       7.300  -2.539  -3.498  1.00  0.00    -0.481 OA
ATOM      5  H   UNL     1       7.150  -2.427  -4.497  1.00  0.00     0.296 HD
ENDBRANCH   2   4
ENDBRANCH   1   2
BRANCH   1   6
ATOM      6  C   UNL     1       7.217  -1.390  -0.800  1.00  0.00     0.047 C 
BRANCH   6   7
ATOM      7  C   UNL     1       6.456  -0.254  -0.244  1.00  0.00    -0.047 A 
ATOM      8  C   UNL     1       6.139   0.881  -0.947  1.00  0.00     0.004 A 
ATOM      9  C   UNL     1       6.042  -0.343   1.063  1.00  0.00     0.004 A 
ATOM     10  C   UNL     1       5.423   1.898  -0.345  1.00  0.00     0.000 A 
ATOM     11  C   UNL     1       5.334   0.649   1.675  1.00  0.00     0.000 A 
ATOM     12  C   UNL     1       5.015   1.789   0.969  1.00  0.00     0.000 A 
ENDBRANCH   6   7
ENDBRANCH   1   6
TORSDOF 4
ENDMDL
MODEL 4
REMARK VINA RESULT:      -6.8      3.374      5.057
REMARK SMILES O=C(O)CCc1ccccc1
REMARK SMILES IDX 4 1 2 2 1 3 3 4 5 6 6 7 7 8 11 9 8 10 10 11 9 12
REMARK H PARENT 3 5
REMARK Flexibility Score: inf
ROOT
ATOM      1  C   UNL     1       5.006   1.775   0.696  1.00  0.00     0.127 C 
ENDROOT
BRANCH   1   2
ATOM      2  C   UNL     1       4.500   1.107   1.919  1.00  0.00     0.303 C 
ATOM      3  O   UNL     1       5.166   0.225   2.483  1.00  0.00    -0.252 OA
BRANCH   2   4
ATOM      4  O   UNL     1       3.271   1.470   2.436  1.00  0.00    -0.481 OA
ATOM      5  H   UNL     1       2.762   2.285   2.105  1.00  0.00     0.296 HD
ENDBRANCH   2   4
ENDBRANCH   1   2
BRANCH   1   6
ATOM      6  C   UNL     1       6.509   1.892   0.740  1.00  0.00     0.047 C 
BRANCH   6   7
ATOM      7  C   UNL     1       7.175   1.131  -0.335  1.00  0.00    -0.047 A 
ATOM      8  C   UNL     1       8.510   1.226  -0.635  1.00  0.00     0.004 A 
ATOM      9  C   UNL     1       6.402   0.274  -1.081  1.00  0.00     0.004 A 
ATOM     10  C   UNL     1       9.050   0.475  -1.661  1.00  0.00     0.000 A 
ATOM     11  C   UNL     1       6.916  -0.475  -2.099  1.00  0.00     0.000 A 
ATOM     12  C   UNL     1       8.257  -0.380  -2.400  1.00  0.00     0.000 A 
ENDBRANCH   6   7
ENDBRANCH   1   6
TORSDOF 4
ENDMDL
MODEL 5
REMARK VINA RESULT:      -6.8      0.936      1.929
REMARK SMILES O=C(O)CCc1ccccc1
REMARK SMILES IDX 4 1 2 2 1 3 3 4 5 6 6 7 7 8 11 9 8 10 10 11 9 12
REMARK H PARENT 3 5
REMARK Flexibility Score: inf
ROOT
ATOM      1  C   UNL     1       8.336  -0.030  -2.436  1.00  0.00     0.127 C 
ENDROOT
BRANCH   1   2
ATOM      2  C   UNL     1       8.095  -1.460  -2.746  1.00  0.00     0.303 C 
ATOM      3  O   UNL     1       6.972  -1.963  -2.590  1.00  0.00    -0.252 OA
BRANCH   2   4
ATOM      4  O   UNL     1       9.135  -2.241  -3.213  1.00  0.00    -0.481 OA
ATOM      5  H   UNL     1       9.240  -3.217  -2.953  1.00  0.00     0.296 HD
ENDBRANCH   2   4
ENDBRANCH   1   2
BRANCH   1   6
ATOM      6  C   UNL     1       8.766   0.136  -1.000  1.00  0.00     0.047 C 
BRANCH   6   7
ATOM      7  C   UNL     1       7.626   0.226  -0.068  1.00  0.00    -0.047 A 
ATOM      8  C   UNL     1       7.528  -0.480   1.104  1.00  0.00     0.004 A 
ATOM      9  C   UNL     1       6.596   1.074  -0.401  1.00  0.00     0.004 A 
ATOM     10  C   UNL     1       6.422  -0.334   1.917  1.00  0.00     0.000 A 
ATOM     11  C   UNL     1       5.495   1.232   0.388  1.00  0.00     0.000 A 
ATOM     12  C   UNL     1       5.398   0.523   1.566  1.00  0.00     0.000 A 
ENDBRANCH   6   7
ENDBRANCH   1   6
TORSDOF 4
ENDMDL
