@<TRIPOS>MOLECULE
/home/cewinharhar/GITHUB/reincatalyze/data/processed/docking_pred/2023-Apr-25-1630_maxeplen5_maxtrainstep200_exh32_gamma099_lrac3e-4_lrcr1e-3/21195065f8807259401ec3420f3b6dd683f2acc0_ligand_2.pdbqt
 12 12 0 0 0
SMALL
GASTEIGER

@<TRIPOS>ATOM
      1  C          8.3360   -0.0300   -2.4360 C.3     1  UNL1        0.1270
      2  C          8.0950   -1.4600   -2.7460 C.2     1  UNL1        0.3030
      3  O          6.9720   -1.9630   -2.5900 O.2     1  UNL1       -0.2520
      4  O          9.1350   -2.2410   -3.2130 O.3     1  UNL1       -0.4810
      5  H          9.2400   -3.2170   -2.9530 H       1  UNL1        0.2960
      6  C          8.7660    0.1360   -1.0000 C.3     1  UNL1        0.0470
      7  C          7.6260    0.2260   -0.0680 C.2     1  UNL1       -0.0470
      8  C          7.5280   -0.4800    1.1040 C.2     1  UNL1        0.0040
      9  C          6.5960    1.0740   -0.4010 C.2     1  UNL1        0.0040
     10  C          6.4220   -0.3340    1.9170 C.2     1  UNL1        0.0000
     11  C          5.4950    1.2320    0.3880 C.2     1  UNL1        0.0000
     12  C          5.3980    0.5230    1.5660 C.2     1  UNL1        0.0000
@<TRIPOS>BOND
     1     4     5    1
     2     4     2    1
     3     2     3    2
     4     2     1    1
     5     1     6    1
     6     6     7    1
     7     9     7    2
     8     9    11    1
     9     7     8    1
    10    11    12    2
    11     8    10    2
    12    12    10    1
