@<TRIPOS>MOLECULE
/home/cewinharhar/GITHUB/reincatalyze/data/processed/docking_pred/2023-Apr-25-1630_maxeplen5_maxtrainstep200_exh32_gamma099_lrac3e-4_lrcr1e-3/21195065f8807259401ec3420f3b6dd683f2acc0_ligand_2.pdbqt
 12 12 0 0 0
SMALL
GASTEIGER

@<TRIPOS>ATOM
      1  C          8.2330   -0.9650   -1.8310 C.3     1  UNL1        0.1270
      2  C          8.4080   -2.0210   -2.8550 C.2     1  UNL1        0.3030
      3  O          9.5380   -2.4460   -3.1430 O.2     1  UNL1       -0.2520
      4  O          7.3000   -2.5390   -3.4980 O.3     1  UNL1       -0.4810
      5  H          7.1500   -2.4270   -4.4970 H       1  UNL1        0.2960
      6  C          7.2170   -1.3900   -0.8000 C.3     1  UNL1        0.0470
      7  C          6.4560   -0.2540   -0.2440 C.2     1  UNL1       -0.0470
      8  C          6.1390    0.8810   -0.9470 C.2     1  UNL1        0.0040
      9  C          6.0420   -0.3430    1.0630 C.2     1  UNL1        0.0040
     10  C          5.4230    1.8980   -0.3450 C.2     1  UNL1        0.0000
     11  C          5.3340    0.6490    1.6750 C.2     1  UNL1        0.0000
     12  C          5.0150    1.7890    0.9690 C.2     1  UNL1        0.0000
@<TRIPOS>BOND
     1     5     4    1
     2     4     2    1
     3     3     2    2
     4     2     1    1
     5     1     6    1
     6     8    10    1
     7     8     7    2
     8     6     7    1
     9    10    12    2
    10     7     9    1
    11    12    11    1
    12     9    11    2
