@<TRIPOS>MOLECULE
/home/cewinharhar/GITHUB/reincatalyze/data/processed/docking_pred/2023-Apr-25-1630_maxeplen5_maxtrainstep200_exh32_gamma099_lrac3e-4_lrcr1e-3/21195065f8807259401ec3420f3b6dd683f2acc0_ligand_2.pdbqt
 12 12 0 0 0
SMALL
GASTEIGER

@<TRIPOS>ATOM
      1  C          8.4270   -0.6410   -2.1150 C.3     1  UNL1        0.1270
      2  C          8.4830   -1.9040   -2.8890 C.2     1  UNL1        0.3030
      3  O          9.5630   -2.4830   -3.0810 O.2     1  UNL1       -0.2520
      4  O          7.3190   -2.4410   -3.4030 O.3     1  UNL1       -0.4810
      5  H          6.5930   -1.8660   -3.8210 H       1  UNL1        0.2960
      6  C          7.0350   -0.0610   -2.1470 C.3     1  UNL1        0.0470
      7  C          6.4640    0.1320   -0.8000 C.2     1  UNL1       -0.0470
      8  C          5.7980    1.2610   -0.3980 C.2     1  UNL1        0.0040
      9  C          6.6140   -0.8900    0.1080 C.2     1  UNL1        0.0040
     10  C          5.2960    1.3570    0.8850 C.2     1  UNL1        0.0000
     11  C          6.1270   -0.8140    1.3790 C.2     1  UNL1        0.0000
     12  C          5.4570    0.3210    1.7830 C.2     1  UNL1        0.0000
@<TRIPOS>BOND
     1     5     4    1
     2     4     2    1
     3     3     2    2
     4     2     1    1
     5     6     1    1
     6     6     7    1
     7     7     8    2
     8     7     9    1
     9     8    10    1
    10     9    11    2
    11    10    12    2
    12    11    12    1
