@<TRIPOS>MOLECULE
/home/cewinharhar/GITHUB/reincatalyze/data/processed/docking_pred/2023-Apr-25-1630_maxeplen5_maxtrainstep200_exh32_gamma099_lrac3e-4_lrcr1e-3/2368d29bb7bbfa5e31d33bb3936e2ea89938fe66_ligand_2.pdbqt
 12 12 0 0 0
SMALL
GASTEIGER

@<TRIPOS>ATOM
      1  C          8.4140   -0.5760   -2.2600 C.3     1  UNL1        0.1270
      2  C          8.4810   -1.8950   -2.9330 C.2     1  UNL1        0.3030
      3  O          9.5630   -2.4860   -3.0680 O.2     1  UNL1       -0.2520
      4  O          7.3230   -2.4720   -3.4180 O.3     1  UNL1       -0.4810
      5  H          7.3070   -3.4080   -3.8140 H       1  UNL1        0.2960
      6  C          6.9890   -0.0850   -2.1960 C.3     1  UNL1        0.0470
      7  C          6.4840    0.0280   -0.8140 C.2     1  UNL1       -0.0470
      8  C          6.6160   -0.9500    0.1380 C.2     1  UNL1        0.0040
      9  C          5.8390    1.1900   -0.4650 C.2     1  UNL1        0.0040
     10  C          6.1100   -0.7600    1.4100 C.2     1  UNL1        0.0000
     11  C          5.3320    1.3970    0.7840 C.2     1  UNL1        0.0000
     12  C          5.4650    0.4150    1.7420 C.2     1  UNL1        0.0000
@<TRIPOS>BOND
     1     5     4    1
     2     4     2    1
     3     3     2    2
     4     2     1    1
     5     1     6    1
     6     6     7    1
     7     7     9    2
     8     7     8    1
     9     9    11    1
    10     8    10    2
    11    11    12    2
    12    10    12    1
