@<TRIPOS>MOLECULE
/home/cewinharhar/GITHUB/reincatalyze/data/processed/docking_pred/2023-Apr-25-1630_maxeplen5_maxtrainstep200_exh32_gamma099_lrac3e-4_lrcr1e-3/2368d29bb7bbfa5e31d33bb3936e2ea89938fe66_ligand_2.pdbqt
 12 12 0 0 0
SMALL
GASTEIGER

@<TRIPOS>ATOM
      1  C          8.4010   -0.6680   -2.0740 C.3     1  UNL1        0.1270
      2  C          8.3690   -1.9110   -2.8820 C.2     1  UNL1        0.3030
      3  O          7.2900   -2.4110   -3.2350 O.2     1  UNL1       -0.2520
      4  O          9.5560   -2.5180   -3.2460 O.3     1  UNL1       -0.4810
      5  H         10.4610   -2.1660   -2.9470 H       1  UNL1        0.2960
      6  C          7.0580    0.0170   -2.1040 C.3     1  UNL1        0.0470
      7  C          6.4670    0.1770   -0.7610 C.2     1  UNL1       -0.0470
      8  C          5.8040    1.3010   -0.3380 C.2     1  UNL1        0.0040
      9  C          6.5930   -0.8710    0.1190 C.2     1  UNL1        0.0040
     10  C          5.2830    1.3650    0.9390 C.2     1  UNL1        0.0000
     11  C          6.0860   -0.8270    1.3850 C.2     1  UNL1        0.0000
     12  C          5.4190    0.3020    1.8100 C.2     1  UNL1        0.0000
@<TRIPOS>BOND
     1     4     5    1
     2     4     2    1
     3     3     2    2
     4     2     1    1
     5     6     1    1
     6     6     7    1
     7     7     8    2
     8     7     9    1
     9     8    10    1
    10     9    11    2
    11    10    12    2
    12    11    12    1
