@<TRIPOS>MOLECULE
/home/cewinharhar/GITHUB/reincatalyze/data/processed/docking_pred/2023-Apr-25-1630_maxeplen5_maxtrainstep200_exh32_gamma099_lrac3e-4_lrcr1e-3/2368d29bb7bbfa5e31d33bb3936e2ea89938fe66_ligand_2.pdbqt
 12 12 0 0 0
SMALL
GASTEIGER

@<TRIPOS>ATOM
      1  C          8.2890    0.2300   -2.1700 C.3     1  UNL1        0.1270
      2  C          9.4180    0.3510   -1.2190 C.2     1  UNL1        0.3030
      3  O          9.4860   -0.3780   -0.2170 O.2     1  UNL1       -0.2520
      4  O         10.4070    1.2880   -1.4490 O.3     1  UNL1       -0.4810
      5  H         11.3590    1.0250   -1.6920 H       1  UNL1        0.2960
      6  C          7.1570   -0.5520   -1.5520 C.3     1  UNL1        0.0470
      7  C          6.3680    0.2440   -0.5930 C.2     1  UNL1       -0.0470
      8  C          6.1320   -0.1260    0.7070 C.2     1  UNL1        0.0040
      9  C          5.8360    1.4310   -1.0350 C.2     1  UNL1        0.0040
     10  C          5.3800    0.6820    1.5380 C.2     1  UNL1        0.0000
     11  C          5.0900    2.2420   -0.2320 C.2     1  UNL1        0.0000
     12  C          4.8540    1.8720    1.0750 C.2     1  UNL1        0.0000
@<TRIPOS>BOND
     1     1     6    1
     2     1     2    1
     3     5     4    1
     4     6     7    1
     5     4     2    1
     6     2     3    2
     7     9     7    2
     8     9    11    1
     9     7     8    1
    10    11    12    2
    11     8    10    2
    12    12    10    1
