@<TRIPOS>MOLECULE
/home/cewinharhar/GITHUB/reincatalyze/data/processed/docking_pred/2023-Apr-25-1630_maxeplen5_maxtrainstep200_exh32_gamma099_lrac3e-4_lrcr1e-3/2368d29bb7bbfa5e31d33bb3936e2ea89938fe66_ligand_2.pdbqt
 12 12 0 0 0
SMALL
GASTEIGER

@<TRIPOS>ATOM
      1  C          5.0390    1.7030    0.7200 C.3     1  UNL1        0.1270
      2  C          4.5950    1.0040    1.9490 C.2     1  UNL1        0.3030
      3  O          5.3170    0.1510    2.4900 O.2     1  UNL1       -0.2520
      4  O          3.3640    1.3040    2.4990 O.3     1  UNL1       -0.4810
      5  H          3.2670    1.7100    3.4260 H       1  UNL1        0.2960
      6  C          6.5370    1.8760    0.7200 C.3     1  UNL1        0.0470
      7  C          7.2010    1.1080   -0.3510 C.2     1  UNL1       -0.0470
      8  C          8.5410    1.1790   -0.6350 C.2     1  UNL1        0.0040
      9  C          6.4210    0.2710   -1.1130 C.2     1  UNL1        0.0040
     10  C          9.0790    0.4240   -1.6590 C.2     1  UNL1        0.0000
     11  C          6.9330   -0.4820   -2.1280 C.2     1  UNL1        0.0000
     12  C          8.2800   -0.4120   -2.4130 C.2     1  UNL1        0.0000
@<TRIPOS>BOND
     1    12    11    2
     2    12    10    1
     3    11     9    1
     4    10     8    2
     5     9     7    2
     6     8     7    1
     7     7     6    1
     8     1     6    1
     9     1     2    1
    10     2     3    2
    11     2     4    1
    12     4     5    1
