@<TRIPOS>MOLECULE
/home/cewinharhar/GITHUB/reincatalyze/data/processed/docking_pred/2023-Apr-25-1630_maxeplen5_maxtrainstep200_exh32_gamma099_lrac3e-4_lrcr1e-3/2368d29bb7bbfa5e31d33bb3936e2ea89938fe66_ligand_2.pdbqt
 12 12 0 0 0
SMALL
GASTEIGER

@<TRIPOS>ATOM
      1  C          8.1670   -1.6690    1.1650 C.3     1  UNL1        0.1270
      2  C          8.5180   -2.8640    0.3620 C.2     1  UNL1        0.3030
      3  O          9.2020   -3.7780    0.8490 O.2     1  UNL1       -0.2520
      4  O          8.0800   -2.9620   -0.9450 O.3     1  UNL1       -0.4810
      5  H          7.4250   -3.6780   -1.2460 H       1  UNL1        0.2960
      6  C          6.6710   -1.5590    1.3250 C.3     1  UNL1        0.0470
      7  C          6.1380   -0.2700    0.8430 C.2     1  UNL1       -0.0470
      8  C          5.3950    0.5920    1.6070 C.2     1  UNL1        0.0040
      9  C          6.4050    0.0830   -0.4590 C.2     1  UNL1        0.0040
     10  C          4.9340    1.7800    1.0730 C.2     1  UNL1        0.0000
     11  C          5.9590    1.2510   -1.0050 C.2     1  UNL1        0.0000
     12  C          5.2120    2.1180   -0.2360 C.2     1  UNL1        0.0000
@<TRIPOS>BOND
     1     5     4    1
     2    11     9    1
     3    11    12    2
     4     4     2    1
     5     9     7    2
     6    12    10    1
     7     2     3    2
     8     2     1    1
     9     7     6    1
    10     7     8    1
    11    10     8    2
    12     1     6    1
