MODEL 1
REMARK VINA RESULT:      -7.3      0.000      0.000
REMARK SMILES O=C(O)CCc1ccccc1
REMARK SMILES IDX 4 1 2 2 1 3 3 4 5 6 6 7 7 8 11 9 8 10 10 11 9 12
REMARK H PARENT 3 5
REMARK Flexibility Score: inf
ROOT
ATOM      1  C   UNL     1       8.414  -0.576  -2.260  1.00  0.00     0.127 C 
ENDROOT
BRANCH   1   2
ATOM      2  C   UNL     1       8.481  -1.895  -2.933  1.00  0.00     0.303 C 
ATOM      3  O   UNL     1       9.563  -2.486  -3.068  1.00  0.00    -0.252 OA
BRANCH   2   4
ATOM      4  O   UNL     1       7.323  -2.472  -3.418  1.00  0.00    -0.481 OA
ATOM      5  H   UNL     1       7.307  -3.408  -3.814  1.00  0.00     0.296 HD
ENDBRANCH   2   4
ENDBRANCH   1   2
BRANCH   1   6
ATOM      6  C   UNL     1       6.989  -0.085  -2.196  1.00  0.00     0.047 C 
BRANCH   6   7
ATOM      7  C   UNL     1       6.484   0.028  -0.814  1.00  0.00    -0.047 A 
ATOM      8  C   UNL     1       6.616  -0.950   0.138  1.00  0.00     0.004 A 
ATOM      9  C   UNL     1       5.839   1.190  -0.465  1.00  0.00     0.004 A 
ATOM     10  C   UNL     1       6.110  -0.760   1.410  1.00  0.00     0.000 A 
ATOM     11  C   UNL     1       5.332   1.397   0.784  1.00  0.00     0.000 A 
ATOM     12  C   UNL     1       5.465   0.415   1.742  1.00  0.00     0.000 A 
ENDBRANCH   6   7
ENDBRANCH   1   6
TORSDOF 4
ENDMDL
MODEL 2
REMARK VINA RESULT:      -7.3      0.156      1.725
REMARK SMILES O=C(O)CCc1ccccc1
REMARK SMILES IDX 4 1 2 2 1 3 3 4 5 6 6 7 7 8 11 9 8 10 10 11 9 12
REMARK H PARENT 3 5
REMARK Flexibility Score: inf
ROOT
ATOM      1  C   UNL     1       8.401  -0.668  -2.074  1.00  0.00     0.127 C 
ENDROOT
BRANCH   1   2
ATOM      2  C   UNL     1       8.369  -1.911  -2.882  1.00  0.00     0.303 C 
ATOM      3  O   UNL     1       7.290  -2.411  -3.235  1.00  0.00    -0.252 OA
BRANCH   2   4
ATOM      4  O   UNL     1       9.556  -2.518  -3.246  1.00  0.00    -0.481 OA
ATOM      5  H   UNL     1      10.461  -2.166  -2.947  1.00  0.00     0.296 HD
ENDBRANCH   2   4
ENDBRANCH   1   2
BRANCH   1   6
ATOM      6  C   UNL     1       7.058   0.017  -2.104  1.00  0.00     0.047 C 
BRANCH   6   7
ATOM      7  C   UNL     1       6.467   0.177  -0.761  1.00  0.00    -0.047 A 
ATOM      8  C   UNL     1       5.804   1.301  -0.338  1.00  0.00     0.004 A 
ATOM      9  C   UNL     1       6.593  -0.871   0.119  1.00  0.00     0.004 A 
ATOM     10  C   UNL     1       5.283   1.365   0.939  1.00  0.00     0.000 A 
ATOM     11  C   UNL     1       6.086  -0.827   1.385  1.00  0.00     0.000 A 
ATOM     12  C   UNL     1       5.419   0.302   1.810  1.00  0.00     0.000 A 
ENDBRANCH   6   7
ENDBRANCH   1   6
TORSDOF 4
ENDMDL
MODEL 3
REMARK VINA RESULT:      -6.7      3.350      5.033
REMARK SMILES O=C(O)CCc1ccccc1
REMARK SMILES IDX 4 1 2 2 1 3 3 4 5 6 6 7 7 8 11 9 8 10 10 11 9 12
REMARK H PARENT 3 5
REMARK Flexibility Score: inf
ROOT
ATOM      1  C   UNL     1       5.039   1.703   0.720  1.00  0.00     0.127 C 
ENDROOT
BRANCH   1   2
ATOM      2  C   UNL     1       4.595   1.004   1.949  1.00  0.00     0.303 C 
ATOM      3  O   UNL     1       5.317   0.151   2.490  1.00  0.00    -0.252 OA
BRANCH   2   4
ATOM      4  O   UNL     1       3.364   1.304   2.499  1.00  0.00    -0.481 OA
ATOM      5  H   UNL     1       3.267   1.710   3.426  1.00  0.00     0.296 HD
ENDBRANCH   2   4
ENDBRANCH   1   2
BRANCH   1   6
ATOM      6  C   UNL     1       6.537   1.876   0.720  1.00  0.00     0.047 C 
BRANCH   6   7
ATOM      7  C   UNL     1       7.201   1.108  -0.351  1.00  0.00    -0.047 A 
ATOM      8  C   UNL     1       8.541   1.179  -0.635  1.00  0.00     0.004 A 
ATOM      9  C   UNL     1       6.421   0.271  -1.113  1.00  0.00     0.004 A 
ATOM     10  C   UNL     1       9.079   0.424  -1.659  1.00  0.00     0.000 A 
ATOM     11  C   UNL     1       6.933  -0.482  -2.128  1.00  0.00     0.000 A 
ATOM     12  C   UNL     1       8.280  -0.412  -2.413  1.00  0.00     0.000 A 
ENDBRANCH   6   7
ENDBRANCH   1   6
TORSDOF 4
ENDMDL
MODEL 4
REMARK VINA RESULT:      -6.7      1.946      2.324
REMARK SMILES O=C(O)CCc1ccccc1
REMARK SMILES IDX 4 1 2 2 1 3 3 4 5 6 6 7 7 8 11 9 8 10 10 11 9 12
REMARK H PARENT 3 5
REMARK Flexibility Score: inf
ROOT
ATOM      1  C   UNL     1       8.289   0.230  -2.170  1.00  0.00     0.127 C 
ENDROOT
BRANCH   1   2
ATOM      2  C   UNL     1       9.418   0.351  -1.219  1.00  0.00     0.303 C 
ATOM      3  O   UNL     1       9.486  -0.378  -0.217  1.00  0.00    -0.252 OA
BRANCH   2   4
ATOM      4  O   UNL     1      10.407   1.288  -1.449  1.00  0.00    -0.481 OA
ATOM      5  H   UNL     1      11.359   1.025  -1.692  1.00  0.00     0.296 HD
ENDBRANCH   2   4
ENDBRANCH   1   2
BRANCH   1   6
ATOM      6  C   UNL     1       7.157  -0.552  -1.552  1.00  0.00     0.047 C 
BRANCH   6   7
ATOM      7  C   UNL     1       6.368   0.244  -0.593  1.00  0.00    -0.047 A 
ATOM      8  C   UNL     1       6.132  -0.126   0.707  1.00  0.00     0.004 A 
ATOM      9  C   UNL     1       5.836   1.431  -1.035  1.00  0.00     0.004 A 
ATOM     10  C   UNL     1       5.380   0.682   1.538  1.00  0.00     0.000 A 
ATOM     11  C   UNL     1       5.090   2.242  -0.232  1.00  0.00     0.000 A 
ATOM     12  C   UNL     1       4.854   1.872   1.075  1.00  0.00     0.000 A 
ENDBRANCH   6   7
ENDBRANCH   1   6
TORSDOF 4
ENDMDL
MODEL 5
REMARK VINA RESULT:      -6.6      1.893      2.900
REMARK SMILES O=C(O)CCc1ccccc1
REMARK SMILES IDX 4 1 2 2 1 3 3 4 5 6 6 7 7 8 11 9 8 10 10 11 9 12
REMARK H PARENT 3 5
REMARK Flexibility Score: inf
ROOT
ATOM      1  C   UNL     1       8.167  -1.669   1.165  1.00  0.00     0.127 C 
ENDROOT
BRANCH   1   2
ATOM      2  C   UNL     1       8.518  -2.864   0.362  1.00  0.00     0.303 C 
ATOM      3  O   UNL     1       9.202  -3.778   0.849  1.00  0.00    -0.252 OA
BRANCH   2   4
ATOM      4  O   UNL     1       8.080  -2.962  -0.945  1.00  0.00    -0.481 OA
ATOM      5  H   UNL     1       7.425  -3.678  -1.246  1.00  0.00     0.296 HD
ENDBRANCH   2   4
ENDBRANCH   1   2
BRANCH   1   6
ATOM      6  C   UNL     1       6.671  -1.559   1.325  1.00  0.00     0.047 C 
BRANCH   6   7
ATOM      7  C   UNL     1       6.138  -0.270   0.843  1.00  0.00    -0.047 A 
ATOM      8  C   UNL     1       5.395   0.592   1.607  1.00  0.00     0.004 A 
ATOM      9  C   UNL     1       6.405   0.083  -0.459  1.00  0.00     0.004 A 
ATOM     10  C   UNL     1       4.934   1.780   1.073  1.00  0.00     0.000 A 
ATOM     11  C   UNL     1       5.959   1.251  -1.005  1.00  0.00     0.000 A 
ATOM     12  C   UNL     1       5.212   2.118  -0.236  1.00  0.00     0.000 A 
ENDBRANCH   6   7
ENDBRANCH   1   6
TORSDOF 4
ENDMDL
