@<TRIPOS>MOLECULE
/home/cewinharhar/GITHUB/reincatalyze/data/processed/docking_pred/2023-Apr-25-1630_maxeplen5_maxtrainstep200_exh32_gamma099_lrac3e-4_lrcr1e-3/25ea22f039de2039e6eb222be1b9c38742a73e8b_ligand_2.pdbqt
 12 12 0 0 0
SMALL
GASTEIGER

@<TRIPOS>ATOM
      1  C          4.9870    1.7670    0.6930 C.3     1  UNL1        0.1270
      2  C          4.4940    1.0950    1.9190 C.2     1  UNL1        0.3030
      3  O          5.1680    0.2130    2.4740 O.2     1  UNL1       -0.2520
      4  O          3.2700    1.4550    2.4490 O.3     1  UNL1       -0.4810
      5  H          2.4380    0.8850    2.3310 H       1  UNL1        0.2960
      6  C          6.4940    1.8330    0.6940 C.3     1  UNL1        0.0470
      7  C          7.1040    1.0230   -0.3770 C.2     1  UNL1       -0.0470
      8  C          6.4230    0.1020   -1.1310 C.2     1  UNL1        0.0040
      9  C          8.4420    1.2060   -0.6310 C.2     1  UNL1        0.0040
     10  C          7.0750   -0.6160   -2.1150 C.2     1  UNL1        0.0000
     11  C          9.1050    0.5080   -1.5980 C.2     1  UNL1        0.0000
     12  C          8.4200   -0.4180   -2.3560 C.2     1  UNL1        0.0000
@<TRIPOS>BOND
     1    12    10    2
     2    12    11    1
     3    10     8    1
     4    11     9    2
     5     8     7    2
     6     9     7    1
     7     7     6    1
     8     1     6    1
     9     1     2    1
    10     2     4    1
    11     2     3    2
    12     5     4    1
