@<TRIPOS>MOLECULE
/home/cewinharhar/GITHUB/reincatalyze/data/processed/docking_pred/2023-Apr-25-1630_maxeplen5_maxtrainstep200_exh32_gamma099_lrac3e-4_lrcr1e-3/25ea22f039de2039e6eb222be1b9c38742a73e8b_ligand_2.pdbqt
 12 12 0 0 0
SMALL
GASTEIGER

@<TRIPOS>ATOM
      1  C          7.9980   -2.2980    0.7420 C.3     1  UNL1        0.1270
      2  C          8.8090   -3.4470    0.2750 C.2     1  UNL1        0.3030
      3  O          8.7260   -3.8500   -0.8950 O.2     1  UNL1       -0.2520
      4  O          9.6690   -4.0770    1.1550 O.3     1  UNL1       -0.4810
      5  H         10.6650   -3.8790    1.1770 H       1  UNL1        0.2960
      6  C          7.4110   -1.5530   -0.4310 C.3     1  UNL1        0.0470
      7  C          6.5820   -0.4030   -0.0210 C.2     1  UNL1       -0.0470
      8  C          6.3080    0.6760   -0.8230 C.2     1  UNL1        0.0040
      9  C          6.0530   -0.4180    1.2480 C.2     1  UNL1        0.0040
     10  C          5.5210    1.7110   -0.3560 C.2     1  UNL1        0.0000
     11  C          5.2750    0.5940    1.7270 C.2     1  UNL1        0.0000
     12  C          4.9990    1.6780    0.9220 C.2     1  UNL1        0.0000
@<TRIPOS>BOND
     1     3     2    2
     2     8    10    1
     3     8     7    2
     4     6     7    1
     5     6     1    1
     6    10    12    2
     7     7     9    1
     8     2     1    1
     9     2     4    1
    10    12    11    1
    11     4     5    1
    12     9    11    2
