@<TRIPOS>MOLECULE
/home/cewinharhar/GITHUB/reincatalyze/data/processed/docking_pred/2023-Apr-25-1630_maxeplen5_maxtrainstep200_exh32_gamma099_lrac3e-4_lrcr1e-3/25ea22f039de2039e6eb222be1b9c38742a73e8b_ligand_2.pdbqt
 12 12 0 0 0
SMALL
GASTEIGER

@<TRIPOS>ATOM
      1  C          8.4280   -0.6570   -2.1180 C.3     1  UNL1        0.1270
      2  C          8.4740   -1.9120   -2.9050 C.2     1  UNL1        0.3030
      3  O          9.5500   -2.4960   -3.1080 O.2     1  UNL1       -0.2520
      4  O          7.3040   -2.4380   -3.4200 O.3     1  UNL1       -0.4810
      5  H          6.4370   -2.4550   -2.8910 H       1  UNL1        0.2960
      6  C          7.0370   -0.0720   -2.1340 C.3     1  UNL1        0.0470
      7  C          6.4720    0.0990   -0.7820 C.2     1  UNL1       -0.0470
      8  C          5.8210    1.2280   -0.3550 C.2     1  UNL1        0.0040
      9  C          6.6120   -0.9430    0.1030 C.2     1  UNL1        0.0040
     10  C          5.3240    1.3030    0.9320 C.2     1  UNL1        0.0000
     11  C          6.1290   -0.8890    1.3780 C.2     1  UNL1        0.0000
     12  C          5.4730    0.2450    1.8070 C.2     1  UNL1        0.0000
@<TRIPOS>BOND
     1     4     2    1
     2     4     5    1
     3     3     2    2
     4     2     1    1
     5     6     1    1
     6     6     7    1
     7     7     8    2
     8     7     9    1
     9     8    10    1
    10     9    11    2
    11    10    12    2
    12    11    12    1
