@<TRIPOS>MOLECULE
/home/cewinharhar/GITHUB/reincatalyze/data/processed/docking_pred/2023-Apr-25-1630_maxeplen5_maxtrainstep200_exh32_gamma099_lrac3e-4_lrcr1e-3/25ea22f039de2039e6eb222be1b9c38742a73e8b_ligand_2.pdbqt
 12 12 0 0 0
SMALL
GASTEIGER

@<TRIPOS>ATOM
      1  C          8.4500   -0.6030   -2.2110 C.3     1  UNL1        0.1270
      2  C          8.4840   -1.8960   -2.9350 C.2     1  UNL1        0.3030
      3  O          9.5530   -2.5030   -3.1010 O.2     1  UNL1       -0.2520
      4  O          7.3110   -2.4300   -3.4320 O.3     1  UNL1       -0.4810
      5  H          6.8270   -2.0300   -4.2310 H       1  UNL1        0.2960
      6  C          7.0390   -0.0740   -2.1380 C.3     1  UNL1        0.0470
      7  C          6.5200   -0.0140   -0.7580 C.2     1  UNL1       -0.0470
      8  C          6.6330   -1.0330    0.1530 C.2     1  UNL1        0.0040
      9  C          5.8830    1.1390   -0.3660 C.2     1  UNL1        0.0040
     10  C          6.1160   -0.8920    1.4270 C.2     1  UNL1        0.0000
     11  C          5.3650    1.2980    0.8860 C.2     1  UNL1        0.0000
     12  C          5.4790    0.2740    1.8020 C.2     1  UNL1        0.0000
@<TRIPOS>BOND
     1     5     4    1
     2     4     2    1
     3     3     2    2
     4     2     1    1
     5     1     6    1
     6     6     7    1
     7     7     9    2
     8     7     8    1
     9     9    11    1
    10     8    10    2
    11    11    12    2
    12    10    12    1
