@<TRIPOS>MOLECULE
/home/cewinharhar/GITHUB/reincatalyze/data/processed/docking_pred/2023-Apr-25-1630_maxeplen5_maxtrainstep200_exh32_gamma099_lrac3e-4_lrcr1e-3/25ea22f039de2039e6eb222be1b9c38742a73e8b_ligand_2.pdbqt
 12 12 0 0 0
SMALL
GASTEIGER

@<TRIPOS>ATOM
      1  C          8.4790    0.5990   -1.7260 C.3     1  UNL1        0.1270
      2  C          9.6210    0.2590   -0.8450 C.2     1  UNL1        0.3030
      3  O          9.4770   -0.5190    0.1110 O.2     1  UNL1       -0.2520
      4  O         10.8620    0.8140   -1.0920 O.3     1  UNL1       -0.4810
      5  H         11.7260    0.2980   -0.9520 H       1  UNL1        0.2960
      6  C          7.2830   -0.2600   -1.3980 C.3     1  UNL1        0.0470
      7  C          6.3900    0.3580   -0.4000 C.2     1  UNL1       -0.0470
      8  C          5.7620    1.5660   -0.5680 C.2     1  UNL1        0.0040
      9  C          6.1780   -0.3240    0.7740 C.2     1  UNL1        0.0040
     10  C          4.9420    2.0720    0.4220 C.2     1  UNL1        0.0000
     11  C          5.3720    0.1580    1.7640 C.2     1  UNL1        0.0000
     12  C          4.7410    1.3720    1.5950 C.2     1  UNL1        0.0000
@<TRIPOS>BOND
     1     1     6    1
     2     1     2    1
     3     6     7    1
     4     4     5    1
     5     4     2    1
     6     2     3    2
     7     8     7    2
     8     8    10    1
     9     7     9    1
    10    10    12    2
    11     9    11    2
    12    12    11    1
