MODEL 1
REMARK VINA RESULT:      -7.3      0.000      0.000
REMARK SMILES O=C(O)CCc1ccccc1
REMARK SMILES IDX 4 1 2 2 1 3 3 4 5 6 6 7 7 8 11 9 8 10 10 11 9 12
REMARK H PARENT 3 5
REMARK Flexibility Score: inf
ROOT
ATOM      1  C   UNL     1       8.428  -0.657  -2.118  1.00  0.00     0.127 C 
ENDROOT
BRANCH   1   2
ATOM      2  C   UNL     1       8.474  -1.912  -2.905  1.00  0.00     0.303 C 
ATOM      3  O   UNL     1       9.550  -2.496  -3.108  1.00  0.00    -0.252 OA
BRANCH   2   4
ATOM      4  O   UNL     1       7.304  -2.438  -3.420  1.00  0.00    -0.481 OA
ATOM      5  H   UNL     1       6.437  -2.455  -2.891  1.00  0.00     0.296 HD
ENDBRANCH   2   4
ENDBRANCH   1   2
BRANCH   1   6
ATOM      6  C   UNL     1       7.037  -0.072  -2.134  1.00  0.00     0.047 C 
BRANCH   6   7
ATOM      7  C   UNL     1       6.472   0.099  -0.782  1.00  0.00    -0.047 A 
ATOM      8  C   UNL     1       5.821   1.228  -0.355  1.00  0.00     0.004 A 
ATOM      9  C   UNL     1       6.612  -0.943   0.103  1.00  0.00     0.004 A 
ATOM     10  C   UNL     1       5.324   1.303   0.932  1.00  0.00     0.000 A 
ATOM     11  C   UNL     1       6.129  -0.889   1.378  1.00  0.00     0.000 A 
ATOM     12  C   UNL     1       5.473   0.245   1.807  1.00  0.00     0.000 A 
ENDBRANCH   6   7
ENDBRANCH   1   6
TORSDOF 4
ENDMDL
MODEL 2
REMARK VINA RESULT:      -7.3      0.074      1.428
REMARK SMILES O=C(O)CCc1ccccc1
REMARK SMILES IDX 4 1 2 2 1 3 3 4 5 6 6 7 7 8 11 9 8 10 10 11 9 12
REMARK H PARENT 3 5
REMARK Flexibility Score: inf
ROOT
ATOM      1  C   UNL     1       8.450  -0.603  -2.211  1.00  0.00     0.127 C 
ENDROOT
BRANCH   1   2
ATOM      2  C   UNL     1       8.484  -1.896  -2.935  1.00  0.00     0.303 C 
ATOM      3  O   UNL     1       9.553  -2.503  -3.101  1.00  0.00    -0.252 OA
BRANCH   2   4
ATOM      4  O   UNL     1       7.311  -2.430  -3.432  1.00  0.00    -0.481 OA
ATOM      5  H   UNL     1       6.827  -2.030  -4.231  1.00  0.00     0.296 HD
ENDBRANCH   2   4
ENDBRANCH   1   2
BRANCH   1   6
ATOM      6  C   UNL     1       7.039  -0.074  -2.138  1.00  0.00     0.047 C 
BRANCH   6   7
ATOM      7  C   UNL     1       6.520  -0.014  -0.758  1.00  0.00    -0.047 A 
ATOM      8  C   UNL     1       6.633  -1.033   0.153  1.00  0.00     0.004 A 
ATOM      9  C   UNL     1       5.883   1.139  -0.366  1.00  0.00     0.004 A 
ATOM     10  C   UNL     1       6.116  -0.892   1.427  1.00  0.00     0.000 A 
ATOM     11  C   UNL     1       5.365   1.298   0.886  1.00  0.00     0.000 A 
ATOM     12  C   UNL     1       5.479   0.274   1.802  1.00  0.00     0.000 A 
ENDBRANCH   6   7
ENDBRANCH   1   6
TORSDOF 4
ENDMDL
MODEL 3
REMARK VINA RESULT:      -6.8      3.373      5.077
REMARK SMILES O=C(O)CCc1ccccc1
REMARK SMILES IDX 4 1 2 2 1 3 3 4 5 6 6 7 7 8 11 9 8 10 10 11 9 12
REMARK H PARENT 3 5
REMARK Flexibility Score: inf
ROOT
ATOM      1  C   UNL     1       4.987   1.767   0.693  1.00  0.00     0.127 C 
ENDROOT
BRANCH   1   2
ATOM      2  C   UNL     1       4.494   1.095   1.919  1.00  0.00     0.303 C 
ATOM      3  O   UNL     1       5.168   0.213   2.474  1.00  0.00    -0.252 OA
BRANCH   2   4
ATOM      4  O   UNL     1       3.270   1.455   2.449  1.00  0.00    -0.481 OA
ATOM      5  H   UNL     1       2.438   0.885   2.331  1.00  0.00     0.296 HD
ENDBRANCH   2   4
ENDBRANCH   1   2
BRANCH   1   6
ATOM      6  C   UNL     1       6.494   1.833   0.694  1.00  0.00     0.047 C 
BRANCH   6   7
ATOM      7  C   UNL     1       7.104   1.023  -0.377  1.00  0.00    -0.047 A 
ATOM      8  C   UNL     1       6.423   0.102  -1.131  1.00  0.00     0.004 A 
ATOM      9  C   UNL     1       8.442   1.206  -0.631  1.00  0.00     0.004 A 
ATOM     10  C   UNL     1       7.075  -0.616  -2.115  1.00  0.00     0.000 A 
ATOM     11  C   UNL     1       9.105   0.508  -1.598  1.00  0.00     0.000 A 
ATOM     12  C   UNL     1       8.420  -0.418  -2.356  1.00  0.00     0.000 A 
ENDBRANCH   6   7
ENDBRANCH   1   6
TORSDOF 4
ENDMDL
MODEL 4
REMARK VINA RESULT:      -6.6      2.063      2.367
REMARK SMILES O=C(O)CCc1ccccc1
REMARK SMILES IDX 4 1 2 2 1 3 3 4 5 6 6 7 7 8 11 9 8 10 10 11 9 12
REMARK H PARENT 3 5
REMARK Flexibility Score: inf
ROOT
ATOM      1  C   UNL     1       8.479   0.599  -1.726  1.00  0.00     0.127 C 
ENDROOT
BRANCH   1   2
ATOM      2  C   UNL     1       9.621   0.259  -0.845  1.00  0.00     0.303 C 
ATOM      3  O   UNL     1       9.477  -0.519   0.111  1.00  0.00    -0.252 OA
BRANCH   2   4
ATOM      4  O   UNL     1      10.862   0.814  -1.092  1.00  0.00    -0.481 OA
ATOM      5  H   UNL     1      11.726   0.298  -0.952  1.00  0.00     0.296 HD
ENDBRANCH   2   4
ENDBRANCH   1   2
BRANCH   1   6
ATOM      6  C   UNL     1       7.283  -0.260  -1.398  1.00  0.00     0.047 C 
BRANCH   6   7
ATOM      7  C   UNL     1       6.390   0.358  -0.400  1.00  0.00    -0.047 A 
ATOM      8  C   UNL     1       5.762   1.566  -0.568  1.00  0.00     0.004 A 
ATOM      9  C   UNL     1       6.178  -0.324   0.774  1.00  0.00     0.004 A 
ATOM     10  C   UNL     1       4.942   2.072   0.422  1.00  0.00     0.000 A 
ATOM     11  C   UNL     1       5.372   0.158   1.764  1.00  0.00     0.000 A 
ATOM     12  C   UNL     1       4.741   1.372   1.595  1.00  0.00     0.000 A 
ENDBRANCH   6   7
ENDBRANCH   1   6
TORSDOF 4
ENDMDL
MODEL 5
REMARK VINA RESULT:      -6.5      2.052      2.645
REMARK SMILES O=C(O)CCc1ccccc1
REMARK SMILES IDX 4 1 2 2 1 3 3 4 5 6 6 7 7 8 11 9 8 10 10 11 9 12
REMARK H PARENT 3 5
REMARK Flexibility Score: inf
ROOT
ATOM      1  C   UNL     1       7.998  -2.298   0.742  1.00  0.00     0.127 C 
ENDROOT
BRANCH   1   2
ATOM      2  C   UNL     1       8.809  -3.447   0.275  1.00  0.00     0.303 C 
ATOM      3  O   UNL     1       8.726  -3.850  -0.895  1.00  0.00    -0.252 OA
BRANCH   2   4
ATOM      4  O   UNL     1       9.669  -4.077   1.155  1.00  0.00    -0.481 OA
ATOM      5  H   UNL     1      10.665  -3.879   1.177  1.00  0.00     0.296 HD
ENDBRANCH   2   4
ENDBRANCH   1   2
BRANCH   1   6
ATOM      6  C   UNL     1       7.411  -1.553  -0.431  1.00  0.00     0.047 C 
BRANCH   6   7
ATOM      7  C   UNL     1       6.582  -0.403  -0.021  1.00  0.00    -0.047 A 
ATOM      8  C   UNL     1       6.308   0.676  -0.823  1.00  0.00     0.004 A 
ATOM      9  C   UNL     1       6.053  -0.418   1.248  1.00  0.00     0.004 A 
ATOM     10  C   UNL     1       5.521   1.711  -0.356  1.00  0.00     0.000 A 
ATOM     11  C   UNL     1       5.275   0.594   1.727  1.00  0.00     0.000 A 
ATOM     12  C   UNL     1       4.999   1.678   0.922  1.00  0.00     0.000 A 
ENDBRANCH   6   7
ENDBRANCH   1   6
TORSDOF 4
ENDMDL
