@<TRIPOS>MOLECULE
/home/cewinharhar/GITHUB/reincatalyze/data/processed/docking_pred/2023-Apr-25-1630_maxeplen5_maxtrainstep200_exh32_gamma099_lrac3e-4_lrcr1e-3/25f547df8c587039729a955c6f4cb3c83005f49c_ligand_2.pdbqt
 12 12 0 0 0
SMALL
GASTEIGER

@<TRIPOS>ATOM
      1  C          8.4420   -0.6410   -2.1280 C.3     1  UNL1        0.1270
      2  C          8.3910   -1.9090   -2.8940 C.2     1  UNL1        0.3030
      3  O          7.3040   -2.4120   -3.2190 O.2     1  UNL1       -0.2520
      4  O          9.5680   -2.5390   -3.2500 O.3     1  UNL1       -0.4810
      5  H          9.5840   -3.4670   -3.6640 H       1  UNL1        0.2960
      6  C          7.0850    0.0170   -2.1010 C.3     1  UNL1        0.0470
      7  C          6.5140    0.0970   -0.7430 C.2     1  UNL1       -0.0470
      8  C          6.6160   -0.8970    0.1970 C.2     1  UNL1        0.0040
      9  C          5.8350    1.2430   -0.4040 C.2     1  UNL1        0.0040
     10  C          6.0490   -0.7370    1.4460 C.2     1  UNL1        0.0000
     11  C          5.2670    1.4190    0.8240 C.2     1  UNL1        0.0000
     12  C          5.3700    0.4210    1.7690 C.2     1  UNL1        0.0000
@<TRIPOS>BOND
     1     5     4    1
     2     4     2    1
     3     3     2    2
     4     2     1    1
     5     1     6    1
     6     6     7    1
     7     7     9    2
     8     7     8    1
     9     9    11    1
    10     8    10    2
    11    11    12    2
    12    10    12    1
