@<TRIPOS>MOLECULE
/home/cewinharhar/GITHUB/reincatalyze/data/processed/docking_pred/2023-Apr-25-1630_maxeplen5_maxtrainstep200_exh32_gamma099_lrac3e-4_lrcr1e-3/25f547df8c587039729a955c6f4cb3c83005f49c_ligand_2.pdbqt
 12 12 0 0 0
SMALL
GASTEIGER

@<TRIPOS>ATOM
      1  C          8.1630   -1.6580    1.1700 C.3     1  UNL1        0.1270
      2  C          8.5140   -2.8540    0.3680 C.2     1  UNL1        0.3030
      3  O          9.1930   -3.7700    0.8570 O.2     1  UNL1       -0.2520
      4  O          8.0800   -2.9500   -0.9400 O.3     1  UNL1       -0.4810
      5  H          8.7080   -3.1750   -1.7060 H       1  UNL1        0.2960
      6  C          6.6680   -1.5480    1.3320 C.3     1  UNL1        0.0470
      7  C          6.1330   -0.2600    0.8480 C.2     1  UNL1       -0.0470
      8  C          5.3870    0.6010    1.6120 C.2     1  UNL1        0.0040
      9  C          6.4010    0.0930   -0.4530 C.2     1  UNL1        0.0040
     10  C          4.9240    1.7870    1.0760 C.2     1  UNL1        0.0000
     11  C          5.9530    1.2590   -1.0000 C.2     1  UNL1        0.0000
     12  C          5.2040    2.1250   -0.2330 C.2     1  UNL1        0.0000
@<TRIPOS>BOND
     1     5     4    1
     2    11     9    1
     3    11    12    2
     4     4     2    1
     5     9     7    2
     6    12    10    1
     7     2     3    2
     8     2     1    1
     9     7     6    1
    10     7     8    1
    11    10     8    2
    12     1     6    1
