@<TRIPOS>MOLECULE
/home/cewinharhar/GITHUB/reincatalyze/data/processed/docking_pred/2023-Apr-25-1630_maxeplen5_maxtrainstep200_exh32_gamma099_lrac3e-4_lrcr1e-3/25f547df8c587039729a955c6f4cb3c83005f49c_ligand_2.pdbqt
 12 12 0 0 0
SMALL
GASTEIGER

@<TRIPOS>ATOM
      1  C          8.0410   -0.8600   -1.9860 C.3     1  UNL1        0.1270
      2  C          8.3040   -1.9840   -2.9160 C.2     1  UNL1        0.3030
      3  O          9.4590   -2.3990   -3.0990 O.2     1  UNL1       -0.2520
      4  O          7.2510   -2.5760   -3.5850 O.3     1  UNL1       -0.4810
      5  H          7.3910   -3.2930   -4.2920 H       1  UNL1        0.2960
      6  C          7.3460   -1.3530   -0.7410 C.3     1  UNL1        0.0470
      7  C          6.5200   -0.3140   -0.0970 C.2     1  UNL1       -0.0470
      8  C          6.0590   -0.3840    1.1930 C.2     1  UNL1        0.0040
      9  C          6.1930    0.7930   -0.8430 C.2     1  UNL1        0.0040
     10  C          5.2890    0.6360    1.7160 C.2     1  UNL1        0.0000
     11  C          5.4330    1.8110   -0.3450 C.2     1  UNL1        0.0000
     12  C          4.9710    1.7410    0.9520 C.2     1  UNL1        0.0000
@<TRIPOS>BOND
     1     5     4    1
     2     4     2    1
     3     3     2    2
     4     2     1    1
     5     1     6    1
     6     9    11    1
     7     9     7    2
     8     6     7    1
     9    11    12    2
    10     7     8    1
    11    12    10    1
    12     8    10    2
