@<TRIPOS>MOLECULE
/home/cewinharhar/GITHUB/reincatalyze/data/processed/docking_pred/2023-Apr-25-1630_maxeplen5_maxtrainstep200_exh32_gamma099_lrac3e-4_lrcr1e-3/25f547df8c587039729a955c6f4cb3c83005f49c_ligand_2.pdbqt
 12 12 0 0 0
SMALL
GASTEIGER

@<TRIPOS>ATOM
      1  C          8.4260   -0.7230   -2.0420 C.3     1  UNL1        0.1270
      2  C          8.4610   -1.9470   -2.8760 C.2     1  UNL1        0.3030
      3  O          9.5300   -2.5370   -3.0950 O.2     1  UNL1       -0.2520
      4  O          7.2880   -2.4370   -3.4180 O.3     1  UNL1       -0.4810
      5  H          7.0560   -3.4260   -3.4070 H       1  UNL1        0.2960
      6  C          7.0640   -0.0790   -2.1020 C.3     1  UNL1        0.0470
      7  C          6.4690    0.1280   -0.7670 C.2     1  UNL1       -0.0470
      8  C          5.8170    1.2710   -0.3820 C.2     1  UNL1        0.0040
      9  C          6.5800   -0.8950    0.1450 C.2     1  UNL1        0.0040
     10  C          5.2900    1.3790    0.8910 C.2     1  UNL1        0.0000
     11  C          6.0670   -0.8080    1.4060 C.2     1  UNL1        0.0000
     12  C          5.4110    0.3410    1.7940 C.2     1  UNL1        0.0000
@<TRIPOS>BOND
     1     4     5    1
     2     4     2    1
     3     3     2    2
     4     2     1    1
     5     6     1    1
     6     6     7    1
     7     7     8    2
     8     7     9    1
     9     8    10    1
    10     9    11    2
    11    10    12    2
    12    11    12    1
