@<TRIPOS>MOLECULE
/home/cewinharhar/GITHUB/reincatalyze/data/processed/docking_pred/2023-Apr-25-1630_maxeplen5_maxtrainstep200_exh32_gamma099_lrac3e-4_lrcr1e-3/2734134eb9e7fe1a9a1e6734a306fe03ba38cdbb_ligand_2.pdbqt
 12 12 0 0 0
SMALL
GASTEIGER

@<TRIPOS>ATOM
      1  C          8.4350   -0.5970   -2.1980 C.3     1  UNL1        0.1270
      2  C          8.4770   -1.8950   -2.9130 C.2     1  UNL1        0.3030
      3  O          9.5510   -2.4920   -3.0840 O.2     1  UNL1       -0.2520
      4  O          7.3050   -2.4450   -3.3960 O.3     1  UNL1       -0.4810
      5  H          7.0110   -3.3890   -3.1590 H       1  UNL1        0.2960
      6  C          7.0270   -0.0580   -2.1590 C.3     1  UNL1        0.0470
      7  C          6.4930    0.0480   -0.7870 C.2     1  UNL1       -0.0470
      8  C          6.5780   -0.9460    0.1540 C.2     1  UNL1        0.0040
      9  C          5.8690    1.2220   -0.4360 C.2     1  UNL1        0.0040
     10  C          6.0470   -0.7600    1.4160 C.2     1  UNL1        0.0000
     11  C          5.3380    1.4240    0.8040 C.2     1  UNL1        0.0000
     12  C          5.4240    0.4260    1.7500 C.2     1  UNL1        0.0000
@<TRIPOS>BOND
     1     4     5    1
     2     4     2    1
     3     3     2    2
     4     2     1    1
     5     1     6    1
     6     6     7    1
     7     7     9    2
     8     7     8    1
     9     9    11    1
    10     8    10    2
    11    11    12    2
    12    10    12    1
