@<TRIPOS>MOLECULE
/home/cewinharhar/GITHUB/reincatalyze/data/processed/docking_pred/2023-Apr-25-1630_maxeplen5_maxtrainstep200_exh32_gamma099_lrac3e-4_lrcr1e-3/2734134eb9e7fe1a9a1e6734a306fe03ba38cdbb_ligand_2.pdbqt
 12 12 0 0 0
SMALL
GASTEIGER

@<TRIPOS>ATOM
      1  C          8.2810    0.1990   -2.1690 C.3     1  UNL1        0.1270
      2  C          9.3970    0.3570   -1.2080 C.2     1  UNL1        0.3030
      3  O          9.4870   -0.3770   -0.2120 O.2     1  UNL1       -0.2520
      4  O         10.3490    1.3350   -1.4230 O.3     1  UNL1       -0.4810
      5  H         10.5220    1.7320   -2.3420 H       1  UNL1        0.2960
      6  C          7.1340   -0.5460   -1.5330 C.3     1  UNL1        0.0470
      7  C          6.3450    0.2950   -0.6130 C.2     1  UNL1       -0.0470
      8  C          5.8090    1.5120   -0.9470 C.2     1  UNL1        0.0040
      9  C          6.1380   -0.1760    0.6620 C.2     1  UNL1        0.0040
     10  C          5.0830    2.2350   -0.0210 C.2     1  UNL1        0.0000
     11  C          5.4250    0.5220    1.5920 C.2     1  UNL1        0.0000
     12  C          4.8850    1.7450    1.2550 C.2     1  UNL1        0.0000
@<TRIPOS>BOND
     1     5     4    1
     2     1     6    1
     3     1     2    1
     4     6     7    1
     5     4     2    1
     6     2     3    2
     7     8     7    2
     8     8    10    1
     9     7     9    1
    10    10    12    2
    11     9    11    2
    12    12    11    1
