@<TRIPOS>MOLECULE
/home/cewinharhar/GITHUB/reincatalyze/data/processed/docking_pred/2023-Apr-25-1630_maxeplen5_maxtrainstep200_exh32_gamma099_lrac3e-4_lrcr1e-3/2734134eb9e7fe1a9a1e6734a306fe03ba38cdbb_ligand_2.pdbqt
 12 12 0 0 0
SMALL
GASTEIGER

@<TRIPOS>ATOM
      1  C          8.2730   -0.9230   -1.9020 C.3     1  UNL1        0.1270
      2  C          8.4080   -2.0350   -2.8730 C.2     1  UNL1        0.3030
      3  O          9.5180   -2.5300   -3.1210 O.2     1  UNL1       -0.2520
      4  O          7.2840   -2.5250   -3.5090 O.3     1  UNL1       -0.4810
      5  H          6.3430   -2.3270   -3.1810 H       1  UNL1        0.2960
      6  C          7.4700   -1.3610   -0.7030 C.3     1  UNL1        0.0470
      7  C          6.6100   -0.2880   -0.1670 C.2     1  UNL1       -0.0470
      8  C          6.2430    0.8310   -0.8700 C.2     1  UNL1        0.0040
      9  C          6.1500   -0.4240    1.1210 C.2     1  UNL1        0.0040
     10  C          5.4340    1.7870   -0.2880 C.2     1  UNL1        0.0000
     11  C          5.3500    0.5080    1.7140 C.2     1  UNL1        0.0000
     12  C          4.9810    1.6330    1.0070 C.2     1  UNL1        0.0000
@<TRIPOS>BOND
     1     4     5    1
     2     4     2    1
     3     3     2    2
     4     2     1    1
     5     1     6    1
     6     8    10    1
     7     8     7    2
     8     6     7    1
     9    10    12    2
    10     7     9    1
    11    12    11    1
    12     9    11    2
