@<TRIPOS>MOLECULE
/home/cewinharhar/GITHUB/reincatalyze/data/processed/docking_pred/2023-Apr-25-1630_maxeplen5_maxtrainstep200_exh32_gamma099_lrac3e-4_lrcr1e-3/2734134eb9e7fe1a9a1e6734a306fe03ba38cdbb_ligand_2.pdbqt
 12 12 0 0 0
SMALL
GASTEIGER

@<TRIPOS>ATOM
      1  C          5.0190    1.7800    0.7380 C.3     1  UNL1        0.1270
      2  C          4.4900    1.0910    1.9380 C.2     1  UNL1        0.3030
      3  O          5.1370    0.1860    2.4880 O.2     1  UNL1       -0.2520
      4  O          3.2620    1.4600    2.4520 O.3     1  UNL1       -0.4810
      5  H          2.6750    2.1600    2.0060 H       1  UNL1        0.2960
      6  C          6.5240    1.8560    0.7910 C.3     1  UNL1        0.0470
      7  C          7.1740    1.1110   -0.3050 C.2     1  UNL1       -0.0470
      8  C          8.4970    1.2340   -0.6430 C.2     1  UNL1        0.0040
      9  C          6.3980    0.2390   -1.0310 C.2     1  UNL1        0.0040
     10  C          9.0230    0.4970   -1.6860 C.2     1  UNL1        0.0000
     11  C          6.8980   -0.4970   -2.0640 C.2     1  UNL1        0.0000
     12  C          8.2280   -0.3740   -2.4040 C.2     1  UNL1        0.0000
@<TRIPOS>BOND
     1    12    11    2
     2    12    10    1
     3    11     9    1
     4    10     8    2
     5     9     7    2
     6     8     7    1
     7     7     6    1
     8     1     6    1
     9     1     2    1
    10     2     4    1
    11     2     3    2
    12     5     4    1
