MODEL 1
REMARK VINA RESULT:      -7.3      0.000      0.000
REMARK SMILES O=C(O)CCc1ccccc1
REMARK SMILES IDX 4 1 2 2 1 3 3 4 5 6 6 7 7 8 11 9 8 10 10 11 9 12
REMARK H PARENT 3 5
REMARK Flexibility Score: inf
ROOT
ATOM      1  C   UNL     1       8.435  -0.597  -2.198  1.00  0.00     0.127 C 
ENDROOT
BRANCH   1   2
ATOM      2  C   UNL     1       8.477  -1.895  -2.913  1.00  0.00     0.303 C 
ATOM      3  O   UNL     1       9.551  -2.492  -3.084  1.00  0.00    -0.252 OA
BRANCH   2   4
ATOM      4  O   UNL     1       7.305  -2.445  -3.396  1.00  0.00    -0.481 OA
ATOM      5  H   UNL     1       7.011  -3.389  -3.159  1.00  0.00     0.296 HD
ENDBRANCH   2   4
ENDBRANCH   1   2
BRANCH   1   6
ATOM      6  C   UNL     1       7.027  -0.058  -2.159  1.00  0.00     0.047 C 
BRANCH   6   7
ATOM      7  C   UNL     1       6.493   0.048  -0.787  1.00  0.00    -0.047 A 
ATOM      8  C   UNL     1       6.578  -0.946   0.154  1.00  0.00     0.004 A 
ATOM      9  C   UNL     1       5.869   1.222  -0.436  1.00  0.00     0.004 A 
ATOM     10  C   UNL     1       6.047  -0.760   1.416  1.00  0.00     0.000 A 
ATOM     11  C   UNL     1       5.338   1.424   0.804  1.00  0.00     0.000 A 
ATOM     12  C   UNL     1       5.424   0.426   1.750  1.00  0.00     0.000 A 
ENDBRANCH   6   7
ENDBRANCH   1   6
TORSDOF 4
ENDMDL
MODEL 2
REMARK VINA RESULT:      -7.3      0.104      1.429
REMARK SMILES O=C(O)CCc1ccccc1
REMARK SMILES IDX 4 1 2 2 1 3 3 4 5 6 6 7 7 8 11 9 8 10 10 11 9 12
REMARK H PARENT 3 5
REMARK Flexibility Score: inf
ROOT
ATOM      1  C   UNL     1       8.420  -0.640  -2.132  1.00  0.00     0.127 C 
ENDROOT
BRANCH   1   2
ATOM      2  C   UNL     1       8.478  -1.907  -2.899  1.00  0.00     0.303 C 
ATOM      3  O   UNL     1       9.559  -2.485  -3.090  1.00  0.00    -0.252 OA
BRANCH   2   4
ATOM      4  O   UNL     1       7.314  -2.450  -3.409  1.00  0.00    -0.481 OA
ATOM      5  H   UNL     1       6.993  -3.380  -3.156  1.00  0.00     0.296 HD
ENDBRANCH   2   4
ENDBRANCH   1   2
BRANCH   1   6
ATOM      6  C   UNL     1       7.019  -0.081  -2.137  1.00  0.00     0.047 C 
BRANCH   6   7
ATOM      7  C   UNL     1       6.469   0.097  -0.780  1.00  0.00    -0.047 A 
ATOM      8  C   UNL     1       5.837   1.234  -0.346  1.00  0.00     0.004 A 
ATOM      9  C   UNL     1       6.602  -0.948   0.104  1.00  0.00     0.004 A 
ATOM     10  C   UNL     1       5.352   1.315   0.945  1.00  0.00     0.000 A 
ATOM     11  C   UNL     1       6.131  -0.888   1.382  1.00  0.00     0.000 A 
ATOM     12  C   UNL     1       5.495   0.255   1.819  1.00  0.00     0.000 A 
ENDBRANCH   6   7
ENDBRANCH   1   6
TORSDOF 4
ENDMDL
MODEL 3
REMARK VINA RESULT:      -7.2      0.647      1.594
REMARK SMILES O=C(O)CCc1ccccc1
REMARK SMILES IDX 4 1 2 2 1 3 3 4 5 6 6 7 7 8 11 9 8 10 10 11 9 12
REMARK H PARENT 3 5
REMARK Flexibility Score: inf
ROOT
ATOM      1  C   UNL     1       8.273  -0.923  -1.902  1.00  0.00     0.127 C 
ENDROOT
BRANCH   1   2
ATOM      2  C   UNL     1       8.408  -2.035  -2.873  1.00  0.00     0.303 C 
ATOM      3  O   UNL     1       9.518  -2.530  -3.121  1.00  0.00    -0.252 OA
BRANCH   2   4
ATOM      4  O   UNL     1       7.284  -2.525  -3.509  1.00  0.00    -0.481 OA
ATOM      5  H   UNL     1       6.343  -2.327  -3.181  1.00  0.00     0.296 HD
ENDBRANCH   2   4
ENDBRANCH   1   2
BRANCH   1   6
ATOM      6  C   UNL     1       7.470  -1.361  -0.703  1.00  0.00     0.047 C 
BRANCH   6   7
ATOM      7  C   UNL     1       6.610  -0.288  -0.167  1.00  0.00    -0.047 A 
ATOM      8  C   UNL     1       6.243   0.831  -0.870  1.00  0.00     0.004 A 
ATOM      9  C   UNL     1       6.150  -0.424   1.121  1.00  0.00     0.004 A 
ATOM     10  C   UNL     1       5.434   1.787  -0.288  1.00  0.00     0.000 A 
ATOM     11  C   UNL     1       5.350   0.508   1.714  1.00  0.00     0.000 A 
ATOM     12  C   UNL     1       4.981   1.633   1.007  1.00  0.00     0.000 A 
ENDBRANCH   6   7
ENDBRANCH   1   6
TORSDOF 4
ENDMDL
MODEL 4
REMARK VINA RESULT:      -6.7      3.366      5.073
REMARK SMILES O=C(O)CCc1ccccc1
REMARK SMILES IDX 4 1 2 2 1 3 3 4 5 6 6 7 7 8 11 9 8 10 10 11 9 12
REMARK H PARENT 3 5
REMARK Flexibility Score: inf
ROOT
ATOM      1  C   UNL     1       5.019   1.780   0.738  1.00  0.00     0.127 C 
ENDROOT
BRANCH   1   2
ATOM      2  C   UNL     1       4.490   1.091   1.938  1.00  0.00     0.303 C 
ATOM      3  O   UNL     1       5.137   0.186   2.488  1.00  0.00    -0.252 OA
BRANCH   2   4
ATOM      4  O   UNL     1       3.262   1.460   2.452  1.00  0.00    -0.481 OA
ATOM      5  H   UNL     1       2.675   2.160   2.006  1.00  0.00     0.296 HD
ENDBRANCH   2   4
ENDBRANCH   1   2
BRANCH   1   6
ATOM      6  C   UNL     1       6.524   1.856   0.791  1.00  0.00     0.047 C 
BRANCH   6   7
ATOM      7  C   UNL     1       7.174   1.111  -0.305  1.00  0.00    -0.047 A 
ATOM      8  C   UNL     1       8.497   1.234  -0.643  1.00  0.00     0.004 A 
ATOM      9  C   UNL     1       6.398   0.239  -1.031  1.00  0.00     0.004 A 
ATOM     10  C   UNL     1       9.023   0.497  -1.686  1.00  0.00     0.000 A 
ATOM     11  C   UNL     1       6.898  -0.497  -2.064  1.00  0.00     0.000 A 
ATOM     12  C   UNL     1       8.228  -0.374  -2.404  1.00  0.00     0.000 A 
ENDBRANCH   6   7
ENDBRANCH   1   6
TORSDOF 4
ENDMDL
MODEL 5
REMARK VINA RESULT:      -6.6      1.934      2.649
REMARK SMILES O=C(O)CCc1ccccc1
REMARK SMILES IDX 4 1 2 2 1 3 3 4 5 6 6 7 7 8 11 9 8 10 10 11 9 12
REMARK H PARENT 3 5
REMARK Flexibility Score: inf
ROOT
ATOM      1  C   UNL     1       8.281   0.199  -2.169  1.00  0.00     0.127 C 
ENDROOT
BRANCH   1   2
ATOM      2  C   UNL     1       9.397   0.357  -1.208  1.00  0.00     0.303 C 
ATOM      3  O   UNL     1       9.487  -0.377  -0.212  1.00  0.00    -0.252 OA
BRANCH   2   4
ATOM      4  O   UNL     1      10.349   1.335  -1.423  1.00  0.00    -0.481 OA
ATOM      5  H   UNL     1      10.522   1.732  -2.342  1.00  0.00     0.296 HD
ENDBRANCH   2   4
ENDBRANCH   1   2
BRANCH   1   6
ATOM      6  C   UNL     1       7.134  -0.546  -1.533  1.00  0.00     0.047 C 
BRANCH   6   7
ATOM      7  C   UNL     1       6.345   0.295  -0.613  1.00  0.00    -0.047 A 
ATOM      8  C   UNL     1       5.809   1.512  -0.947  1.00  0.00     0.004 A 
ATOM      9  C   UNL     1       6.138  -0.176   0.662  1.00  0.00     0.004 A 
ATOM     10  C   UNL     1       5.083   2.235  -0.021  1.00  0.00     0.000 A 
ATOM     11  C   UNL     1       5.425   0.522   1.592  1.00  0.00     0.000 A 
ATOM     12  C   UNL     1       4.885   1.745   1.255  1.00  0.00     0.000 A 
ENDBRANCH   6   7
ENDBRANCH   1   6
TORSDOF 4
ENDMDL
