@<TRIPOS>MOLECULE
/home/cewinharhar/GITHUB/reincatalyze/data/processed/docking_pred/2023-Apr-25-1630_maxeplen5_maxtrainstep200_exh32_gamma099_lrac3e-4_lrcr1e-3/2b611616233e02901686b2fc0a6dd8ec9c570ff2_ligand_2.pdbqt
 12 12 0 0 0
SMALL
GASTEIGER

@<TRIPOS>ATOM
      1  C          4.9920    1.7730    0.7190 C.3     1  UNL1        0.1270
      2  C          4.4820    1.0890    1.9320 C.2     1  UNL1        0.3030
      3  O          5.1420    0.1930    2.4800 O.2     1  UNL1       -0.2520
      4  O          3.2580    1.4550    2.4580 O.3     1  UNL1       -0.4810
      5  H          2.5760    0.7700    2.7730 H       1  UNL1        0.2960
      6  C          6.5000    1.8110    0.7270 C.3     1  UNL1        0.0470
      7  C          7.0980    1.0080   -0.3570 C.2     1  UNL1       -0.0470
      8  C          6.4180    0.0650   -1.0850 C.2     1  UNL1        0.0040
      9  C          8.4230    1.2210   -0.6510 C.2     1  UNL1        0.0040
     10  C          7.0590   -0.6430   -2.0830 C.2     1  UNL1        0.0000
     11  C          9.0740    0.5330   -1.6320 C.2     1  UNL1        0.0000
     12  C          8.3910   -0.4150   -2.3640 C.2     1  UNL1        0.0000
@<TRIPOS>BOND
     1    12    10    2
     2    12    11    1
     3    10     8    1
     4    11     9    2
     5     8     7    2
     6     9     7    1
     7     7     6    1
     8     1     6    1
     9     1     2    1
    10     2     4    1
    11     2     3    2
    12     4     5    1
