@<TRIPOS>MOLECULE
/home/cewinharhar/GITHUB/reincatalyze/data/processed/docking_pred/2023-Apr-25-1630_maxeplen5_maxtrainstep200_exh32_gamma099_lrac3e-4_lrcr1e-3/2b611616233e02901686b2fc0a6dd8ec9c570ff2_ligand_2.pdbqt
 12 12 0 0 0
SMALL
GASTEIGER

@<TRIPOS>ATOM
      1  C          5.4750    2.9140    0.0390 C.3     1  UNL1        0.1270
      2  C          6.2780    3.8920    0.8100 C.2     1  UNL1        0.3030
      3  O          6.9300    4.7750    0.2320 O.2     1  UNL1       -0.2520
      4  O          6.3010    3.8190    2.1900 O.3     1  UNL1       -0.4810
      5  H          5.9050    4.5460    2.7790 H       1  UNL1        0.2960
      6  C          4.8880    1.8690    0.9560 C.3     1  UNL1        0.0470
      7  C          5.6700    0.6180    0.9730 C.2     1  UNL1       -0.0470
      8  C          5.7790   -0.2090    2.0610 C.2     1  UNL1        0.0040
      9  C          6.3310    0.2640   -0.1790 C.2     1  UNL1        0.0040
     10  C          6.5340   -1.3630    1.9890 C.2     1  UNL1        0.0000
     11  C          7.0830   -0.8700   -0.2710 C.2     1  UNL1        0.0000
     12  C          7.1920   -1.7030    0.8230 C.2     1  UNL1        0.0000
@<TRIPOS>BOND
     1    11     9    1
     2    11    12    2
     3     9     7    2
     4     1     2    1
     5     1     6    1
     6     3     2    2
     7     2     4    1
     8    12    10    1
     9     6     7    1
    10     7     8    1
    11    10     8    2
    12     4     5    1
