@<TRIPOS>MOLECULE
/home/cewinharhar/GITHUB/reincatalyze/data/processed/docking_pred/2023-Apr-25-1630_maxeplen5_maxtrainstep200_exh32_gamma099_lrac3e-4_lrcr1e-3/2b611616233e02901686b2fc0a6dd8ec9c570ff2_ligand_2.pdbqt
 12 12 0 0 0
SMALL
GASTEIGER

@<TRIPOS>ATOM
      1  C          8.4280   -0.6770   -2.0720 C.3     1  UNL1        0.1270
      2  C          8.4790   -1.9180   -2.8810 C.2     1  UNL1        0.3030
      3  O          9.5560   -2.4970   -3.0900 O.2     1  UNL1       -0.2520
      4  O          7.3120   -2.4370   -3.4080 O.3     1  UNL1       -0.4810
      5  H          7.0140   -2.2440   -4.3600 H       1  UNL1        0.2960
      6  C          7.0500   -0.0670   -2.1230 C.3     1  UNL1        0.0470
      7  C          6.4650    0.1400   -0.7840 C.2     1  UNL1       -0.0470
      8  C          5.8010    1.2760   -0.3990 C.2     1  UNL1        0.0040
      9  C          6.6000   -0.8750    0.1330 C.2     1  UNL1        0.0040
     10  C          5.2860    1.3850    0.8780 C.2     1  UNL1        0.0000
     11  C          6.0990   -0.7870    1.3990 C.2     1  UNL1        0.0000
     12  C          5.4300    0.3540    1.7860 C.2     1  UNL1        0.0000
@<TRIPOS>BOND
     1     5     4    1
     2     4     2    1
     3     3     2    2
     4     2     1    1
     5     6     1    1
     6     6     7    1
     7     7     8    2
     8     7     9    1
     9     8    10    1
    10     9    11    2
    11    10    12    2
    12    11    12    1
