@<TRIPOS>MOLECULE
/home/cewinharhar/GITHUB/reincatalyze/data/processed/docking_pred/2023-Apr-25-1630_maxeplen5_maxtrainstep200_exh32_gamma099_lrac3e-4_lrcr1e-3/2b611616233e02901686b2fc0a6dd8ec9c570ff2_ligand_2.pdbqt
 12 12 0 0 0
SMALL
GASTEIGER

@<TRIPOS>ATOM
      1  C          5.0710    1.7000    0.7130 C.3     1  UNL1        0.1270
      2  C          4.5960    1.0170    1.9400 C.2     1  UNL1        0.3030
      3  O          5.2960    0.1580    2.5000 O.2     1  UNL1       -0.2520
      4  O          3.3600    1.3400    2.4660 O.3     1  UNL1       -0.4810
      5  H          2.9420    0.8170    3.2310 H       1  UNL1        0.2960
      6  C          6.5740    1.8230    0.7230 C.3     1  UNL1        0.0470
      7  C          7.2190    1.0530   -0.3580 C.2     1  UNL1       -0.0470
      8  C          8.5360    1.1810   -0.7180 C.2     1  UNL1        0.0040
      9  C          6.4430    0.1510   -1.0470 C.2     1  UNL1        0.0040
     10  C          9.0570    0.4190   -1.7450 C.2     1  UNL1        0.0000
     11  C          6.9380   -0.6100   -2.0650 C.2     1  UNL1        0.0000
     12  C          8.2620   -0.4830   -2.4260 C.2     1  UNL1        0.0000
@<TRIPOS>BOND
     1    12    11    2
     2    12    10    1
     3    11     9    1
     4    10     8    2
     5     9     7    2
     6     8     7    1
     7     7     6    1
     8     1     6    1
     9     1     2    1
    10     2     4    1
    11     2     3    2
    12     4     5    1
