@<TRIPOS>MOLECULE
/home/cewinharhar/GITHUB/reincatalyze/data/processed/docking_pred/2023-Apr-25-1630_maxeplen5_maxtrainstep200_exh32_gamma099_lrac3e-4_lrcr1e-3/2b611616233e02901686b2fc0a6dd8ec9c570ff2_ligand_2.pdbqt
 12 12 0 0 0
SMALL
GASTEIGER

@<TRIPOS>ATOM
      1  C          8.4700   -0.5900   -2.2170 C.3     1  UNL1        0.1270
      2  C          8.5200   -1.8680   -2.9660 C.2     1  UNL1        0.3030
      3  O          9.5990   -2.4490   -3.1580 O.2     1  UNL1       -0.2520
      4  O          7.3510   -2.4170   -3.4570 O.3     1  UNL1       -0.4810
      5  H          6.6260   -2.7850   -2.8480 H       1  UNL1        0.2960
      6  C          7.0650   -0.0390   -2.2020 C.3     1  UNL1        0.0470
      7  C          6.5090    0.0730   -0.8390 C.2     1  UNL1       -0.0470
      8  C          6.6060   -0.9050    0.1170 C.2     1  UNL1        0.0040
      9  C          5.8510    1.2350   -0.5140 C.2     1  UNL1        0.0040
     10  C          6.0540   -0.7150    1.3690 C.2     1  UNL1        0.0000
     11  C          5.2990    1.4420    0.7160 C.2     1  UNL1        0.0000
     12  C          5.3970    0.4590    1.6780 C.2     1  UNL1        0.0000
@<TRIPOS>BOND
     1     4     2    1
     2     4     5    1
     3     3     2    2
     4     2     1    1
     5     1     6    1
     6     6     7    1
     7     7     9    2
     8     7     8    1
     9     9    11    1
    10     8    10    2
    11    11    12    2
    12    10    12    1
