MODEL 1
REMARK VINA RESULT:      -7.3      0.000      0.000
REMARK SMILES O=C(O)CCc1ccccc1
REMARK SMILES IDX 4 1 2 2 1 3 3 4 5 6 6 7 7 8 11 9 8 10 10 11 9 12
REMARK H PARENT 3 5
REMARK Flexibility Score: inf
ROOT
ATOM      1  C   UNL     1       8.428  -0.677  -2.072  1.00  0.00     0.127 C 
ENDROOT
BRANCH   1   2
ATOM      2  C   UNL     1       8.479  -1.918  -2.881  1.00  0.00     0.303 C 
ATOM      3  O   UNL     1       9.556  -2.497  -3.090  1.00  0.00    -0.252 OA
BRANCH   2   4
ATOM      4  O   UNL     1       7.312  -2.437  -3.408  1.00  0.00    -0.481 OA
ATOM      5  H   UNL     1       7.014  -2.244  -4.360  1.00  0.00     0.296 HD
ENDBRANCH   2   4
ENDBRANCH   1   2
BRANCH   1   6
ATOM      6  C   UNL     1       7.050  -0.067  -2.123  1.00  0.00     0.047 C 
BRANCH   6   7
ATOM      7  C   UNL     1       6.465   0.140  -0.784  1.00  0.00    -0.047 A 
ATOM      8  C   UNL     1       5.801   1.276  -0.399  1.00  0.00     0.004 A 
ATOM      9  C   UNL     1       6.600  -0.875   0.133  1.00  0.00     0.004 A 
ATOM     10  C   UNL     1       5.286   1.385   0.878  1.00  0.00     0.000 A 
ATOM     11  C   UNL     1       6.099  -0.787   1.399  1.00  0.00     0.000 A 
ATOM     12  C   UNL     1       5.430   0.354   1.786  1.00  0.00     0.000 A 
ENDBRANCH   6   7
ENDBRANCH   1   6
TORSDOF 4
ENDMDL
MODEL 2
REMARK VINA RESULT:      -7.3      0.118      1.431
REMARK SMILES O=C(O)CCc1ccccc1
REMARK SMILES IDX 4 1 2 2 1 3 3 4 5 6 6 7 7 8 11 9 8 10 10 11 9 12
REMARK H PARENT 3 5
REMARK Flexibility Score: inf
ROOT
ATOM      1  C   UNL     1       8.470  -0.590  -2.217  1.00  0.00     0.127 C 
ENDROOT
BRANCH   1   2
ATOM      2  C   UNL     1       8.520  -1.868  -2.966  1.00  0.00     0.303 C 
ATOM      3  O   UNL     1       9.599  -2.449  -3.158  1.00  0.00    -0.252 OA
BRANCH   2   4
ATOM      4  O   UNL     1       7.351  -2.417  -3.457  1.00  0.00    -0.481 OA
ATOM      5  H   UNL     1       6.626  -2.785  -2.848  1.00  0.00     0.296 HD
ENDBRANCH   2   4
ENDBRANCH   1   2
BRANCH   1   6
ATOM      6  C   UNL     1       7.065  -0.039  -2.202  1.00  0.00     0.047 C 
BRANCH   6   7
ATOM      7  C   UNL     1       6.509   0.073  -0.839  1.00  0.00    -0.047 A 
ATOM      8  C   UNL     1       6.606  -0.905   0.117  1.00  0.00     0.004 A 
ATOM      9  C   UNL     1       5.851   1.235  -0.514  1.00  0.00     0.004 A 
ATOM     10  C   UNL     1       6.054  -0.715   1.369  1.00  0.00     0.000 A 
ATOM     11  C   UNL     1       5.299   1.442   0.716  1.00  0.00     0.000 A 
ATOM     12  C   UNL     1       5.397   0.459   1.678  1.00  0.00     0.000 A 
ENDBRANCH   6   7
ENDBRANCH   1   6
TORSDOF 4
ENDMDL
MODEL 3
REMARK VINA RESULT:      -6.8      3.367      5.080
REMARK SMILES O=C(O)CCc1ccccc1
REMARK SMILES IDX 4 1 2 2 1 3 3 4 5 6 6 7 7 8 11 9 8 10 10 11 9 12
REMARK H PARENT 3 5
REMARK Flexibility Score: inf
ROOT
ATOM      1  C   UNL     1       4.992   1.773   0.719  1.00  0.00     0.127 C 
ENDROOT
BRANCH   1   2
ATOM      2  C   UNL     1       4.482   1.089   1.932  1.00  0.00     0.303 C 
ATOM      3  O   UNL     1       5.142   0.193   2.480  1.00  0.00    -0.252 OA
BRANCH   2   4
ATOM      4  O   UNL     1       3.258   1.455   2.458  1.00  0.00    -0.481 OA
ATOM      5  H   UNL     1       2.576   0.770   2.773  1.00  0.00     0.296 HD
ENDBRANCH   2   4
ENDBRANCH   1   2
BRANCH   1   6
ATOM      6  C   UNL     1       6.500   1.811   0.727  1.00  0.00     0.047 C 
BRANCH   6   7
ATOM      7  C   UNL     1       7.098   1.008  -0.357  1.00  0.00    -0.047 A 
ATOM      8  C   UNL     1       6.418   0.065  -1.085  1.00  0.00     0.004 A 
ATOM      9  C   UNL     1       8.423   1.221  -0.651  1.00  0.00     0.004 A 
ATOM     10  C   UNL     1       7.059  -0.643  -2.083  1.00  0.00     0.000 A 
ATOM     11  C   UNL     1       9.074   0.533  -1.632  1.00  0.00     0.000 A 
ATOM     12  C   UNL     1       8.391  -0.415  -2.364  1.00  0.00     0.000 A 
ENDBRANCH   6   7
ENDBRANCH   1   6
TORSDOF 4
ENDMDL
MODEL 4
REMARK VINA RESULT:      -6.7      3.336      5.020
REMARK SMILES O=C(O)CCc1ccccc1
REMARK SMILES IDX 4 1 2 2 1 3 3 4 5 6 6 7 7 8 11 9 8 10 10 11 9 12
REMARK H PARENT 3 5
REMARK Flexibility Score: inf
ROOT
ATOM      1  C   UNL     1       5.071   1.700   0.713  1.00  0.00     0.127 C 
ENDROOT
BRANCH   1   2
ATOM      2  C   UNL     1       4.596   1.017   1.940  1.00  0.00     0.303 C 
ATOM      3  O   UNL     1       5.296   0.158   2.500  1.00  0.00    -0.252 OA
BRANCH   2   4
ATOM      4  O   UNL     1       3.360   1.340   2.466  1.00  0.00    -0.481 OA
ATOM      5  H   UNL     1       2.942   0.817   3.231  1.00  0.00     0.296 HD
ENDBRANCH   2   4
ENDBRANCH   1   2
BRANCH   1   6
ATOM      6  C   UNL     1       6.574   1.823   0.723  1.00  0.00     0.047 C 
BRANCH   6   7
ATOM      7  C   UNL     1       7.219   1.053  -0.358  1.00  0.00    -0.047 A 
ATOM      8  C   UNL     1       8.536   1.181  -0.718  1.00  0.00     0.004 A 
ATOM      9  C   UNL     1       6.443   0.151  -1.047  1.00  0.00     0.004 A 
ATOM     10  C   UNL     1       9.057   0.419  -1.745  1.00  0.00     0.000 A 
ATOM     11  C   UNL     1       6.938  -0.610  -2.065  1.00  0.00     0.000 A 
ATOM     12  C   UNL     1       8.262  -0.483  -2.426  1.00  0.00     0.000 A 
ENDBRANCH   6   7
ENDBRANCH   1   6
TORSDOF 4
ENDMDL
MODEL 5
REMARK VINA RESULT:      -6.7      3.804      4.996
REMARK SMILES O=C(O)CCc1ccccc1
REMARK SMILES IDX 4 1 2 2 1 3 3 4 5 6 6 7 7 8 11 9 8 10 10 11 9 12
REMARK H PARENT 3 5
REMARK Flexibility Score: inf
ROOT
ATOM      1  C   UNL     1       5.475   2.914   0.039  1.00  0.00     0.127 C 
ENDROOT
BRANCH   1   2
ATOM      2  C   UNL     1       6.278   3.892   0.810  1.00  0.00     0.303 C 
ATOM      3  O   UNL     1       6.930   4.775   0.232  1.00  0.00    -0.252 OA
BRANCH   2   4
ATOM      4  O   UNL     1       6.301   3.819   2.190  1.00  0.00    -0.481 OA
ATOM      5  H   UNL     1       5.905   4.546   2.779  1.00  0.00     0.296 HD
ENDBRANCH   2   4
ENDBRANCH   1   2
BRANCH   1   6
ATOM      6  C   UNL     1       4.888   1.869   0.956  1.00  0.00     0.047 C 
BRANCH   6   7
ATOM      7  C   UNL     1       5.670   0.618   0.973  1.00  0.00    -0.047 A 
ATOM      8  C   UNL     1       5.779  -0.209   2.061  1.00  0.00     0.004 A 
ATOM      9  C   UNL     1       6.331   0.264  -0.179  1.00  0.00     0.004 A 
ATOM     10  C   UNL     1       6.534  -1.363   1.989  1.00  0.00     0.000 A 
ATOM     11  C   UNL     1       7.083  -0.870  -0.271  1.00  0.00     0.000 A 
ATOM     12  C   UNL     1       7.192  -1.703   0.823  1.00  0.00     0.000 A 
ENDBRANCH   6   7
ENDBRANCH   1   6
TORSDOF 4
ENDMDL
