@<TRIPOS>MOLECULE
/home/cewinharhar/GITHUB/reincatalyze/data/processed/docking_pred/2023-Apr-25-1630_maxeplen5_maxtrainstep200_exh32_gamma099_lrac3e-4_lrcr1e-3/2cf69de7cf34ef354308742c6722c88054a527ce_ligand_2.pdbqt
 12 12 0 0 0
SMALL
GASTEIGER

@<TRIPOS>ATOM
      1  C          8.2770    0.3100   -2.1170 C.3     1  UNL1        0.1270
      2  C          9.4190    0.3710   -1.1730 C.2     1  UNL1        0.3030
      3  O          9.4740   -0.3890   -0.1940 O.2     1  UNL1       -0.2520
      4  O         10.4330    1.2850   -1.3870 O.3     1  UNL1       -0.4810
      5  H         10.4110    1.9510   -2.1530 H       1  UNL1        0.2960
      6  C          7.1590   -0.5230   -1.5430 C.3     1  UNL1        0.0470
      7  C          6.3670    0.2020   -0.5300 C.2     1  UNL1       -0.0470
      8  C          6.1360   -0.2550    0.7420 C.2     1  UNL1        0.0040
      9  C          5.8270    1.4140   -0.8910 C.2     1  UNL1        0.0040
     10  C          5.3810    0.4900    1.6260 C.2     1  UNL1        0.0000
     11  C          5.0780    2.1640   -0.0330 C.2     1  UNL1        0.0000
     12  C          4.8470    1.7050    1.2460 C.2     1  UNL1        0.0000
@<TRIPOS>BOND
     1     5     4    1
     2     1     6    1
     3     1     2    1
     4     6     7    1
     5     4     2    1
     6     2     3    2
     7     9     7    2
     8     9    11    1
     9     7     8    1
    10    11    12    2
    11     8    10    2
    12    12    10    1
