@<TRIPOS>MOLECULE
/home/cewinharhar/GITHUB/reincatalyze/data/processed/docking_pred/2023-Apr-25-1630_maxeplen5_maxtrainstep200_exh32_gamma099_lrac3e-4_lrcr1e-3/2cf69de7cf34ef354308742c6722c88054a527ce_ligand_2.pdbqt
 12 12 0 0 0
SMALL
GASTEIGER

@<TRIPOS>ATOM
      1  C          7.8140   -0.7860   -2.1430 C.3     1  UNL1        0.1270
      2  C          8.1680   -1.9430   -2.9990 C.2     1  UNL1        0.3030
      3  O          9.3410   -2.3410   -3.0770 O.2     1  UNL1       -0.2520
      4  O          7.1800   -2.5870   -3.7190 O.3     1  UNL1       -0.4810
      5  H          7.1070   -2.5100   -4.7290 H       1  UNL1        0.2960
      6  C          7.3190   -1.2540   -0.7970 C.3     1  UNL1        0.0470
      7  C          6.4900   -0.2450   -0.1100 C.2     1  UNL1       -0.0470
      8  C          6.0330   -0.3680    1.1770 C.2     1  UNL1        0.0040
      9  C          6.1550    0.8890   -0.8110 C.2     1  UNL1        0.0040
     10  C          5.2590    0.6280    1.7420 C.2     1  UNL1        0.0000
     11  C          5.3930    1.8830   -0.2720 C.2     1  UNL1        0.0000
     12  C          4.9340    1.7600    1.0220 C.2     1  UNL1        0.0000
@<TRIPOS>BOND
     1     5     4    1
     2     4     2    1
     3     3     2    2
     4     2     1    1
     5     1     6    1
     6     9    11    1
     7     9     7    2
     8     6     7    1
     9    11    12    2
    10     7     8    1
    11    12    10    1
    12     8    10    2
