@<TRIPOS>MOLECULE
/home/cewinharhar/GITHUB/reincatalyze/data/processed/docking_pred/2023-Apr-25-1630_maxeplen5_maxtrainstep200_exh32_gamma099_lrac3e-4_lrcr1e-3/2cf69de7cf34ef354308742c6722c88054a527ce_ligand_2.pdbqt
 12 12 0 0 0
SMALL
GASTEIGER

@<TRIPOS>ATOM
      1  C          5.0070    1.7660    0.7080 C.3     1  UNL1        0.1270
      2  C          4.4920    1.0910    1.9230 C.2     1  UNL1        0.3030
      3  O          5.1480    0.1950    2.4780 O.2     1  UNL1       -0.2520
      4  O          3.2680    1.4630    2.4440 O.3     1  UNL1       -0.4810
      5  H          2.8660    2.3820    2.2840 H       1  UNL1        0.2960
      6  C          6.5100    1.8720    0.7580 C.3     1  UNL1        0.0470
      7  C          7.1730    1.1150   -0.3220 C.2     1  UNL1       -0.0470
      8  C          8.5020    1.2300   -0.6420 C.2     1  UNL1        0.0040
      9  C          6.4040    0.2400   -1.0510 C.2     1  UNL1        0.0040
     10  C          9.0400    0.4820   -1.6710 C.2     1  UNL1        0.0000
     11  C          6.9160   -0.5080   -2.0710 C.2     1  UNL1        0.0000
     12  C          8.2520   -0.3930   -2.3920 C.2     1  UNL1        0.0000
@<TRIPOS>BOND
     1    12    11    2
     2    12    10    1
     3    11     9    1
     4    10     8    2
     5     9     7    2
     6     8     7    1
     7     7     6    1
     8     1     6    1
     9     1     2    1
    10     2     4    1
    11     2     3    2
    12     5     4    1
