@<TRIPOS>MOLECULE
/home/cewinharhar/GITHUB/reincatalyze/data/processed/docking_pred/2023-Apr-25-1630_maxeplen5_maxtrainstep200_exh32_gamma099_lrac3e-4_lrcr1e-3/2cf69de7cf34ef354308742c6722c88054a527ce_ligand_2.pdbqt
 12 12 0 0 0
SMALL
GASTEIGER

@<TRIPOS>ATOM
      1  C          8.4330   -0.6930   -2.0670 C.3     1  UNL1        0.1270
      2  C          8.4840   -1.9270   -2.8870 C.2     1  UNL1        0.3030
      3  O          9.5630   -2.4970   -3.1120 O.2     1  UNL1       -0.2520
      4  O          7.3150   -2.4490   -3.4060 O.3     1  UNL1       -0.4810
      5  H          7.3130   -3.1540   -4.1380 H       1  UNL1        0.2960
      6  C          7.0630   -0.0660   -2.1370 C.3     1  UNL1        0.0470
      7  C          6.4680    0.1580   -0.8060 C.2     1  UNL1       -0.0470
      8  C          5.7920    1.2950   -0.4430 C.2     1  UNL1        0.0040
      9  C          6.6030   -0.8410    0.1290 C.2     1  UNL1        0.0040
     10  C          5.2670    1.4210    0.8280 C.2     1  UNL1        0.0000
     11  C          6.0930   -0.7360    1.3890 C.2     1  UNL1        0.0000
     12  C          5.4130    0.4070    1.7540 C.2     1  UNL1        0.0000
@<TRIPOS>BOND
     1     5     4    1
     2     4     2    1
     3     3     2    2
     4     2     1    1
     5     6     1    1
     6     6     7    1
     7     7     8    2
     8     7     9    1
     9     8    10    1
    10     9    11    2
    11    10    12    2
    12    11    12    1
