MODEL 1
REMARK VINA RESULT:      -7.4      0.000      0.000
REMARK SMILES O=C(O)CCc1ccccc1
REMARK SMILES IDX 4 1 2 2 1 3 3 4 5 6 6 7 7 8 11 9 8 10 10 11 9 12
REMARK H PARENT 3 5
REMARK Flexibility Score: inf
ROOT
ATOM      1  C   UNL     1       8.433  -0.693  -2.067  1.00  0.00     0.127 C 
ENDROOT
BRANCH   1   2
ATOM      2  C   UNL     1       8.484  -1.927  -2.887  1.00  0.00     0.303 C 
ATOM      3  O   UNL     1       9.563  -2.497  -3.112  1.00  0.00    -0.252 OA
BRANCH   2   4
ATOM      4  O   UNL     1       7.315  -2.449  -3.406  1.00  0.00    -0.481 OA
ATOM      5  H   UNL     1       7.313  -3.154  -4.138  1.00  0.00     0.296 HD
ENDBRANCH   2   4
ENDBRANCH   1   2
BRANCH   1   6
ATOM      6  C   UNL     1       7.063  -0.066  -2.137  1.00  0.00     0.047 C 
BRANCH   6   7
ATOM      7  C   UNL     1       6.468   0.158  -0.806  1.00  0.00    -0.047 A 
ATOM      8  C   UNL     1       5.792   1.295  -0.443  1.00  0.00     0.004 A 
ATOM      9  C   UNL     1       6.603  -0.841   0.129  1.00  0.00     0.004 A 
ATOM     10  C   UNL     1       5.267   1.421   0.828  1.00  0.00     0.000 A 
ATOM     11  C   UNL     1       6.093  -0.736   1.389  1.00  0.00     0.000 A 
ATOM     12  C   UNL     1       5.413   0.407   1.754  1.00  0.00     0.000 A 
ENDBRANCH   6   7
ENDBRANCH   1   6
TORSDOF 4
ENDMDL
MODEL 2
REMARK VINA RESULT:      -7.3      0.107      1.430
REMARK SMILES O=C(O)CCc1ccccc1
REMARK SMILES IDX 4 1 2 2 1 3 3 4 5 6 6 7 7 8 11 9 8 10 10 11 9 12
REMARK H PARENT 3 5
REMARK Flexibility Score: inf
ROOT
ATOM      1  C   UNL     1       8.426  -0.616  -2.177  1.00  0.00     0.127 C 
ENDROOT
BRANCH   1   2
ATOM      2  C   UNL     1       8.482  -1.903  -2.909  1.00  0.00     0.303 C 
ATOM      3  O   UNL     1       9.563  -2.483  -3.092  1.00  0.00    -0.252 OA
BRANCH   2   4
ATOM      4  O   UNL     1       7.316  -2.463  -3.394  1.00  0.00    -0.481 OA
ATOM      5  H   UNL     1       7.204  -2.725  -4.369  1.00  0.00     0.296 HD
ENDBRANCH   2   4
ENDBRANCH   1   2
BRANCH   1   6
ATOM      6  C   UNL     1       7.011  -0.095  -2.127  1.00  0.00     0.047 C 
BRANCH   6   7
ATOM      7  C   UNL     1       6.485   0.002  -0.752  1.00  0.00    -0.047 A 
ATOM      8  C   UNL     1       6.580  -0.996   0.183  1.00  0.00     0.004 A 
ATOM      9  C   UNL     1       5.858   1.171  -0.391  1.00  0.00     0.004 A 
ATOM     10  C   UNL     1       6.057  -0.819   1.450  1.00  0.00     0.000 A 
ATOM     11  C   UNL     1       5.334   1.365   0.853  1.00  0.00     0.000 A 
ATOM     12  C   UNL     1       5.431   0.362   1.794  1.00  0.00     0.000 A 
ENDBRANCH   6   7
ENDBRANCH   1   6
TORSDOF 4
ENDMDL
MODEL 3
REMARK VINA RESULT:      -7.1      0.616      1.605
REMARK SMILES O=C(O)CCc1ccccc1
REMARK SMILES IDX 4 1 2 2 1 3 3 4 5 6 6 7 7 8 11 9 8 10 10 11 9 12
REMARK H PARENT 3 5
REMARK Flexibility Score: inf
ROOT
ATOM      1  C   UNL     1       7.814  -0.786  -2.143  1.00  0.00     0.127 C 
ENDROOT
BRANCH   1   2
ATOM      2  C   UNL     1       8.168  -1.943  -2.999  1.00  0.00     0.303 C 
ATOM      3  O   UNL     1       9.341  -2.341  -3.077  1.00  0.00    -0.252 OA
BRANCH   2   4
ATOM      4  O   UNL     1       7.180  -2.587  -3.719  1.00  0.00    -0.481 OA
ATOM      5  H   UNL     1       7.107  -2.510  -4.729  1.00  0.00     0.296 HD
ENDBRANCH   2   4
ENDBRANCH   1   2
BRANCH   1   6
ATOM      6  C   UNL     1       7.319  -1.254  -0.797  1.00  0.00     0.047 C 
BRANCH   6   7
ATOM      7  C   UNL     1       6.490  -0.245  -0.110  1.00  0.00    -0.047 A 
ATOM      8  C   UNL     1       6.033  -0.368   1.177  1.00  0.00     0.004 A 
ATOM      9  C   UNL     1       6.155   0.889  -0.811  1.00  0.00     0.004 A 
ATOM     10  C   UNL     1       5.259   0.628   1.742  1.00  0.00     0.000 A 
ATOM     11  C   UNL     1       5.393   1.883  -0.272  1.00  0.00     0.000 A 
ATOM     12  C   UNL     1       4.934   1.760   1.022  1.00  0.00     0.000 A 
ENDBRANCH   6   7
ENDBRANCH   1   6
TORSDOF 4
ENDMDL
MODEL 4
REMARK VINA RESULT:      -6.8      3.370      5.059
REMARK SMILES O=C(O)CCc1ccccc1
REMARK SMILES IDX 4 1 2 2 1 3 3 4 5 6 6 7 7 8 11 9 8 10 10 11 9 12
REMARK H PARENT 3 5
REMARK Flexibility Score: inf
ROOT
ATOM      1  C   UNL     1       5.007   1.766   0.708  1.00  0.00     0.127 C 
ENDROOT
BRANCH   1   2
ATOM      2  C   UNL     1       4.492   1.091   1.923  1.00  0.00     0.303 C 
ATOM      3  O   UNL     1       5.148   0.195   2.478  1.00  0.00    -0.252 OA
BRANCH   2   4
ATOM      4  O   UNL     1       3.268   1.463   2.444  1.00  0.00    -0.481 OA
ATOM      5  H   UNL     1       2.866   2.382   2.284  1.00  0.00     0.296 HD
ENDBRANCH   2   4
ENDBRANCH   1   2
BRANCH   1   6
ATOM      6  C   UNL     1       6.510   1.872   0.758  1.00  0.00     0.047 C 
BRANCH   6   7
ATOM      7  C   UNL     1       7.173   1.115  -0.322  1.00  0.00    -0.047 A 
ATOM      8  C   UNL     1       8.502   1.230  -0.642  1.00  0.00     0.004 A 
ATOM      9  C   UNL     1       6.404   0.240  -1.051  1.00  0.00     0.004 A 
ATOM     10  C   UNL     1       9.040   0.482  -1.671  1.00  0.00     0.000 A 
ATOM     11  C   UNL     1       6.916  -0.508  -2.071  1.00  0.00     0.000 A 
ATOM     12  C   UNL     1       8.252  -0.393  -2.392  1.00  0.00     0.000 A 
ENDBRANCH   6   7
ENDBRANCH   1   6
TORSDOF 4
ENDMDL
MODEL 5
REMARK VINA RESULT:      -6.7      1.946      2.652
REMARK SMILES O=C(O)CCc1ccccc1
REMARK SMILES IDX 4 1 2 2 1 3 3 4 5 6 6 7 7 8 11 9 8 10 10 11 9 12
REMARK H PARENT 3 5
REMARK Flexibility Score: inf
ROOT
ATOM      1  C   UNL     1       8.277   0.310  -2.117  1.00  0.00     0.127 C 
ENDROOT
BRANCH   1   2
ATOM      2  C   UNL     1       9.419   0.371  -1.173  1.00  0.00     0.303 C 
ATOM      3  O   UNL     1       9.474  -0.389  -0.194  1.00  0.00    -0.252 OA
BRANCH   2   4
ATOM      4  O   UNL     1      10.433   1.285  -1.387  1.00  0.00    -0.481 OA
ATOM      5  H   UNL     1      10.411   1.951  -2.153  1.00  0.00     0.296 HD
ENDBRANCH   2   4
ENDBRANCH   1   2
BRANCH   1   6
ATOM      6  C   UNL     1       7.159  -0.523  -1.543  1.00  0.00     0.047 C 
BRANCH   6   7
ATOM      7  C   UNL     1       6.367   0.202  -0.530  1.00  0.00    -0.047 A 
ATOM      8  C   UNL     1       6.136  -0.255   0.742  1.00  0.00     0.004 A 
ATOM      9  C   UNL     1       5.827   1.414  -0.891  1.00  0.00     0.004 A 
ATOM     10  C   UNL     1       5.381   0.490   1.626  1.00  0.00     0.000 A 
ATOM     11  C   UNL     1       5.078   2.164  -0.033  1.00  0.00     0.000 A 
ATOM     12  C   UNL     1       4.847   1.705   1.246  1.00  0.00     0.000 A 
ENDBRANCH   6   7
ENDBRANCH   1   6
TORSDOF 4
ENDMDL
