@<TRIPOS>MOLECULE
/home/cewinharhar/GITHUB/reincatalyze/data/processed/docking_pred/2023-Apr-25-1630_maxeplen5_maxtrainstep200_exh32_gamma099_lrac3e-4_lrcr1e-3/2cf69de7cf34ef354308742c6722c88054a527ce_ligand_2.pdbqt
 12 12 0 0 0
SMALL
GASTEIGER

@<TRIPOS>ATOM
      1  C          8.4260   -0.6160   -2.1770 C.3     1  UNL1        0.1270
      2  C          8.4820   -1.9030   -2.9090 C.2     1  UNL1        0.3030
      3  O          9.5630   -2.4830   -3.0920 O.2     1  UNL1       -0.2520
      4  O          7.3160   -2.4630   -3.3940 O.3     1  UNL1       -0.4810
      5  H          7.2040   -2.7250   -4.3690 H       1  UNL1        0.2960
      6  C          7.0110   -0.0950   -2.1270 C.3     1  UNL1        0.0470
      7  C          6.4850    0.0020   -0.7520 C.2     1  UNL1       -0.0470
      8  C          6.5800   -0.9960    0.1830 C.2     1  UNL1        0.0040
      9  C          5.8580    1.1710   -0.3910 C.2     1  UNL1        0.0040
     10  C          6.0570   -0.8190    1.4500 C.2     1  UNL1        0.0000
     11  C          5.3340    1.3650    0.8530 C.2     1  UNL1        0.0000
     12  C          5.4310    0.3620    1.7940 C.2     1  UNL1        0.0000
@<TRIPOS>BOND
     1     5     4    1
     2     4     2    1
     3     3     2    2
     4     2     1    1
     5     1     6    1
     6     6     7    1
     7     7     9    2
     8     7     8    1
     9     9    11    1
    10     8    10    2
    11    11    12    2
    12    10    12    1
