@<TRIPOS>MOLECULE
/home/cewinharhar/GITHUB/reincatalyze/data/processed/docking_pred/2023-Apr-25-1630_maxeplen5_maxtrainstep200_exh32_gamma099_lrac3e-4_lrcr1e-3/2d863d4e78c56822cb27942f8f89755da93ab859_ligand_2.pdbqt
 12 12 0 0 0
SMALL
GASTEIGER

@<TRIPOS>ATOM
      1  C          8.1990    0.2820   -2.0410 C.3     1  UNL1        0.1270
      2  C          9.3840    0.3860   -1.1570 C.2     1  UNL1        0.3030
      3  O          9.5140   -0.3640   -0.1770 O.2     1  UNL1       -0.2520
      4  O         10.3570    1.3290   -1.4280 O.3     1  UNL1       -0.4810
      5  H         10.8400    1.3710   -2.3210 H       1  UNL1        0.2960
      6  C          7.1370   -0.5800   -1.4050 C.3     1  UNL1        0.0470
      7  C          6.3350    0.1470   -0.4020 C.2     1  UNL1       -0.0470
      8  C          5.7760    1.3820   -0.6090 C.2     1  UNL1        0.0040
      9  C          6.1400   -0.4570    0.8170 C.2     1  UNL1        0.0040
     10  C          5.0390    1.9910    0.3890 C.2     1  UNL1        0.0000
     11  C          5.4170    0.1270    1.8150 C.2     1  UNL1        0.0000
     12  C          4.8540    1.3690    1.6070 C.2     1  UNL1        0.0000
@<TRIPOS>BOND
     1     5     4    1
     2     1     6    1
     3     1     2    1
     4     4     2    1
     5     6     7    1
     6     2     3    2
     7     8     7    2
     8     8    10    1
     9     7     9    1
    10    10    12    2
    11     9    11    2
    12    12    11    1
