@<TRIPOS>MOLECULE
/home/cewinharhar/GITHUB/reincatalyze/data/processed/docking_pred/2023-Apr-25-1630_maxeplen5_maxtrainstep200_exh32_gamma099_lrac3e-4_lrcr1e-3/2d863d4e78c56822cb27942f8f89755da93ab859_ligand_2.pdbqt
 12 12 0 0 0
SMALL
GASTEIGER

@<TRIPOS>ATOM
      1  C          8.4580   -0.6120   -2.2040 C.3     1  UNL1        0.1270
      2  C          8.4940   -1.9060   -2.9250 C.2     1  UNL1        0.3030
      3  O          9.5660   -2.5080   -3.0950 O.2     1  UNL1       -0.2520
      4  O          7.3210   -2.4480   -3.4140 O.3     1  UNL1       -0.4810
      5  H          7.2300   -3.4360   -3.6330 H       1  UNL1        0.2960
      6  C          7.0520   -0.0670   -2.1640 C.3     1  UNL1        0.0470
      7  C          6.5140    0.0320   -0.7940 C.2     1  UNL1       -0.0470
      8  C          6.6170   -0.9590    0.1490 C.2     1  UNL1        0.0040
      9  C          5.8670    1.1930   -0.4450 C.2     1  UNL1        0.0040
     10  C          6.0820   -0.7810    1.4100 C.2     1  UNL1        0.0000
     11  C          5.3320    1.3880    0.7940 C.2     1  UNL1        0.0000
     12  C          5.4360    0.3930    1.7420 C.2     1  UNL1        0.0000
@<TRIPOS>BOND
     1     5     4    1
     2     4     2    1
     3     3     2    2
     4     2     1    1
     5     1     6    1
     6     6     7    1
     7     7     9    2
     8     7     8    1
     9     9    11    1
    10     8    10    2
    11    11    12    2
    12    10    12    1
