@<TRIPOS>MOLECULE
/home/cewinharhar/GITHUB/reincatalyze/data/processed/docking_pred/2023-Apr-25-1630_maxeplen5_maxtrainstep200_exh32_gamma099_lrac3e-4_lrcr1e-3/2d863d4e78c56822cb27942f8f89755da93ab859_ligand_2.pdbqt
 12 12 0 0 0
SMALL
GASTEIGER

@<TRIPOS>ATOM
      1  C          8.2580   -1.0300   -1.7420 C.3     1  UNL1        0.1270
      2  C          8.4030   -2.0460   -2.8110 C.2     1  UNL1        0.3030
      3  O          9.5190   -2.4940   -3.1160 O.2     1  UNL1       -0.2520
      4  O          7.2810   -2.5000   -3.4770 O.3     1  UNL1       -0.4810
      5  H          6.7940   -1.9360   -4.1690 H       1  UNL1        0.2960
      6  C          7.3030   -1.5120   -0.6790 C.3     1  UNL1        0.0470
      7  C          6.5170   -0.4180   -0.0770 C.2     1  UNL1       -0.0470
      8  C          6.0280   -0.4320    1.2040 C.2     1  UNL1        0.0040
      9  C          6.2600    0.6850   -0.8560 C.2     1  UNL1        0.0040
     10  C          5.2990    0.6370    1.6860 C.2     1  UNL1        0.0000
     11  C          5.5420    1.7510   -0.3990 C.2     1  UNL1        0.0000
     12  C          5.0510    1.7370    0.8890 C.2     1  UNL1        0.0000
@<TRIPOS>BOND
     1     5     4    1
     2     4     2    1
     3     3     2    2
     4     2     1    1
     5     1     6    1
     6     9    11    1
     7     9     7    2
     8     6     7    1
     9    11    12    2
    10     7     8    1
    11    12    10    1
    12     8    10    2
