MODEL 1
REMARK VINA RESULT:      -7.3      0.000      0.000
REMARK SMILES O=C(O)CCc1ccccc1
REMARK SMILES IDX 4 1 2 2 1 3 3 4 5 6 6 7 7 8 11 9 8 10 10 11 9 12
REMARK H PARENT 3 5
REMARK Flexibility Score: inf
ROOT
ATOM      1  C   UNL     1       8.411  -0.679  -2.085  1.00  0.00     0.127 C 
ENDROOT
BRANCH   1   2
ATOM      2  C   UNL     1       8.465  -1.919  -2.895  1.00  0.00     0.303 C 
ATOM      3  O   UNL     1       9.544  -2.497  -3.101  1.00  0.00    -0.252 OA
BRANCH   2   4
ATOM      4  O   UNL     1       7.301  -2.437  -3.428  1.00  0.00    -0.481 OA
ATOM      5  H   UNL     1       6.499  -2.678  -2.852  1.00  0.00     0.296 HD
ENDBRANCH   2   4
ENDBRANCH   1   2
BRANCH   1   6
ATOM      6  C   UNL     1       7.024  -0.088  -2.112  1.00  0.00     0.047 C 
BRANCH   6   7
ATOM      7  C   UNL     1       6.457   0.105  -0.764  1.00  0.00    -0.047 A 
ATOM      8  C   UNL     1       5.807   1.241  -0.355  1.00  0.00     0.004 A 
ATOM      9  C   UNL     1       6.593  -0.924   0.138  1.00  0.00     0.004 A 
ATOM     10  C   UNL     1       5.307   1.336   0.930  1.00  0.00     0.000 A 
ATOM     11  C   UNL     1       6.107  -0.849   1.410  1.00  0.00     0.000 A 
ATOM     12  C   UNL     1       5.453   0.292   1.821  1.00  0.00     0.000 A 
ENDBRANCH   6   7
ENDBRANCH   1   6
TORSDOF 4
ENDMDL
MODEL 2
REMARK VINA RESULT:      -7.3      0.094      1.429
REMARK SMILES O=C(O)CCc1ccccc1
REMARK SMILES IDX 4 1 2 2 1 3 3 4 5 6 6 7 7 8 11 9 8 10 10 11 9 12
REMARK H PARENT 3 5
REMARK Flexibility Score: inf
ROOT
ATOM      1  C   UNL     1       8.458  -0.612  -2.204  1.00  0.00     0.127 C 
ENDROOT
BRANCH   1   2
ATOM      2  C   UNL     1       8.494  -1.906  -2.925  1.00  0.00     0.303 C 
ATOM      3  O   UNL     1       9.566  -2.508  -3.095  1.00  0.00    -0.252 OA
BRANCH   2   4
ATOM      4  O   UNL     1       7.321  -2.448  -3.414  1.00  0.00    -0.481 OA
ATOM      5  H   UNL     1       7.230  -3.436  -3.633  1.00  0.00     0.296 HD
ENDBRANCH   2   4
ENDBRANCH   1   2
BRANCH   1   6
ATOM      6  C   UNL     1       7.052  -0.067  -2.164  1.00  0.00     0.047 C 
BRANCH   6   7
ATOM      7  C   UNL     1       6.514   0.032  -0.794  1.00  0.00    -0.047 A 
ATOM      8  C   UNL     1       6.617  -0.959   0.149  1.00  0.00     0.004 A 
ATOM      9  C   UNL     1       5.867   1.193  -0.445  1.00  0.00     0.004 A 
ATOM     10  C   UNL     1       6.082  -0.781   1.410  1.00  0.00     0.000 A 
ATOM     11  C   UNL     1       5.332   1.388   0.794  1.00  0.00     0.000 A 
ATOM     12  C   UNL     1       5.436   0.393   1.742  1.00  0.00     0.000 A 
ENDBRANCH   6   7
ENDBRANCH   1   6
TORSDOF 4
ENDMDL
MODEL 3
REMARK VINA RESULT:      -7.2      0.638      1.616
REMARK SMILES O=C(O)CCc1ccccc1
REMARK SMILES IDX 4 1 2 2 1 3 3 4 5 6 6 7 7 8 11 9 8 10 10 11 9 12
REMARK H PARENT 3 5
REMARK Flexibility Score: inf
ROOT
ATOM      1  C   UNL     1       8.258  -1.030  -1.742  1.00  0.00     0.127 C 
ENDROOT
BRANCH   1   2
ATOM      2  C   UNL     1       8.403  -2.046  -2.811  1.00  0.00     0.303 C 
ATOM      3  O   UNL     1       9.519  -2.494  -3.116  1.00  0.00    -0.252 OA
BRANCH   2   4
ATOM      4  O   UNL     1       7.281  -2.500  -3.477  1.00  0.00    -0.481 OA
ATOM      5  H   UNL     1       6.794  -1.936  -4.169  1.00  0.00     0.296 HD
ENDBRANCH   2   4
ENDBRANCH   1   2
BRANCH   1   6
ATOM      6  C   UNL     1       7.303  -1.512  -0.679  1.00  0.00     0.047 C 
BRANCH   6   7
ATOM      7  C   UNL     1       6.517  -0.418  -0.077  1.00  0.00    -0.047 A 
ATOM      8  C   UNL     1       6.028  -0.432   1.204  1.00  0.00     0.004 A 
ATOM      9  C   UNL     1       6.260   0.685  -0.856  1.00  0.00     0.004 A 
ATOM     10  C   UNL     1       5.299   0.637   1.686  1.00  0.00     0.000 A 
ATOM     11  C   UNL     1       5.542   1.751  -0.399  1.00  0.00     0.000 A 
ATOM     12  C   UNL     1       5.051   1.737   0.889  1.00  0.00     0.000 A 
ENDBRANCH   6   7
ENDBRANCH   1   6
TORSDOF 4
ENDMDL
MODEL 4
REMARK VINA RESULT:      -6.8      3.379      5.060
REMARK SMILES O=C(O)CCc1ccccc1
REMARK SMILES IDX 4 1 2 2 1 3 3 4 5 6 6 7 7 8 11 9 8 10 10 11 9 12
REMARK H PARENT 3 5
REMARK Flexibility Score: inf
ROOT
ATOM      1  C   UNL     1       4.988   1.785   0.707  1.00  0.00     0.127 C 
ENDROOT
BRANCH   1   2
ATOM      2  C   UNL     1       4.488   1.096   1.921  1.00  0.00     0.303 C 
ATOM      3  O   UNL     1       5.155   0.203   2.464  1.00  0.00    -0.252 OA
BRANCH   2   4
ATOM      4  O   UNL     1       3.264   1.453   2.453  1.00  0.00    -0.481 OA
ATOM      5  H   UNL     1       2.858   2.374   2.311  1.00  0.00     0.296 HD
ENDBRANCH   2   4
ENDBRANCH   1   2
BRANCH   1   6
ATOM      6  C   UNL     1       6.491   1.907   0.748  1.00  0.00     0.047 C 
BRANCH   6   7
ATOM      7  C   UNL     1       7.156   1.139  -0.322  1.00  0.00    -0.047 A 
ATOM      8  C   UNL     1       8.491   1.230  -0.622  1.00  0.00     0.004 A 
ATOM      9  C   UNL     1       6.382   0.279  -1.065  1.00  0.00     0.004 A 
ATOM     10  C   UNL     1       9.031   0.473  -1.644  1.00  0.00     0.000 A 
ATOM     11  C   UNL     1       6.896  -0.477  -2.077  1.00  0.00     0.000 A 
ATOM     12  C   UNL     1       8.238  -0.386  -2.379  1.00  0.00     0.000 A 
ENDBRANCH   6   7
ENDBRANCH   1   6
TORSDOF 4
ENDMDL
MODEL 5
REMARK VINA RESULT:      -6.7      1.967      2.268
REMARK SMILES O=C(O)CCc1ccccc1
REMARK SMILES IDX 4 1 2 2 1 3 3 4 5 6 6 7 7 8 11 9 8 10 10 11 9 12
REMARK H PARENT 3 5
REMARK Flexibility Score: inf
ROOT
ATOM      1  C   UNL     1       8.199   0.282  -2.041  1.00  0.00     0.127 C 
ENDROOT
BRANCH   1   2
ATOM      2  C   UNL     1       9.384   0.386  -1.157  1.00  0.00     0.303 C 
ATOM      3  O   UNL     1       9.514  -0.364  -0.177  1.00  0.00    -0.252 OA
BRANCH   2   4
ATOM      4  O   UNL     1      10.357   1.329  -1.428  1.00  0.00    -0.481 OA
ATOM      5  H   UNL     1      10.840   1.371  -2.321  1.00  0.00     0.296 HD
ENDBRANCH   2   4
ENDBRANCH   1   2
BRANCH   1   6
ATOM      6  C   UNL     1       7.137  -0.580  -1.405  1.00  0.00     0.047 C 
BRANCH   6   7
ATOM      7  C   UNL     1       6.335   0.147  -0.402  1.00  0.00    -0.047 A 
ATOM      8  C   UNL     1       5.776   1.382  -0.609  1.00  0.00     0.004 A 
ATOM      9  C   UNL     1       6.140  -0.457   0.817  1.00  0.00     0.004 A 
ATOM     10  C   UNL     1       5.039   1.991   0.389  1.00  0.00     0.000 A 
ATOM     11  C   UNL     1       5.417   0.127   1.815  1.00  0.00     0.000 A 
ATOM     12  C   UNL     1       4.854   1.369   1.607  1.00  0.00     0.000 A 
ENDBRANCH   6   7
ENDBRANCH   1   6
TORSDOF 4
ENDMDL
