@<TRIPOS>MOLECULE
/home/cewinharhar/GITHUB/reincatalyze/data/processed/docking_pred/2023-Apr-25-1630_maxeplen5_maxtrainstep200_exh32_gamma099_lrac3e-4_lrcr1e-3/2f41e52dfc6618f39d2325611a45b0a1c53476a0_ligand_2.pdbqt
 12 12 0 0 0
SMALL
GASTEIGER

@<TRIPOS>ATOM
      1  C          5.4240    2.9260    0.0260 C.3     1  UNL1        0.1270
      2  C          6.2150    3.9190    0.7900 C.2     1  UNL1        0.3030
      3  O          6.9010    4.7710    0.2030 O.2     1  UNL1       -0.2520
      4  O          6.1900    3.8960    2.1710 O.3     1  UNL1       -0.4810
      5  H          6.0830    3.0340    2.6980 H       1  UNL1        0.2960
      6  C          4.8850    1.8580    0.9450 C.3     1  UNL1        0.0470
      7  C          5.6950    0.6250    0.9270 C.2     1  UNL1       -0.0470
      8  C          6.3800    0.1680   -0.1700 C.2     1  UNL1        0.0040
      9  C          5.7620   -0.1110    2.0860 C.2     1  UNL1        0.0040
     10  C          7.1140   -1.0010   -0.0980 C.2     1  UNL1        0.0000
     11  C          6.4800   -1.2670    2.1770 C.2     1  UNL1        0.0000
     12  C          7.1700   -1.7260    1.0760 C.2     1  UNL1        0.0000
@<TRIPOS>BOND
     1     8    10    1
     2     8     7    2
     3    10    12    2
     4     1     2    1
     5     1     6    1
     6     3     2    2
     7     2     4    1
     8     7     6    1
     9     7     9    1
    10    12    11    1
    11     9    11    2
    12     4     5    1
