@<TRIPOS>MOLECULE
/home/cewinharhar/GITHUB/reincatalyze/data/processed/docking_pred/2023-Apr-25-1630_maxeplen5_maxtrainstep200_exh32_gamma099_lrac3e-4_lrcr1e-3/2f41e52dfc6618f39d2325611a45b0a1c53476a0_ligand_2.pdbqt
 12 12 0 0 0
SMALL
GASTEIGER

@<TRIPOS>ATOM
      1  C          8.3910   -0.5970   -2.1440 C.3     1  UNL1        0.1270
      2  C          8.3430   -1.8680   -2.9050 C.2     1  UNL1        0.3030
      3  O          7.2580   -2.3650   -3.2440 O.2     1  UNL1       -0.2520
      4  O          9.5210   -2.5080   -3.2390 O.3     1  UNL1       -0.4810
      5  H         10.1070   -2.1990   -4.0100 H       1  UNL1        0.2960
      6  C          8.1120   -0.8430   -0.6830 C.3     1  UNL1        0.0470
      7  C          7.0220    0.0020   -0.1580 C.2     1  UNL1       -0.0470
      8  C          6.4400    1.0310   -0.8540 C.2     1  UNL1        0.0040
      9  C          6.5650   -0.2630    1.1110 C.2     1  UNL1        0.0040
     10  C          5.4230    1.7720   -0.2840 C.2     1  UNL1        0.0000
     11  C          5.5630    0.4580    1.6920 C.2     1  UNL1        0.0000
     12  C          4.9770    1.4920    0.9930 C.2     1  UNL1        0.0000
@<TRIPOS>BOND
     1     5     4    1
     2     3     2    2
     3     4     2    1
     4     2     1    1
     5     1     6    1
     6     8    10    1
     7     8     7    2
     8     6     7    1
     9    10    12    2
    10     7     9    1
    11    12    11    1
    12     9    11    2
