@<TRIPOS>MOLECULE
/home/cewinharhar/GITHUB/reincatalyze/data/processed/docking_pred/2023-Apr-25-1630_maxeplen5_maxtrainstep200_exh32_gamma099_lrac3e-4_lrcr1e-3/2f41e52dfc6618f39d2325611a45b0a1c53476a0_ligand_2.pdbqt
 12 12 0 0 0
SMALL
GASTEIGER

@<TRIPOS>ATOM
      1  C          4.9950    1.7940    0.7200 C.3     1  UNL1        0.1270
      2  C          4.4890    1.1030    1.9290 C.2     1  UNL1        0.3030
      3  O          5.1550    0.2090    2.4750 O.2     1  UNL1       -0.2520
      4  O          3.2610    1.4560    2.4540 O.3     1  UNL1       -0.4810
      5  H          2.6520    0.7840    2.9120 H       1  UNL1        0.2960
      6  C          6.5030    1.8360    0.7250 C.3     1  UNL1        0.0470
      7  C          7.1020    1.0300   -0.3560 C.2     1  UNL1       -0.0470
      8  C          6.4190    0.0940   -1.0890 C.2     1  UNL1        0.0040
      9  C          8.4310    1.2340   -0.6410 C.2     1  UNL1        0.0040
     10  C          7.0610   -0.6180   -2.0840 C.2     1  UNL1        0.0000
     11  C          9.0820    0.5420   -1.6190 C.2     1  UNL1        0.0000
     12  C          8.3960   -0.3990   -2.3570 C.2     1  UNL1        0.0000
@<TRIPOS>BOND
     1    12    10    2
     2    12    11    1
     3    10     8    1
     4    11     9    2
     5     8     7    2
     6     9     7    1
     7     7     6    1
     8     1     6    1
     9     1     2    1
    10     2     4    1
    11     2     3    2
    12     4     5    1
