@<TRIPOS>MOLECULE
/home/cewinharhar/GITHUB/reincatalyze/data/processed/docking_pred/2023-Apr-25-1630_maxeplen5_maxtrainstep200_exh32_gamma099_lrac3e-4_lrcr1e-3/2f41e52dfc6618f39d2325611a45b0a1c53476a0_ligand_2.pdbqt
 12 12 0 0 0
SMALL
GASTEIGER

@<TRIPOS>ATOM
      1  C          8.4000   -0.6490   -2.1310 C.3     1  UNL1        0.1270
      2  C          8.4620   -1.9060   -2.9130 C.2     1  UNL1        0.3030
      3  O          9.5430   -2.4840   -3.1030 O.2     1  UNL1       -0.2520
      4  O          7.3010   -2.4420   -3.4370 O.3     1  UNL1       -0.4810
      5  H          6.7190   -1.9350   -4.0980 H       1  UNL1        0.2960
      6  C          6.9990   -0.0910   -2.1340 C.3     1  UNL1        0.0470
      7  C          6.4500    0.0860   -0.7760 C.2     1  UNL1       -0.0470
      8  C          5.8250    1.2250   -0.3380 C.2     1  UNL1        0.0040
      9  C          6.5790   -0.9620    0.1050 C.2     1  UNL1        0.0040
     10  C          5.3410    1.3050    0.9530 C.2     1  UNL1        0.0000
     11  C          6.1090   -0.9030    1.3840 C.2     1  UNL1        0.0000
     12  C          5.4790    0.2420    1.8240 C.2     1  UNL1        0.0000
@<TRIPOS>BOND
     1     5     4    1
     2     4     2    1
     3     3     2    2
     4     2     1    1
     5     6     1    1
     6     6     7    1
     7     7     8    2
     8     7     9    1
     9     8    10    1
    10     9    11    2
    11    10    12    2
    12    11    12    1
