MODEL 1
REMARK VINA RESULT:      -7.3      0.000      0.000
REMARK SMILES O=C(O)CCc1ccccc1
REMARK SMILES IDX 4 1 2 2 1 3 3 4 5 6 6 7 7 8 11 9 8 10 10 11 9 12
REMARK H PARENT 3 5
REMARK Flexibility Score: inf
ROOT
ATOM      1  C   UNL     1       8.400  -0.649  -2.131  1.00  0.00     0.127 C 
ENDROOT
BRANCH   1   2
ATOM      2  C   UNL     1       8.462  -1.906  -2.913  1.00  0.00     0.303 C 
ATOM      3  O   UNL     1       9.543  -2.484  -3.103  1.00  0.00    -0.252 OA
BRANCH   2   4
ATOM      4  O   UNL     1       7.301  -2.442  -3.437  1.00  0.00    -0.481 OA
ATOM      5  H   UNL     1       6.719  -1.935  -4.098  1.00  0.00     0.296 HD
ENDBRANCH   2   4
ENDBRANCH   1   2
BRANCH   1   6
ATOM      6  C   UNL     1       6.999  -0.091  -2.134  1.00  0.00     0.047 C 
BRANCH   6   7
ATOM      7  C   UNL     1       6.450   0.086  -0.776  1.00  0.00    -0.047 A 
ATOM      8  C   UNL     1       5.825   1.225  -0.338  1.00  0.00     0.004 A 
ATOM      9  C   UNL     1       6.579  -0.962   0.105  1.00  0.00     0.004 A 
ATOM     10  C   UNL     1       5.341   1.305   0.953  1.00  0.00     0.000 A 
ATOM     11  C   UNL     1       6.109  -0.903   1.384  1.00  0.00     0.000 A 
ATOM     12  C   UNL     1       5.479   0.242   1.824  1.00  0.00     0.000 A 
ENDBRANCH   6   7
ENDBRANCH   1   6
TORSDOF 4
ENDMDL
MODEL 2
REMARK VINA RESULT:      -7.3      0.115      1.723
REMARK SMILES O=C(O)CCc1ccccc1
REMARK SMILES IDX 4 1 2 2 1 3 3 4 5 6 6 7 7 8 11 9 8 10 10 11 9 12
REMARK H PARENT 3 5
REMARK Flexibility Score: inf
ROOT
ATOM      1  C   UNL     1       8.418  -0.638  -2.147  1.00  0.00     0.127 C 
ENDROOT
BRANCH   1   2
ATOM      2  C   UNL     1       8.384  -1.909  -2.909  1.00  0.00     0.303 C 
ATOM      3  O   UNL     1       7.305  -2.425  -3.236  1.00  0.00    -0.252 OA
BRANCH   2   4
ATOM      4  O   UNL     1       9.570  -2.526  -3.259  1.00  0.00    -0.481 OA
ATOM      5  H   UNL     1      10.476  -2.104  -3.077  1.00  0.00     0.296 HD
ENDBRANCH   2   4
ENDBRANCH   1   2
BRANCH   1   6
ATOM      6  C   UNL     1       7.045  -0.015  -2.095  1.00  0.00     0.047 C 
BRANCH   6   7
ATOM      7  C   UNL     1       6.499   0.053  -0.726  1.00  0.00    -0.047 A 
ATOM      8  C   UNL     1       6.595  -0.959   0.195  1.00  0.00     0.004 A 
ATOM      9  C   UNL     1       5.852   1.207  -0.355  1.00  0.00     0.004 A 
ATOM     10  C   UNL     1       6.052  -0.810   1.457  1.00  0.00     0.000 A 
ATOM     11  C   UNL     1       5.309   1.374   0.885  1.00  0.00     0.000 A 
ATOM     12  C   UNL     1       5.406   0.358   1.811  1.00  0.00     0.000 A 
ENDBRANCH   6   7
ENDBRANCH   1   6
TORSDOF 4
ENDMDL
MODEL 3
REMARK VINA RESULT:      -6.9      0.712      1.464
REMARK SMILES O=C(O)CCc1ccccc1
REMARK SMILES IDX 4 1 2 2 1 3 3 4 5 6 6 7 7 8 11 9 8 10 10 11 9 12
REMARK H PARENT 3 5
REMARK Flexibility Score: inf
ROOT
ATOM      1  C   UNL     1       8.391  -0.597  -2.144  1.00  0.00     0.127 C 
ENDROOT
BRANCH   1   2
ATOM      2  C   UNL     1       8.343  -1.868  -2.905  1.00  0.00     0.303 C 
ATOM      3  O   UNL     1       7.258  -2.365  -3.244  1.00  0.00    -0.252 OA
BRANCH   2   4
ATOM      4  O   UNL     1       9.521  -2.508  -3.239  1.00  0.00    -0.481 OA
ATOM      5  H   UNL     1      10.107  -2.199  -4.010  1.00  0.00     0.296 HD
ENDBRANCH   2   4
ENDBRANCH   1   2
BRANCH   1   6
ATOM      6  C   UNL     1       8.112  -0.843  -0.683  1.00  0.00     0.047 C 
BRANCH   6   7
ATOM      7  C   UNL     1       7.022   0.002  -0.158  1.00  0.00    -0.047 A 
ATOM      8  C   UNL     1       6.440   1.031  -0.854  1.00  0.00     0.004 A 
ATOM      9  C   UNL     1       6.565  -0.263   1.111  1.00  0.00     0.004 A 
ATOM     10  C   UNL     1       5.423   1.772  -0.284  1.00  0.00     0.000 A 
ATOM     11  C   UNL     1       5.563   0.458   1.692  1.00  0.00     0.000 A 
ATOM     12  C   UNL     1       4.977   1.492   0.993  1.00  0.00     0.000 A 
ENDBRANCH   6   7
ENDBRANCH   1   6
TORSDOF 4
ENDMDL
MODEL 4
REMARK VINA RESULT:      -6.8      3.385      5.087
REMARK SMILES O=C(O)CCc1ccccc1
REMARK SMILES IDX 4 1 2 2 1 3 3 4 5 6 6 7 7 8 11 9 8 10 10 11 9 12
REMARK H PARENT 3 5
REMARK Flexibility Score: inf
ROOT
ATOM      1  C   UNL     1       4.995   1.794   0.720  1.00  0.00     0.127 C 
ENDROOT
BRANCH   1   2
ATOM      2  C   UNL     1       4.489   1.103   1.929  1.00  0.00     0.303 C 
ATOM      3  O   UNL     1       5.155   0.209   2.475  1.00  0.00    -0.252 OA
BRANCH   2   4
ATOM      4  O   UNL     1       3.261   1.456   2.454  1.00  0.00    -0.481 OA
ATOM      5  H   UNL     1       2.652   0.784   2.912  1.00  0.00     0.296 HD
ENDBRANCH   2   4
ENDBRANCH   1   2
BRANCH   1   6
ATOM      6  C   UNL     1       6.503   1.836   0.725  1.00  0.00     0.047 C 
BRANCH   6   7
ATOM      7  C   UNL     1       7.102   1.030  -0.356  1.00  0.00    -0.047 A 
ATOM      8  C   UNL     1       6.419   0.094  -1.089  1.00  0.00     0.004 A 
ATOM      9  C   UNL     1       8.431   1.234  -0.641  1.00  0.00     0.004 A 
ATOM     10  C   UNL     1       7.061  -0.618  -2.084  1.00  0.00     0.000 A 
ATOM     11  C   UNL     1       9.082   0.542  -1.619  1.00  0.00     0.000 A 
ATOM     12  C   UNL     1       8.396  -0.399  -2.357  1.00  0.00     0.000 A 
ENDBRANCH   6   7
ENDBRANCH   1   6
TORSDOF 4
ENDMDL
MODEL 5
REMARK VINA RESULT:      -6.7      3.821      4.940
REMARK SMILES O=C(O)CCc1ccccc1
REMARK SMILES IDX 4 1 2 2 1 3 3 4 5 6 6 7 7 8 11 9 8 10 10 11 9 12
REMARK H PARENT 3 5
REMARK Flexibility Score: inf
ROOT
ATOM      1  C   UNL     1       5.424   2.926   0.026  1.00  0.00     0.127 C 
ENDROOT
BRANCH   1   2
ATOM      2  C   UNL     1       6.215   3.919   0.790  1.00  0.00     0.303 C 
ATOM      3  O   UNL     1       6.901   4.771   0.203  1.00  0.00    -0.252 OA
BRANCH   2   4
ATOM      4  O   UNL     1       6.190   3.896   2.171  1.00  0.00    -0.481 OA
ATOM      5  H   UNL     1       6.083   3.034   2.698  1.00  0.00     0.296 HD
ENDBRANCH   2   4
ENDBRANCH   1   2
BRANCH   1   6
ATOM      6  C   UNL     1       4.885   1.858   0.945  1.00  0.00     0.047 C 
BRANCH   6   7
ATOM      7  C   UNL     1       5.695   0.625   0.927  1.00  0.00    -0.047 A 
ATOM      8  C   UNL     1       6.380   0.168  -0.170  1.00  0.00     0.004 A 
ATOM      9  C   UNL     1       5.762  -0.111   2.086  1.00  0.00     0.004 A 
ATOM     10  C   UNL     1       7.114  -1.001  -0.098  1.00  0.00     0.000 A 
ATOM     11  C   UNL     1       6.480  -1.267   2.177  1.00  0.00     0.000 A 
ATOM     12  C   UNL     1       7.170  -1.726   1.076  1.00  0.00     0.000 A 
ENDBRANCH   6   7
ENDBRANCH   1   6
TORSDOF 4
ENDMDL
