@<TRIPOS>MOLECULE
/home/cewinharhar/GITHUB/reincatalyze/data/processed/docking_pred/2023-Apr-25-1630_maxeplen5_maxtrainstep200_exh32_gamma099_lrac3e-4_lrcr1e-3/2f41e52dfc6618f39d2325611a45b0a1c53476a0_ligand_2.pdbqt
 12 12 0 0 0
SMALL
GASTEIGER

@<TRIPOS>ATOM
      1  C          8.4180   -0.6380   -2.1470 C.3     1  UNL1        0.1270
      2  C          8.3840   -1.9090   -2.9090 C.2     1  UNL1        0.3030
      3  O          7.3050   -2.4250   -3.2360 O.2     1  UNL1       -0.2520
      4  O          9.5700   -2.5260   -3.2590 O.3     1  UNL1       -0.4810
      5  H         10.4760   -2.1040   -3.0770 H       1  UNL1        0.2960
      6  C          7.0450   -0.0150   -2.0950 C.3     1  UNL1        0.0470
      7  C          6.4990    0.0530   -0.7260 C.2     1  UNL1       -0.0470
      8  C          6.5950   -0.9590    0.1950 C.2     1  UNL1        0.0040
      9  C          5.8520    1.2070   -0.3550 C.2     1  UNL1        0.0040
     10  C          6.0520   -0.8100    1.4570 C.2     1  UNL1        0.0000
     11  C          5.3090    1.3740    0.8850 C.2     1  UNL1        0.0000
     12  C          5.4060    0.3580    1.8110 C.2     1  UNL1        0.0000
@<TRIPOS>BOND
     1     4     5    1
     2     4     2    1
     3     3     2    2
     4     2     1    1
     5     1     6    1
     6     6     7    1
     7     7     9    2
     8     7     8    1
     9     9    11    1
    10     8    10    2
    11    11    12    2
    12    10    12    1
