@<TRIPOS>MOLECULE
/home/cewinharhar/GITHUB/reincatalyze/data/processed/docking_pred/2023-Apr-25-1630_maxeplen5_maxtrainstep200_exh32_gamma099_lrac3e-4_lrcr1e-3/306d1dfeb5e1085b4f3e24b09348dc81ae645662_ligand_2.pdbqt
 12 12 0 0 0
SMALL
GASTEIGER

@<TRIPOS>ATOM
      1  C          8.2450    0.2600   -2.0720 C.3     1  UNL1        0.1270
      2  C          9.4130    0.3790   -1.1680 C.2     1  UNL1        0.3030
      3  O          9.5240   -0.3540   -0.1730 O.2     1  UNL1       -0.2520
      4  O         10.3910    1.3170   -1.4380 O.3     1  UNL1       -0.4810
      5  H         10.4390    2.2070   -0.9510 H       1  UNL1        0.2960
      6  C          7.1710   -0.5910   -1.4410 C.3     1  UNL1        0.0470
      7  C          6.3710    0.1450   -0.4430 C.2     1  UNL1       -0.0470
      8  C          5.8140    1.3790   -0.6580 C.2     1  UNL1        0.0040
      9  C          6.1740   -0.4500    0.7800 C.2     1  UNL1        0.0040
     10  C          5.0790    1.9970    0.3350 C.2     1  UNL1        0.0000
     11  C          5.4520    0.1430    1.7740 C.2     1  UNL1        0.0000
     12  C          4.8920    1.3840    1.5570 C.2     1  UNL1        0.0000
@<TRIPOS>BOND
     1     1     6    1
     2     1     2    1
     3     6     7    1
     4     4     2    1
     5     4     5    1
     6     2     3    2
     7     8     7    2
     8     8    10    1
     9     7     9    1
    10    10    12    2
    11     9    11    2
    12    12    11    1
