MODEL 1
REMARK VINA RESULT:      -7.3      0.000      0.000
REMARK SMILES O=C(O)CCc1ccccc1
REMARK SMILES IDX 4 1 2 2 1 3 3 4 5 6 6 7 7 8 11 9 8 10 10 11 9 12
REMARK H PARENT 3 5
REMARK Flexibility Score: inf
ROOT
ATOM      1  C   UNL     1       8.407  -0.631  -2.159  1.00  0.00     0.127 C 
ENDROOT
BRANCH   1   2
ATOM      2  C   UNL     1       8.465  -1.905  -2.913  1.00  0.00     0.303 C 
ATOM      3  O   UNL     1       9.544  -2.494  -3.082  1.00  0.00    -0.252 OA
BRANCH   2   4
ATOM      4  O   UNL     1       7.305  -2.444  -3.434  1.00  0.00    -0.481 OA
ATOM      5  H   UNL     1       6.485  -2.624  -2.862  1.00  0.00     0.296 HD
ENDBRANCH   2   4
ENDBRANCH   1   2
BRANCH   1   6
ATOM      6  C   UNL     1       7.003  -0.079  -2.160  1.00  0.00     0.047 C 
BRANCH   6   7
ATOM      7  C   UNL     1       6.459   0.106  -0.800  1.00  0.00    -0.047 A 
ATOM      8  C   UNL     1       5.829   1.245  -0.369  1.00  0.00     0.004 A 
ATOM      9  C   UNL     1       6.597  -0.934   0.088  1.00  0.00     0.004 A 
ATOM     10  C   UNL     1       5.351   1.332   0.924  1.00  0.00     0.000 A 
ATOM     11  C   UNL     1       6.133  -0.868   1.368  1.00  0.00     0.000 A 
ATOM     12  C   UNL     1       5.498   0.276   1.802  1.00  0.00     0.000 A 
ENDBRANCH   6   7
ENDBRANCH   1   6
TORSDOF 4
ENDMDL
MODEL 2
REMARK VINA RESULT:      -7.2      0.110      1.723
REMARK SMILES O=C(O)CCc1ccccc1
REMARK SMILES IDX 4 1 2 2 1 3 3 4 5 6 6 7 7 8 11 9 8 10 10 11 9 12
REMARK H PARENT 3 5
REMARK Flexibility Score: inf
ROOT
ATOM      1  C   UNL     1       8.407  -0.619  -2.169  1.00  0.00     0.127 C 
ENDROOT
BRANCH   1   2
ATOM      2  C   UNL     1       8.377  -1.900  -2.913  1.00  0.00     0.303 C 
ATOM      3  O   UNL     1       7.299  -2.422  -3.237  1.00  0.00    -0.252 OA
BRANCH   2   4
ATOM      4  O   UNL     1       9.565  -2.522  -3.248  1.00  0.00    -0.481 OA
ATOM      5  H   UNL     1       9.632  -3.527  -3.385  1.00  0.00     0.296 HD
ENDBRANCH   2   4
ENDBRANCH   1   2
BRANCH   1   6
ATOM      6  C   UNL     1       7.028  -0.011  -2.105  1.00  0.00     0.047 C 
BRANCH   6   7
ATOM      7  C   UNL     1       6.492   0.049  -0.731  1.00  0.00    -0.047 A 
ATOM      8  C   UNL     1       6.599  -0.966   0.184  1.00  0.00     0.004 A 
ATOM      9  C   UNL     1       5.842   1.199  -0.351  1.00  0.00     0.004 A 
ATOM     10  C   UNL     1       6.065  -0.824   1.450  1.00  0.00     0.000 A 
ATOM     11  C   UNL     1       5.307   1.358   0.894  1.00  0.00     0.000 A 
ATOM     12  C   UNL     1       5.416   0.338   1.815  1.00  0.00     0.000 A 
ENDBRANCH   6   7
ENDBRANCH   1   6
TORSDOF 4
ENDMDL
MODEL 3
REMARK VINA RESULT:      -6.8      3.381      5.078
REMARK SMILES O=C(O)CCc1ccccc1
REMARK SMILES IDX 4 1 2 2 1 3 3 4 5 6 6 7 7 8 11 9 8 10 10 11 9 12
REMARK H PARENT 3 5
REMARK Flexibility Score: inf
ROOT
ATOM      1  C   UNL     1       4.997   1.800   0.724  1.00  0.00     0.127 C 
ENDROOT
BRANCH   1   2
ATOM      2  C   UNL     1       4.488   1.104   1.929  1.00  0.00     0.303 C 
ATOM      3  O   UNL     1       5.152   0.209   2.474  1.00  0.00    -0.252 OA
BRANCH   2   4
ATOM      4  O   UNL     1       3.259   1.456   2.452  1.00  0.00    -0.481 OA
ATOM      5  H   UNL     1       2.384   1.156   2.032  1.00  0.00     0.296 HD
ENDBRANCH   2   4
ENDBRANCH   1   2
BRANCH   1   6
ATOM      6  C   UNL     1       6.505   1.834   0.729  1.00  0.00     0.047 C 
BRANCH   6   7
ATOM      7  C   UNL     1       7.100   1.030  -0.356  1.00  0.00    -0.047 A 
ATOM      8  C   UNL     1       6.410   0.108  -1.101  1.00  0.00     0.004 A 
ATOM      9  C   UNL     1       8.433   1.220  -0.633  1.00  0.00     0.004 A 
ATOM     10  C   UNL     1       7.048  -0.602  -2.099  1.00  0.00     0.000 A 
ATOM     11  C   UNL     1       9.081   0.529  -1.614  1.00  0.00     0.000 A 
ATOM     12  C   UNL     1       8.388  -0.397  -2.363  1.00  0.00     0.000 A 
ENDBRANCH   6   7
ENDBRANCH   1   6
TORSDOF 4
ENDMDL
MODEL 4
REMARK VINA RESULT:      -6.7      3.350      5.017
REMARK SMILES O=C(O)CCc1ccccc1
REMARK SMILES IDX 4 1 2 2 1 3 3 4 5 6 6 7 7 8 11 9 8 10 10 11 9 12
REMARK H PARENT 3 5
REMARK Flexibility Score: inf
ROOT
ATOM      1  C   UNL     1       5.031   1.696   0.676  1.00  0.00     0.127 C 
ENDROOT
BRANCH   1   2
ATOM      2  C   UNL     1       4.607   1.027   1.930  1.00  0.00     0.303 C 
ATOM      3  O   UNL     1       5.346   0.204   2.491  1.00  0.00    -0.252 OA
BRANCH   2   4
ATOM      4  O   UNL     1       3.375   1.325   2.479  1.00  0.00    -0.481 OA
ATOM      5  H   UNL     1       3.049   0.902   3.344  1.00  0.00     0.296 HD
ENDBRANCH   2   4
ENDBRANCH   1   2
BRANCH   1   6
ATOM      6  C   UNL     1       6.525   1.898   0.662  1.00  0.00     0.047 C 
BRANCH   6   7
ATOM      7  C   UNL     1       7.200   1.104  -0.382  1.00  0.00    -0.047 A 
ATOM      8  C   UNL     1       8.540   1.181  -0.666  1.00  0.00     0.004 A 
ATOM      9  C   UNL     1       6.431   0.233  -1.117  1.00  0.00     0.004 A 
ATOM     10  C   UNL     1       9.089   0.400  -1.664  1.00  0.00     0.000 A 
ATOM     11  C   UNL     1       6.954  -0.547  -2.107  1.00  0.00     0.000 A 
ATOM     12  C   UNL     1       8.301  -0.470  -2.391  1.00  0.00     0.000 A 
ENDBRANCH   6   7
ENDBRANCH   1   6
TORSDOF 4
ENDMDL
MODEL 5
REMARK VINA RESULT:      -6.7      1.962      2.272
REMARK SMILES O=C(O)CCc1ccccc1
REMARK SMILES IDX 4 1 2 2 1 3 3 4 5 6 6 7 7 8 11 9 8 10 10 11 9 12
REMARK H PARENT 3 5
REMARK Flexibility Score: inf
ROOT
ATOM      1  C   UNL     1       8.245   0.260  -2.072  1.00  0.00     0.127 C 
ENDROOT
BRANCH   1   2
ATOM      2  C   UNL     1       9.413   0.379  -1.168  1.00  0.00     0.303 C 
ATOM      3  O   UNL     1       9.524  -0.354  -0.173  1.00  0.00    -0.252 OA
BRANCH   2   4
ATOM      4  O   UNL     1      10.391   1.317  -1.438  1.00  0.00    -0.481 OA
ATOM      5  H   UNL     1      10.439   2.207  -0.951  1.00  0.00     0.296 HD
ENDBRANCH   2   4
ENDBRANCH   1   2
BRANCH   1   6
ATOM      6  C   UNL     1       7.171  -0.591  -1.441  1.00  0.00     0.047 C 
BRANCH   6   7
ATOM      7  C   UNL     1       6.371   0.145  -0.443  1.00  0.00    -0.047 A 
ATOM      8  C   UNL     1       5.814   1.379  -0.658  1.00  0.00     0.004 A 
ATOM      9  C   UNL     1       6.174  -0.450   0.780  1.00  0.00     0.004 A 
ATOM     10  C   UNL     1       5.079   1.997   0.335  1.00  0.00     0.000 A 
ATOM     11  C   UNL     1       5.452   0.143   1.774  1.00  0.00     0.000 A 
ATOM     12  C   UNL     1       4.892   1.384   1.557  1.00  0.00     0.000 A 
ENDBRANCH   6   7
ENDBRANCH   1   6
TORSDOF 4
ENDMDL
