@<TRIPOS>MOLECULE
/home/cewinharhar/GITHUB/reincatalyze/data/processed/docking_pred/2023-Apr-25-1630_maxeplen5_maxtrainstep200_exh32_gamma099_lrac3e-4_lrcr1e-3/306d1dfeb5e1085b4f3e24b09348dc81ae645662_ligand_2.pdbqt
 12 12 0 0 0
SMALL
GASTEIGER

@<TRIPOS>ATOM
      1  C          4.9970    1.8000    0.7240 C.3     1  UNL1        0.1270
      2  C          4.4880    1.1040    1.9290 C.2     1  UNL1        0.3030
      3  O          5.1520    0.2090    2.4740 O.2     1  UNL1       -0.2520
      4  O          3.2590    1.4560    2.4520 O.3     1  UNL1       -0.4810
      5  H          2.3840    1.1560    2.0320 H       1  UNL1        0.2960
      6  C          6.5050    1.8340    0.7290 C.3     1  UNL1        0.0470
      7  C          7.1000    1.0300   -0.3560 C.2     1  UNL1       -0.0470
      8  C          6.4100    0.1080   -1.1010 C.2     1  UNL1        0.0040
      9  C          8.4330    1.2200   -0.6330 C.2     1  UNL1        0.0040
     10  C          7.0480   -0.6020   -2.0990 C.2     1  UNL1        0.0000
     11  C          9.0810    0.5290   -1.6140 C.2     1  UNL1        0.0000
     12  C          8.3880   -0.3970   -2.3630 C.2     1  UNL1        0.0000
@<TRIPOS>BOND
     1    12    10    2
     2    12    11    1
     3    10     8    1
     4    11     9    2
     5     8     7    2
     6     9     7    1
     7     7     6    1
     8     1     6    1
     9     1     2    1
    10     2     4    1
    11     2     3    2
    12     5     4    1
