@<TRIPOS>MOLECULE
/home/cewinharhar/GITHUB/reincatalyze/data/processed/docking_pred/2023-Apr-25-1630_maxeplen5_maxtrainstep200_exh32_gamma099_lrac3e-4_lrcr1e-3/306d1dfeb5e1085b4f3e24b09348dc81ae645662_ligand_2.pdbqt
 12 12 0 0 0
SMALL
GASTEIGER

@<TRIPOS>ATOM
      1  C          8.4070   -0.6190   -2.1690 C.3     1  UNL1        0.1270
      2  C          8.3770   -1.9000   -2.9130 C.2     1  UNL1        0.3030
      3  O          7.2990   -2.4220   -3.2370 O.2     1  UNL1       -0.2520
      4  O          9.5650   -2.5220   -3.2480 O.3     1  UNL1       -0.4810
      5  H          9.6320   -3.5270   -3.3850 H       1  UNL1        0.2960
      6  C          7.0280   -0.0110   -2.1050 C.3     1  UNL1        0.0470
      7  C          6.4920    0.0490   -0.7310 C.2     1  UNL1       -0.0470
      8  C          6.5990   -0.9660    0.1840 C.2     1  UNL1        0.0040
      9  C          5.8420    1.1990   -0.3510 C.2     1  UNL1        0.0040
     10  C          6.0650   -0.8240    1.4500 C.2     1  UNL1        0.0000
     11  C          5.3070    1.3580    0.8940 C.2     1  UNL1        0.0000
     12  C          5.4160    0.3380    1.8150 C.2     1  UNL1        0.0000
@<TRIPOS>BOND
     1     5     4    1
     2     4     2    1
     3     3     2    2
     4     2     1    1
     5     1     6    1
     6     6     7    1
     7     7     9    2
     8     7     8    1
     9     9    11    1
    10     8    10    2
    11    11    12    2
    12    10    12    1
