@<TRIPOS>MOLECULE
/home/cewinharhar/GITHUB/reincatalyze/data/processed/docking_pred/2023-Apr-25-1630_maxeplen5_maxtrainstep200_exh32_gamma099_lrac3e-4_lrcr1e-3/306d1dfeb5e1085b4f3e24b09348dc81ae645662_ligand_2.pdbqt
 12 12 0 0 0
SMALL
GASTEIGER

@<TRIPOS>ATOM
      1  C          5.0310    1.6960    0.6760 C.3     1  UNL1        0.1270
      2  C          4.6070    1.0270    1.9300 C.2     1  UNL1        0.3030
      3  O          5.3460    0.2040    2.4910 O.2     1  UNL1       -0.2520
      4  O          3.3750    1.3250    2.4790 O.3     1  UNL1       -0.4810
      5  H          3.0490    0.9020    3.3440 H       1  UNL1        0.2960
      6  C          6.5250    1.8980    0.6620 C.3     1  UNL1        0.0470
      7  C          7.2000    1.1040   -0.3820 C.2     1  UNL1       -0.0470
      8  C          8.5400    1.1810   -0.6660 C.2     1  UNL1        0.0040
      9  C          6.4310    0.2330   -1.1170 C.2     1  UNL1        0.0040
     10  C          9.0890    0.4000   -1.6640 C.2     1  UNL1        0.0000
     11  C          6.9540   -0.5470   -2.1070 C.2     1  UNL1        0.0000
     12  C          8.3010   -0.4700   -2.3910 C.2     1  UNL1        0.0000
@<TRIPOS>BOND
     1    12    11    2
     2    12    10    1
     3    11     9    1
     4    10     8    2
     5     9     7    2
     6     8     7    1
     7     7     6    1
     8     6     1    1
     9     1     2    1
    10     2     4    1
    11     2     3    2
    12     4     5    1
