@<TRIPOS>MOLECULE
/home/cewinharhar/GITHUB/reincatalyze/data/processed/docking_pred/2023-Apr-25-1630_maxeplen5_maxtrainstep200_exh32_gamma099_lrac3e-4_lrcr1e-3/306d1dfeb5e1085b4f3e24b09348dc81ae645662_ligand_2.pdbqt
 12 12 0 0 0
SMALL
GASTEIGER

@<TRIPOS>ATOM
      1  C          8.4070   -0.6310   -2.1590 C.3     1  UNL1        0.1270
      2  C          8.4650   -1.9050   -2.9130 C.2     1  UNL1        0.3030
      3  O          9.5440   -2.4940   -3.0820 O.2     1  UNL1       -0.2520
      4  O          7.3050   -2.4440   -3.4340 O.3     1  UNL1       -0.4810
      5  H          6.4850   -2.6240   -2.8620 H       1  UNL1        0.2960
      6  C          7.0030   -0.0790   -2.1600 C.3     1  UNL1        0.0470
      7  C          6.4590    0.1060   -0.8000 C.2     1  UNL1       -0.0470
      8  C          5.8290    1.2450   -0.3690 C.2     1  UNL1        0.0040
      9  C          6.5970   -0.9340    0.0880 C.2     1  UNL1        0.0040
     10  C          5.3510    1.3320    0.9240 C.2     1  UNL1        0.0000
     11  C          6.1330   -0.8680    1.3680 C.2     1  UNL1        0.0000
     12  C          5.4980    0.2760    1.8020 C.2     1  UNL1        0.0000
@<TRIPOS>BOND
     1     4     2    1
     2     4     5    1
     3     3     2    2
     4     2     1    1
     5     6     1    1
     6     6     7    1
     7     7     8    2
     8     7     9    1
     9     8    10    1
    10     9    11    2
    11    10    12    2
    12    11    12    1
