@<TRIPOS>MOLECULE
/home/cewinharhar/GITHUB/reincatalyze/data/processed/docking_pred/2023-Apr-25-1630_maxeplen5_maxtrainstep200_exh32_gamma099_lrac3e-4_lrcr1e-3/31018d4d3337f577513d0037205f1d699057d88b_ligand_2.pdbqt
 12 12 0 0 0
SMALL
GASTEIGER

@<TRIPOS>ATOM
      1  C          8.4350   -0.5930   -2.2160 C.3     1  UNL1        0.1270
      2  C          8.4860   -1.8910   -2.9290 C.2     1  UNL1        0.3030
      3  O          9.5630   -2.4900   -3.0820 O.2     1  UNL1       -0.2520
      4  O          7.3220   -2.4410   -3.4290 O.3     1  UNL1       -0.4810
      5  H          6.4630   -1.9070   -3.5170 H       1  UNL1        0.2960
      6  C          7.0210   -0.0700   -2.1680 C.3     1  UNL1        0.0470
      7  C          6.4930    0.0280   -0.7940 C.2     1  UNL1       -0.0470
      8  C          6.6030   -0.9630    0.1480 C.2     1  UNL1        0.0040
      9  C          5.8480    1.1890   -0.4400 C.2     1  UNL1        0.0040
     10  C          6.0770   -0.7870    1.4130 C.2     1  UNL1        0.0000
     11  C          5.3210    1.3830    0.8030 C.2     1  UNL1        0.0000
     12  C          5.4330    0.3870    1.7500 C.2     1  UNL1        0.0000
@<TRIPOS>BOND
     1     5     4    1
     2     4     2    1
     3     3     2    2
     4     2     1    1
     5     1     6    1
     6     6     7    1
     7     7     9    2
     8     7     8    1
     9     9    11    1
    10     8    10    2
    11    11    12    2
    12    10    12    1
