@<TRIPOS>MOLECULE
/home/cewinharhar/GITHUB/reincatalyze/data/processed/docking_pred/2023-Apr-25-1630_maxeplen5_maxtrainstep200_exh32_gamma099_lrac3e-4_lrcr1e-3/31018d4d3337f577513d0037205f1d699057d88b_ligand_2.pdbqt
 12 12 0 0 0
SMALL
GASTEIGER

@<TRIPOS>ATOM
      1  C          8.1490    0.2520   -2.0950 C.3     1  UNL1        0.1270
      2  C          9.3370    0.3920   -1.2210 C.2     1  UNL1        0.3030
      3  O          9.4920   -0.3470   -0.2360 O.2     1  UNL1       -0.2520
      4  O         10.2830    1.3580   -1.5050 O.3     1  UNL1       -0.4810
      5  H         10.4440    2.1570   -0.8980 H       1  UNL1        0.2960
      6  C          7.0980   -0.6020   -1.4280 C.3     1  UNL1        0.0470
      7  C          6.3250    0.1340   -0.4090 C.2     1  UNL1       -0.0470
      8  C          5.7780    1.3760   -0.6030 C.2     1  UNL1        0.0040
      9  C          6.1460   -0.4700    0.8130 C.2     1  UNL1        0.0040
     10  C          5.0680    1.9920    0.4090 C.2     1  UNL1        0.0000
     11  C          5.4500    0.1220    1.8250 C.2     1  UNL1        0.0000
     12  C          4.8990    1.3710    1.6300 C.2     1  UNL1        0.0000
@<TRIPOS>BOND
     1     1     6    1
     2     1     2    1
     3     4     2    1
     4     4     5    1
     5     6     7    1
     6     2     3    2
     7     8     7    2
     8     8    10    1
     9     7     9    1
    10    10    12    2
    11     9    11    2
    12    12    11    1
