@<TRIPOS>MOLECULE
/home/cewinharhar/GITHUB/reincatalyze/data/processed/docking_pred/2023-Apr-25-1630_maxeplen5_maxtrainstep200_exh32_gamma099_lrac3e-4_lrcr1e-3/31018d4d3337f577513d0037205f1d699057d88b_ligand_2.pdbqt
 12 12 0 0 0
SMALL
GASTEIGER

@<TRIPOS>ATOM
      1  C          5.0380    1.7190    0.6990 C.3     1  UNL1        0.1270
      2  C          4.5970    1.0270    1.9330 C.2     1  UNL1        0.3030
      3  O          5.3210    0.1820    2.4810 O.2     1  UNL1       -0.2520
      4  O          3.3630    1.3260    2.4780 O.3     1  UNL1       -0.4810
      5  H          3.2640    1.7590    3.3920 H       1  UNL1        0.2960
      6  C          6.5360    1.8940    0.6970 C.3     1  UNL1        0.0470
      7  C          7.2030    1.1120   -0.3630 C.2     1  UNL1       -0.0470
      8  C          8.5410    1.1880   -0.6520 C.2     1  UNL1        0.0040
      9  C          6.4260    0.2560   -1.1070 C.2     1  UNL1        0.0040
     10  C          9.0810    0.4180   -1.6640 C.2     1  UNL1        0.0000
     11  C          6.9400   -0.5110   -2.1100 C.2     1  UNL1        0.0000
     12  C          8.2860   -0.4360   -2.4010 C.2     1  UNL1        0.0000
@<TRIPOS>BOND
     1    12    11    2
     2    12    10    1
     3    11     9    1
     4    10     8    2
     5     9     7    2
     6     8     7    1
     7     7     6    1
     8     6     1    1
     9     1     2    1
    10     2     4    1
    11     2     3    2
    12     4     5    1
