@<TRIPOS>MOLECULE
/home/cewinharhar/GITHUB/reincatalyze/data/processed/docking_pred/2023-Apr-25-1630_maxeplen5_maxtrainstep200_exh32_gamma099_lrac3e-4_lrcr1e-3/31018d4d3337f577513d0037205f1d699057d88b_ligand_2.pdbqt
 12 12 0 0 0
SMALL
GASTEIGER

@<TRIPOS>ATOM
      1  C          8.0720   -2.0470    0.7730 C.3     1  UNL1        0.1270
      2  C          8.3810   -3.4670    1.0620 C.2     1  UNL1        0.3030
      3  O          9.5080   -3.9320    0.8290 O.2     1  UNL1       -0.2520
      4  O          7.4030   -4.2830    1.5970 O.3     1  UNL1       -0.4810
      5  H          7.1770   -5.1910    1.2010 H       1  UNL1        0.2960
      6  C          6.8020   -1.6280    1.4720 C.3     1  UNL1        0.0470
      7  C          6.2420   -0.3720    0.9370 C.2     1  UNL1       -0.0470
      8  C          5.4370    0.4790    1.6500 C.2     1  UNL1        0.0040
      9  C          6.5490   -0.0390   -0.3600 C.2     1  UNL1        0.0040
     10  C          4.9550    1.6360    1.0690 C.2     1  UNL1        0.0000
     11  C          6.0830    1.0980   -0.9530 C.2     1  UNL1        0.0000
     12  C          5.2740    1.9540   -0.2360 C.2     1  UNL1        0.0000
@<TRIPOS>BOND
     1    11     9    1
     2    11    12    2
     3     9     7    2
     4    12    10    1
     5     1     2    1
     6     1     6    1
     7     3     2    2
     8     7     6    1
     9     7     8    1
    10     2     4    1
    11    10     8    2
    12     5     4    1
