MODEL 1
REMARK VINA RESULT:      -7.2      0.000      0.000
REMARK SMILES O=C(O)CCc1ccccc1
REMARK SMILES IDX 4 1 2 2 1 3 3 4 5 6 6 7 7 8 11 9 8 10 10 11 9 12
REMARK H PARENT 3 5
REMARK Flexibility Score: inf
ROOT
ATOM      1  C   UNL     1       8.408  -0.666  -2.117  1.00  0.00     0.127 C 
ENDROOT
BRANCH   1   2
ATOM      2  C   UNL     1       8.462  -1.920  -2.905  1.00  0.00     0.303 C 
ATOM      3  O   UNL     1       9.540  -2.504  -3.097  1.00  0.00    -0.252 OA
BRANCH   2   4
ATOM      4  O   UNL     1       7.298  -2.444  -3.434  1.00  0.00    -0.481 OA
ATOM      5  H   UNL     1       7.295  -3.035  -4.261  1.00  0.00     0.296 HD
ENDBRANCH   2   4
ENDBRANCH   1   2
BRANCH   1   6
ATOM      6  C   UNL     1       7.015  -0.089  -2.134  1.00  0.00     0.047 C 
BRANCH   6   7
ATOM      7  C   UNL     1       6.455   0.098  -0.781  1.00  0.00    -0.047 A 
ATOM      8  C   UNL     1       5.805   1.232  -0.365  1.00  0.00     0.004 A 
ATOM      9  C   UNL     1       6.600  -0.933   0.116  1.00  0.00     0.004 A 
ATOM     10  C   UNL     1       5.313   1.322   0.923  1.00  0.00     0.000 A 
ATOM     11  C   UNL     1       6.122  -0.863   1.391  1.00  0.00     0.000 A 
ATOM     12  C   UNL     1       5.468   0.275   1.810  1.00  0.00     0.000 A 
ENDBRANCH   6   7
ENDBRANCH   1   6
TORSDOF 4
ENDMDL
MODEL 2
REMARK VINA RESULT:      -7.2      0.087      1.428
REMARK SMILES O=C(O)CCc1ccccc1
REMARK SMILES IDX 4 1 2 2 1 3 3 4 5 6 6 7 7 8 11 9 8 10 10 11 9 12
REMARK H PARENT 3 5
REMARK Flexibility Score: inf
ROOT
ATOM      1  C   UNL     1       8.435  -0.593  -2.216  1.00  0.00     0.127 C 
ENDROOT
BRANCH   1   2
ATOM      2  C   UNL     1       8.486  -1.891  -2.929  1.00  0.00     0.303 C 
ATOM      3  O   UNL     1       9.563  -2.490  -3.082  1.00  0.00    -0.252 OA
BRANCH   2   4
ATOM      4  O   UNL     1       7.322  -2.441  -3.429  1.00  0.00    -0.481 OA
ATOM      5  H   UNL     1       6.463  -1.907  -3.517  1.00  0.00     0.296 HD
ENDBRANCH   2   4
ENDBRANCH   1   2
BRANCH   1   6
ATOM      6  C   UNL     1       7.021  -0.070  -2.168  1.00  0.00     0.047 C 
BRANCH   6   7
ATOM      7  C   UNL     1       6.493   0.028  -0.794  1.00  0.00    -0.047 A 
ATOM      8  C   UNL     1       6.603  -0.963   0.148  1.00  0.00     0.004 A 
ATOM      9  C   UNL     1       5.848   1.189  -0.440  1.00  0.00     0.004 A 
ATOM     10  C   UNL     1       6.077  -0.787   1.413  1.00  0.00     0.000 A 
ATOM     11  C   UNL     1       5.321   1.383   0.803  1.00  0.00     0.000 A 
ATOM     12  C   UNL     1       5.433   0.387   1.750  1.00  0.00     0.000 A 
ENDBRANCH   6   7
ENDBRANCH   1   6
TORSDOF 4
ENDMDL
MODEL 3
REMARK VINA RESULT:      -7.1      2.507      3.244
REMARK SMILES O=C(O)CCc1ccccc1
REMARK SMILES IDX 4 1 2 2 1 3 3 4 5 6 6 7 7 8 11 9 8 10 10 11 9 12
REMARK H PARENT 3 5
REMARK Flexibility Score: inf
ROOT
ATOM      1  C   UNL     1       8.072  -2.047   0.773  1.00  0.00     0.127 C 
ENDROOT
BRANCH   1   2
ATOM      2  C   UNL     1       8.381  -3.467   1.062  1.00  0.00     0.303 C 
ATOM      3  O   UNL     1       9.508  -3.932   0.829  1.00  0.00    -0.252 OA
BRANCH   2   4
ATOM      4  O   UNL     1       7.403  -4.283   1.597  1.00  0.00    -0.481 OA
ATOM      5  H   UNL     1       7.177  -5.191   1.201  1.00  0.00     0.296 HD
ENDBRANCH   2   4
ENDBRANCH   1   2
BRANCH   1   6
ATOM      6  C   UNL     1       6.802  -1.628   1.472  1.00  0.00     0.047 C 
BRANCH   6   7
ATOM      7  C   UNL     1       6.242  -0.372   0.937  1.00  0.00    -0.047 A 
ATOM      8  C   UNL     1       5.437   0.479   1.650  1.00  0.00     0.004 A 
ATOM      9  C   UNL     1       6.549  -0.039  -0.360  1.00  0.00     0.004 A 
ATOM     10  C   UNL     1       4.955   1.636   1.069  1.00  0.00     0.000 A 
ATOM     11  C   UNL     1       6.083   1.098  -0.953  1.00  0.00     0.000 A 
ATOM     12  C   UNL     1       5.274   1.954  -0.236  1.00  0.00     0.000 A 
ENDBRANCH   6   7
ENDBRANCH   1   6
TORSDOF 4
ENDMDL
MODEL 4
REMARK VINA RESULT:      -6.6      3.351      5.029
REMARK SMILES O=C(O)CCc1ccccc1
REMARK SMILES IDX 4 1 2 2 1 3 3 4 5 6 6 7 7 8 11 9 8 10 10 11 9 12
REMARK H PARENT 3 5
REMARK Flexibility Score: inf
ROOT
ATOM      1  C   UNL     1       5.038   1.719   0.699  1.00  0.00     0.127 C 
ENDROOT
BRANCH   1   2
ATOM      2  C   UNL     1       4.597   1.027   1.933  1.00  0.00     0.303 C 
ATOM      3  O   UNL     1       5.321   0.182   2.481  1.00  0.00    -0.252 OA
BRANCH   2   4
ATOM      4  O   UNL     1       3.363   1.326   2.478  1.00  0.00    -0.481 OA
ATOM      5  H   UNL     1       3.264   1.759   3.392  1.00  0.00     0.296 HD
ENDBRANCH   2   4
ENDBRANCH   1   2
BRANCH   1   6
ATOM      6  C   UNL     1       6.536   1.894   0.697  1.00  0.00     0.047 C 
BRANCH   6   7
ATOM      7  C   UNL     1       7.203   1.112  -0.363  1.00  0.00    -0.047 A 
ATOM      8  C   UNL     1       8.541   1.188  -0.652  1.00  0.00     0.004 A 
ATOM      9  C   UNL     1       6.426   0.256  -1.107  1.00  0.00     0.004 A 
ATOM     10  C   UNL     1       9.081   0.418  -1.664  1.00  0.00     0.000 A 
ATOM     11  C   UNL     1       6.940  -0.511  -2.110  1.00  0.00     0.000 A 
ATOM     12  C   UNL     1       8.286  -0.436  -2.401  1.00  0.00     0.000 A 
ENDBRANCH   6   7
ENDBRANCH   1   6
TORSDOF 4
ENDMDL
MODEL 5
REMARK VINA RESULT:      -6.6      1.948      2.249
REMARK SMILES O=C(O)CCc1ccccc1
REMARK SMILES IDX 4 1 2 2 1 3 3 4 5 6 6 7 7 8 11 9 8 10 10 11 9 12
REMARK H PARENT 3 5
REMARK Flexibility Score: inf
ROOT
ATOM      1  C   UNL     1       8.149   0.252  -2.095  1.00  0.00     0.127 C 
ENDROOT
BRANCH   1   2
ATOM      2  C   UNL     1       9.337   0.392  -1.221  1.00  0.00     0.303 C 
ATOM      3  O   UNL     1       9.492  -0.347  -0.236  1.00  0.00    -0.252 OA
BRANCH   2   4
ATOM      4  O   UNL     1      10.283   1.358  -1.505  1.00  0.00    -0.481 OA
ATOM      5  H   UNL     1      10.444   2.157  -0.898  1.00  0.00     0.296 HD
ENDBRANCH   2   4
ENDBRANCH   1   2
BRANCH   1   6
ATOM      6  C   UNL     1       7.098  -0.602  -1.428  1.00  0.00     0.047 C 
BRANCH   6   7
ATOM      7  C   UNL     1       6.325   0.134  -0.409  1.00  0.00    -0.047 A 
ATOM      8  C   UNL     1       5.778   1.376  -0.603  1.00  0.00     0.004 A 
ATOM      9  C   UNL     1       6.146  -0.470   0.813  1.00  0.00     0.004 A 
ATOM     10  C   UNL     1       5.068   1.992   0.409  1.00  0.00     0.000 A 
ATOM     11  C   UNL     1       5.450   0.122   1.825  1.00  0.00     0.000 A 
ATOM     12  C   UNL     1       4.899   1.371   1.630  1.00  0.00     0.000 A 
ENDBRANCH   6   7
ENDBRANCH   1   6
TORSDOF 4
ENDMDL
