@<TRIPOS>MOLECULE
/home/cewinharhar/GITHUB/reincatalyze/data/processed/docking_pred/2023-Apr-25-1630_maxeplen5_maxtrainstep200_exh32_gamma099_lrac3e-4_lrcr1e-3/31018d4d3337f577513d0037205f1d699057d88b_ligand_2.pdbqt
 12 12 0 0 0
SMALL
GASTEIGER

@<TRIPOS>ATOM
      1  C          8.4080   -0.6660   -2.1170 C.3     1  UNL1        0.1270
      2  C          8.4620   -1.9200   -2.9050 C.2     1  UNL1        0.3030
      3  O          9.5400   -2.5040   -3.0970 O.2     1  UNL1       -0.2520
      4  O          7.2980   -2.4440   -3.4340 O.3     1  UNL1       -0.4810
      5  H          7.2950   -3.0350   -4.2610 H       1  UNL1        0.2960
      6  C          7.0150   -0.0890   -2.1340 C.3     1  UNL1        0.0470
      7  C          6.4550    0.0980   -0.7810 C.2     1  UNL1       -0.0470
      8  C          5.8050    1.2320   -0.3650 C.2     1  UNL1        0.0040
      9  C          6.6000   -0.9330    0.1160 C.2     1  UNL1        0.0040
     10  C          5.3130    1.3220    0.9230 C.2     1  UNL1        0.0000
     11  C          6.1220   -0.8630    1.3910 C.2     1  UNL1        0.0000
     12  C          5.4680    0.2750    1.8100 C.2     1  UNL1        0.0000
@<TRIPOS>BOND
     1     5     4    1
     2     4     2    1
     3     3     2    2
     4     2     1    1
     5     6     1    1
     6     6     7    1
     7     7     8    2
     8     7     9    1
     9     8    10    1
    10     9    11    2
    11    10    12    2
    12    11    12    1
