@<TRIPOS>MOLECULE
/home/cewinharhar/GITHUB/reincatalyze/data/processed/docking_pred/2023-Apr-25-1630_maxeplen5_maxtrainstep200_exh32_gamma099_lrac3e-4_lrcr1e-3/3110d36e974f17e9d190d2a4a051583463654b40_ligand_2.pdbqt
 12 12 0 0 0
SMALL
GASTEIGER

@<TRIPOS>ATOM
      1  C          8.4080   -0.6390   -2.1230 C.3     1  UNL1        0.1270
      2  C          8.4660   -1.9000   -2.8990 C.2     1  UNL1        0.3030
      3  O          9.5470   -2.4760   -3.0950 O.2     1  UNL1       -0.2520
      4  O          7.3020   -2.4410   -3.4120 O.3     1  UNL1       -0.4810
      5  H          7.0020   -2.2750   -4.3680 H       1  UNL1        0.2960
      6  C          7.0080   -0.0760   -2.1310 C.3     1  UNL1        0.0470
      7  C          6.4560    0.1050   -0.7740 C.2     1  UNL1       -0.0470
      8  C          5.8240    1.2430   -0.3430 C.2     1  UNL1        0.0040
      9  C          6.5890   -0.9380    0.1120 C.2     1  UNL1        0.0040
     10  C          5.3380    1.3260    0.9470 C.2     1  UNL1        0.0000
     11  C          6.1170   -0.8750    1.3900 C.2     1  UNL1        0.0000
     12  C          5.4800    0.2680    1.8230 C.2     1  UNL1        0.0000
@<TRIPOS>BOND
     1     5     4    1
     2     4     2    1
     3     3     2    2
     4     2     1    1
     5     6     1    1
     6     6     7    1
     7     7     8    2
     8     7     9    1
     9     8    10    1
    10     9    11    2
    11    10    12    2
    12    11    12    1
