@<TRIPOS>MOLECULE
/home/cewinharhar/GITHUB/reincatalyze/data/processed/docking_pred/2023-Apr-25-1630_maxeplen5_maxtrainstep200_exh32_gamma099_lrac3e-4_lrcr1e-3/3110d36e974f17e9d190d2a4a051583463654b40_ligand_2.pdbqt
 12 12 0 0 0
SMALL
GASTEIGER

@<TRIPOS>ATOM
      1  C          5.0630    1.7410    0.7080 C.3     1  UNL1        0.1270
      2  C          4.5950    1.0450    1.9300 C.2     1  UNL1        0.3030
      3  O          5.3010    0.1880    2.4830 O.2     1  UNL1       -0.2520
      4  O          3.3560    1.3540    2.4590 O.3     1  UNL1       -0.4810
      5  H          3.1950    2.1910    3.0120 H       1  UNL1        0.2960
      6  C          6.5660    1.8670    0.7130 C.3     1  UNL1        0.0470
      7  C          7.2100    1.0800   -0.3550 C.2     1  UNL1       -0.0470
      8  C          8.5370    1.1720   -0.6890 C.2     1  UNL1        0.0040
      9  C          6.4240    0.1990   -1.0600 C.2     1  UNL1        0.0040
     10  C          9.0570    0.3950   -1.7060 C.2     1  UNL1        0.0000
     11  C          6.9180   -0.5750   -2.0680 C.2     1  UNL1        0.0000
     12  C          8.2520   -0.4840   -2.4030 C.2     1  UNL1        0.0000
@<TRIPOS>BOND
     1    12    11    2
     2    12    10    1
     3    11     9    1
     4    10     8    2
     5     9     7    2
     6     8     7    1
     7     7     6    1
     8     1     6    1
     9     1     2    1
    10     2     4    1
    11     2     3    2
    12     4     5    1
