@<TRIPOS>MOLECULE
/home/cewinharhar/GITHUB/reincatalyze/data/processed/docking_pred/2023-Apr-25-1630_maxeplen5_maxtrainstep200_exh32_gamma099_lrac3e-4_lrcr1e-3/3110d36e974f17e9d190d2a4a051583463654b40_ligand_2.pdbqt
 12 12 0 0 0
SMALL
GASTEIGER

@<TRIPOS>ATOM
      1  C          8.4290   -0.5620   -2.2760 C.3     1  UNL1        0.1270
      2  C          8.4890   -1.8790   -2.9530 C.2     1  UNL1        0.3030
      3  O          9.5720   -2.4620   -3.1140 O.2     1  UNL1       -0.2520
      4  O          7.3240   -2.4630   -3.4120 O.3     1  UNL1       -0.4810
      5  H          7.2860   -2.9930   -4.2780 H       1  UNL1        0.2960
      6  C          7.0060   -0.0700   -2.1960 C.3     1  UNL1        0.0470
      7  C          6.5060    0.0140   -0.8100 C.2     1  UNL1       -0.0470
      8  C          6.6260   -0.9900    0.1160 C.2     1  UNL1        0.0040
      9  C          5.8790    1.1770   -0.4290 C.2     1  UNL1        0.0040
     10  C          6.1270   -0.8250    1.3940 C.2     1  UNL1        0.0000
     11  C          5.3790    1.3590    0.8270 C.2     1  UNL1        0.0000
     12  C          5.5000    0.3500    1.7580 C.2     1  UNL1        0.0000
@<TRIPOS>BOND
     1     5     4    1
     2     4     2    1
     3     3     2    2
     4     2     1    1
     5     1     6    1
     6     6     7    1
     7     7     9    2
     8     7     8    1
     9     9    11    1
    10     8    10    2
    11    11    12    2
    12    10    12    1
