@<TRIPOS>MOLECULE
/home/cewinharhar/GITHUB/reincatalyze/data/processed/docking_pred/2023-Apr-25-1630_maxeplen5_maxtrainstep200_exh32_gamma099_lrac3e-4_lrcr1e-3/3110d36e974f17e9d190d2a4a051583463654b40_ligand_2.pdbqt
 12 12 0 0 0
SMALL
GASTEIGER

@<TRIPOS>ATOM
      1  C          8.2870   -0.9300   -1.8260 C.3     1  UNL1        0.1270
      2  C          8.4350   -2.0070   -2.8330 C.2     1  UNL1        0.3030
      3  O          9.5530   -2.4700   -3.1070 O.2     1  UNL1       -0.2520
      4  O          7.3150   -2.5020   -3.4730 O.3     1  UNL1       -0.4810
      5  H          7.0570   -3.4840   -3.4360 H       1  UNL1        0.2960
      6  C          7.4760   -1.4120   -0.6490 C.3     1  UNL1        0.0470
      7  C          6.6170   -0.3580   -0.0750 C.2     1  UNL1       -0.0470
      8  C          6.1310   -0.3720    1.2070 C.2     1  UNL1        0.0040
      9  C          6.2850    0.7030   -0.8830 C.2     1  UNL1        0.0040
     10  C          5.3310    0.6590    1.6620 C.2     1  UNL1        0.0000
     11  C          5.4960    1.7300   -0.4530 C.2     1  UNL1        0.0000
     12  C          5.0080    1.7170    0.8360 C.2     1  UNL1        0.0000
@<TRIPOS>BOND
     1     4     5    1
     2     4     2    1
     3     3     2    2
     4     2     1    1
     5     1     6    1
     6     9    11    1
     7     9     7    2
     8     6     7    1
     9    11    12    2
    10     7     8    1
    11    12    10    1
    12     8    10    2
