@<TRIPOS>MOLECULE
/home/cewinharhar/GITHUB/reincatalyze/data/processed/docking_pred/2023-Apr-25-1630_maxeplen5_maxtrainstep200_exh32_gamma099_lrac3e-4_lrcr1e-3/3110d36e974f17e9d190d2a4a051583463654b40_ligand_2.pdbqt
 12 12 0 0 0
SMALL
GASTEIGER

@<TRIPOS>ATOM
      1  C          8.3310    0.2350   -2.1270 C.3     1  UNL1        0.1270
      2  C          9.4480    0.3560   -1.1600 C.2     1  UNL1        0.3030
      3  O          9.5050   -0.3770   -0.1610 O.2     1  UNL1       -0.2520
      4  O         10.4370    1.2970   -1.3740 O.3     1  UNL1       -0.4810
      5  H         10.5210    2.1360   -0.8070 H       1  UNL1        0.2960
      6  C          7.1980   -0.5630   -1.5310 C.3     1  UNL1        0.0470
      7  C          6.4000    0.2110   -0.5610 C.2     1  UNL1       -0.0470
      8  C          6.1560   -0.1850    0.7290 C.2     1  UNL1        0.0040
      9  C          5.8680    1.4060   -0.9830 C.2     1  UNL1        0.0040
     10  C          5.3950    0.6040    1.5700 C.2     1  UNL1        0.0000
     11  C          5.1140    2.1990   -0.1690 C.2     1  UNL1        0.0000
     12  C          4.8690    1.8010    1.1280 C.2     1  UNL1        0.0000
@<TRIPOS>BOND
     1     1     6    1
     2     1     2    1
     3     6     7    1
     4     4     2    1
     5     4     5    1
     6     2     3    2
     7     9     7    2
     8     9    11    1
     9     7     8    1
    10    11    12    2
    11     8    10    2
    12    12    10    1
