@<TRIPOS>MOLECULE
/home/cewinharhar/GITHUB/reincatalyze/data/processed/docking_pred/2023-Apr-25-1630_maxeplen5_maxtrainstep200_exh32_gamma099_lrac3e-4_lrcr1e-3/31638bda67923b1bb66f4f033a77b51352de91e4_ligand_2.pdbqt
 12 12 0 0 0
SMALL
GASTEIGER

@<TRIPOS>ATOM
      1  C          8.4070   -0.6530   -2.1380 C.3     1  UNL1        0.1270
      2  C          8.4610   -1.9220   -2.9020 C.2     1  UNL1        0.3030
      3  O          9.5380   -2.5110   -3.0800 O.2     1  UNL1       -0.2520
      4  O          7.2980   -2.4540   -3.4240 O.3     1  UNL1       -0.4810
      5  H          6.3810   -2.2320   -3.0450 H       1  UNL1        0.2960
      6  C          7.0090   -0.0880   -2.1470 C.3     1  UNL1        0.0470
      7  C          6.4580    0.0990   -0.7910 C.2     1  UNL1       -0.0470
      8  C          5.8160    1.2340   -0.3680 C.2     1  UNL1        0.0040
      9  C          6.6020   -0.9360    0.1030 C.2     1  UNL1        0.0040
     10  C          5.3320    1.3240    0.9230 C.2     1  UNL1        0.0000
     11  C          6.1320   -0.8670    1.3810 C.2     1  UNL1        0.0000
     12  C          5.4860    0.2740    1.8070 C.2     1  UNL1        0.0000
@<TRIPOS>BOND
     1     4     5    1
     2     4     2    1
     3     3     2    2
     4     2     1    1
     5     6     1    1
     6     6     7    1
     7     7     8    2
     8     7     9    1
     9     8    10    1
    10     9    11    2
    11    10    12    2
    12    11    12    1
