@<TRIPOS>MOLECULE
/home/cewinharhar/GITHUB/reincatalyze/data/processed/docking_pred/2023-Apr-25-1630_maxeplen5_maxtrainstep200_exh32_gamma099_lrac3e-4_lrcr1e-3/31638bda67923b1bb66f4f033a77b51352de91e4_ligand_2.pdbqt
 12 12 0 0 0
SMALL
GASTEIGER

@<TRIPOS>ATOM
      1  C          8.2630    0.2250   -2.1840 C.3     1  UNL1        0.1270
      2  C          9.3910    0.3450   -1.2310 C.2     1  UNL1        0.3030
      3  O          9.4630   -0.3930   -0.2360 O.2     1  UNL1       -0.2520
      4  O         10.3730    1.2910   -1.4510 O.3     1  UNL1       -0.4810
      5  H         11.3250    1.0380   -1.7010 H       1  UNL1        0.2960
      6  C          7.1320   -0.5630   -1.5720 C.3     1  UNL1        0.0470
      7  C          6.3590    0.2160   -0.5860 C.2     1  UNL1       -0.0470
      8  C          6.1240   -0.1870    0.7030 C.2     1  UNL1        0.0040
      9  C          5.8420    1.4240   -0.9920 C.2     1  UNL1        0.0040
     10  C          5.3860    0.6080    1.5600 C.2     1  UNL1        0.0000
     11  C          5.1120    2.2220   -0.1630 C.2     1  UNL1        0.0000
     12  C          4.8760    1.8180    1.1340 C.2     1  UNL1        0.0000
@<TRIPOS>BOND
     1     1     6    1
     2     1     2    1
     3     5     4    1
     4     6     7    1
     5     4     2    1
     6     2     3    2
     7     9     7    2
     8     9    11    1
     9     7     8    1
    10    11    12    2
    11     8    10    2
    12    12    10    1
