MODEL 1
REMARK VINA RESULT:      -7.3      0.000      0.000
REMARK SMILES O=C(O)CCc1ccccc1
REMARK SMILES IDX 4 1 2 2 1 3 3 4 5 6 6 7 7 8 11 9 8 10 10 11 9 12
REMARK H PARENT 3 5
REMARK Flexibility Score: inf
ROOT
ATOM      1  C   UNL     1       8.421  -0.623  -2.174  1.00  0.00     0.127 C 
ENDROOT
BRANCH   1   2
ATOM      2  C   UNL     1       8.471  -1.906  -2.915  1.00  0.00     0.303 C 
ATOM      3  O   UNL     1       9.548  -2.495  -3.093  1.00  0.00    -0.252 OA
BRANCH   2   4
ATOM      4  O   UNL     1       7.303  -2.451  -3.414  1.00  0.00    -0.481 OA
ATOM      5  H   UNL     1       6.660  -1.919  -3.994  1.00  0.00     0.296 HD
ENDBRANCH   2   4
ENDBRANCH   1   2
BRANCH   1   6
ATOM      6  C   UNL     1       7.010  -0.092  -2.128  1.00  0.00     0.047 C 
BRANCH   6   7
ATOM      7  C   UNL     1       6.479   0.006  -0.755  1.00  0.00    -0.047 A 
ATOM      8  C   UNL     1       6.576  -0.989   0.183  1.00  0.00     0.004 A 
ATOM      9  C   UNL     1       5.847   1.174  -0.398  1.00  0.00     0.004 A 
ATOM     10  C   UNL     1       6.048  -0.812   1.447  1.00  0.00     0.000 A 
ATOM     11  C   UNL     1       5.319   1.368   0.844  1.00  0.00     0.000 A 
ATOM     12  C   UNL     1       5.416   0.368   1.787  1.00  0.00     0.000 A 
ENDBRANCH   6   7
ENDBRANCH   1   6
TORSDOF 4
ENDMDL
MODEL 2
REMARK VINA RESULT:      -7.3      0.078      1.428
REMARK SMILES O=C(O)CCc1ccccc1
REMARK SMILES IDX 4 1 2 2 1 3 3 4 5 6 6 7 7 8 11 9 8 10 10 11 9 12
REMARK H PARENT 3 5
REMARK Flexibility Score: inf
ROOT
ATOM      1  C   UNL     1       8.407  -0.653  -2.138  1.00  0.00     0.127 C 
ENDROOT
BRANCH   1   2
ATOM      2  C   UNL     1       8.461  -1.922  -2.902  1.00  0.00     0.303 C 
ATOM      3  O   UNL     1       9.538  -2.511  -3.080  1.00  0.00    -0.252 OA
BRANCH   2   4
ATOM      4  O   UNL     1       7.298  -2.454  -3.424  1.00  0.00    -0.481 OA
ATOM      5  H   UNL     1       6.381  -2.232  -3.045  1.00  0.00     0.296 HD
ENDBRANCH   2   4
ENDBRANCH   1   2
BRANCH   1   6
ATOM      6  C   UNL     1       7.009  -0.088  -2.147  1.00  0.00     0.047 C 
BRANCH   6   7
ATOM      7  C   UNL     1       6.458   0.099  -0.791  1.00  0.00    -0.047 A 
ATOM      8  C   UNL     1       5.816   1.234  -0.368  1.00  0.00     0.004 A 
ATOM      9  C   UNL     1       6.602  -0.936   0.103  1.00  0.00     0.004 A 
ATOM     10  C   UNL     1       5.332   1.324   0.923  1.00  0.00     0.000 A 
ATOM     11  C   UNL     1       6.132  -0.867   1.381  1.00  0.00     0.000 A 
ATOM     12  C   UNL     1       5.486   0.274   1.807  1.00  0.00     0.000 A 
ENDBRANCH   6   7
ENDBRANCH   1   6
TORSDOF 4
ENDMDL
MODEL 3
REMARK VINA RESULT:      -7.2      0.682      1.609
REMARK SMILES O=C(O)CCc1ccccc1
REMARK SMILES IDX 4 1 2 2 1 3 3 4 5 6 6 7 7 8 11 9 8 10 10 11 9 12
REMARK H PARENT 3 5
REMARK Flexibility Score: inf
ROOT
ATOM      1  C   UNL     1       8.307  -0.985  -1.796  1.00  0.00     0.127 C 
ENDROOT
BRANCH   1   2
ATOM      2  C   UNL     1       8.452  -2.035  -2.831  1.00  0.00     0.303 C 
ATOM      3  O   UNL     1       9.569  -2.488  -3.125  1.00  0.00    -0.252 OA
BRANCH   2   4
ATOM      4  O   UNL     1       7.329  -2.515  -3.479  1.00  0.00    -0.481 OA
ATOM      5  H   UNL     1       6.456  -1.997  -3.506  1.00  0.00     0.296 HD
ENDBRANCH   2   4
ENDBRANCH   1   2
BRANCH   1   6
ATOM      6  C   UNL     1       7.317  -1.413  -0.742  1.00  0.00     0.047 C 
BRANCH   6   7
ATOM      7  C   UNL     1       6.521  -0.289  -0.213  1.00  0.00    -0.047 A 
ATOM      8  C   UNL     1       6.190   0.829  -0.935  1.00  0.00     0.004 A 
ATOM      9  C   UNL     1       6.087  -0.371   1.088  1.00  0.00     0.004 A 
ATOM     10  C   UNL     1       5.441   1.837  -0.359  1.00  0.00     0.000 A 
ATOM     11  C   UNL     1       5.347   0.612   1.676  1.00  0.00     0.000 A 
ATOM     12  C   UNL     1       5.014   1.736   0.950  1.00  0.00     0.000 A 
ENDBRANCH   6   7
ENDBRANCH   1   6
TORSDOF 4
ENDMDL
MODEL 4
REMARK VINA RESULT:      -6.8      3.375      5.064
REMARK SMILES O=C(O)CCc1ccccc1
REMARK SMILES IDX 4 1 2 2 1 3 3 4 5 6 6 7 7 8 11 9 8 10 10 11 9 12
REMARK H PARENT 3 5
REMARK Flexibility Score: inf
ROOT
ATOM      1  C   UNL     1       5.010   1.782   0.738  1.00  0.00     0.127 C 
ENDROOT
BRANCH   1   2
ATOM      2  C   UNL     1       4.486   1.090   1.939  1.00  0.00     0.303 C 
ATOM      3  O   UNL     1       5.135   0.185   2.485  1.00  0.00    -0.252 OA
BRANCH   2   4
ATOM      4  O   UNL     1       3.259   1.458   2.457  1.00  0.00    -0.481 OA
ATOM      5  H   UNL     1       3.126   2.318   2.981  1.00  0.00     0.296 HD
ENDBRANCH   2   4
ENDBRANCH   1   2
BRANCH   1   6
ATOM      6  C   UNL     1       6.518   1.796   0.750  1.00  0.00     0.047 C 
BRANCH   6   7
ATOM      7  C   UNL     1       7.107   0.998  -0.343  1.00  0.00    -0.047 A 
ATOM      8  C   UNL     1       6.427   0.042  -1.053  1.00  0.00     0.004 A 
ATOM      9  C   UNL     1       8.423   1.231  -0.665  1.00  0.00     0.004 A 
ATOM     10  C   UNL     1       7.058  -0.660  -2.062  1.00  0.00     0.000 A 
ATOM     11  C   UNL     1       9.064   0.549  -1.656  1.00  0.00     0.000 A 
ATOM     12  C   UNL     1       8.381  -0.412  -2.371  1.00  0.00     0.000 A 
ENDBRANCH   6   7
ENDBRANCH   1   6
TORSDOF 4
ENDMDL
MODEL 5
REMARK VINA RESULT:      -6.7      1.934      2.308
REMARK SMILES O=C(O)CCc1ccccc1
REMARK SMILES IDX 4 1 2 2 1 3 3 4 5 6 6 7 7 8 11 9 8 10 10 11 9 12
REMARK H PARENT 3 5
REMARK Flexibility Score: inf
ROOT
ATOM      1  C   UNL     1       8.263   0.225  -2.184  1.00  0.00     0.127 C 
ENDROOT
BRANCH   1   2
ATOM      2  C   UNL     1       9.391   0.345  -1.231  1.00  0.00     0.303 C 
ATOM      3  O   UNL     1       9.463  -0.393  -0.236  1.00  0.00    -0.252 OA
BRANCH   2   4
ATOM      4  O   UNL     1      10.373   1.291  -1.451  1.00  0.00    -0.481 OA
ATOM      5  H   UNL     1      11.325   1.038  -1.701  1.00  0.00     0.296 HD
ENDBRANCH   2   4
ENDBRANCH   1   2
BRANCH   1   6
ATOM      6  C   UNL     1       7.132  -0.563  -1.572  1.00  0.00     0.047 C 
BRANCH   6   7
ATOM      7  C   UNL     1       6.359   0.216  -0.586  1.00  0.00    -0.047 A 
ATOM      8  C   UNL     1       6.124  -0.187   0.703  1.00  0.00     0.004 A 
ATOM      9  C   UNL     1       5.842   1.424  -0.992  1.00  0.00     0.004 A 
ATOM     10  C   UNL     1       5.386   0.608   1.560  1.00  0.00     0.000 A 
ATOM     11  C   UNL     1       5.112   2.222  -0.163  1.00  0.00     0.000 A 
ATOM     12  C   UNL     1       4.876   1.818   1.134  1.00  0.00     0.000 A 
ENDBRANCH   6   7
ENDBRANCH   1   6
TORSDOF 4
ENDMDL
