@<TRIPOS>MOLECULE
/home/cewinharhar/GITHUB/reincatalyze/data/processed/docking_pred/2023-Apr-25-1630_maxeplen5_maxtrainstep200_exh32_gamma099_lrac3e-4_lrcr1e-3/31638bda67923b1bb66f4f033a77b51352de91e4_ligand_2.pdbqt
 12 12 0 0 0
SMALL
GASTEIGER

@<TRIPOS>ATOM
      1  C          5.0100    1.7820    0.7380 C.3     1  UNL1        0.1270
      2  C          4.4860    1.0900    1.9390 C.2     1  UNL1        0.3030
      3  O          5.1350    0.1850    2.4850 O.2     1  UNL1       -0.2520
      4  O          3.2590    1.4580    2.4570 O.3     1  UNL1       -0.4810
      5  H          3.1260    2.3180    2.9810 H       1  UNL1        0.2960
      6  C          6.5180    1.7960    0.7500 C.3     1  UNL1        0.0470
      7  C          7.1070    0.9980   -0.3430 C.2     1  UNL1       -0.0470
      8  C          6.4270    0.0420   -1.0530 C.2     1  UNL1        0.0040
      9  C          8.4230    1.2310   -0.6650 C.2     1  UNL1        0.0040
     10  C          7.0580   -0.6600   -2.0620 C.2     1  UNL1        0.0000
     11  C          9.0640    0.5490   -1.6560 C.2     1  UNL1        0.0000
     12  C          8.3810   -0.4120   -2.3710 C.2     1  UNL1        0.0000
@<TRIPOS>BOND
     1    12    10    2
     2    12    11    1
     3    10     8    1
     4    11     9    2
     5     8     7    2
     6     9     7    1
     7     7     6    1
     8     1     6    1
     9     1     2    1
    10     2     4    1
    11     2     3    2
    12     4     5    1
