@<TRIPOS>MOLECULE
/home/cewinharhar/GITHUB/reincatalyze/data/processed/docking_pred/2023-Apr-25-1630_maxeplen5_maxtrainstep200_exh32_gamma099_lrac3e-4_lrcr1e-3/31638bda67923b1bb66f4f033a77b51352de91e4_ligand_2.pdbqt
 12 12 0 0 0
SMALL
GASTEIGER

@<TRIPOS>ATOM
      1  C          8.4210   -0.6230   -2.1740 C.3     1  UNL1        0.1270
      2  C          8.4710   -1.9060   -2.9150 C.2     1  UNL1        0.3030
      3  O          9.5480   -2.4950   -3.0930 O.2     1  UNL1       -0.2520
      4  O          7.3030   -2.4510   -3.4140 O.3     1  UNL1       -0.4810
      5  H          6.6600   -1.9190   -3.9940 H       1  UNL1        0.2960
      6  C          7.0100   -0.0920   -2.1280 C.3     1  UNL1        0.0470
      7  C          6.4790    0.0060   -0.7550 C.2     1  UNL1       -0.0470
      8  C          6.5760   -0.9890    0.1830 C.2     1  UNL1        0.0040
      9  C          5.8470    1.1740   -0.3980 C.2     1  UNL1        0.0040
     10  C          6.0480   -0.8120    1.4470 C.2     1  UNL1        0.0000
     11  C          5.3190    1.3680    0.8440 C.2     1  UNL1        0.0000
     12  C          5.4160    0.3680    1.7870 C.2     1  UNL1        0.0000
@<TRIPOS>BOND
     1     5     4    1
     2     4     2    1
     3     3     2    2
     4     2     1    1
     5     1     6    1
     6     6     7    1
     7     7     9    2
     8     7     8    1
     9     9    11    1
    10     8    10    2
    11    11    12    2
    12    10    12    1
