@<TRIPOS>MOLECULE
/home/cewinharhar/GITHUB/reincatalyze/data/processed/docking_pred/2023-Apr-25-1630_maxeplen5_maxtrainstep200_exh32_gamma099_lrac3e-4_lrcr1e-3/32925d028e6f827171d23f19599134de0355568e_ligand_2.pdbqt
 12 12 0 0 0
SMALL
GASTEIGER

@<TRIPOS>ATOM
      1  C          8.4290   -0.5660   -2.2080 C.3     1  UNL1        0.1270
      2  C          8.4780   -1.8660   -2.9190 C.2     1  UNL1        0.3030
      3  O          9.5540   -2.4640   -3.0750 O.2     1  UNL1       -0.2520
      4  O          7.3120   -2.4170   -3.4150 O.3     1  UNL1       -0.4810
      5  H          6.4170   -1.9410   -3.3520 H       1  UNL1        0.2960
      6  C          7.0100   -0.0590   -2.1290 C.3     1  UNL1        0.0470
      7  C          6.4970   -0.0060   -0.7470 C.2     1  UNL1       -0.0470
      8  C          6.6180   -1.0270    0.1610 C.2     1  UNL1        0.0040
      9  C          5.8560    1.1430   -0.3480 C.2     1  UNL1        0.0040
     10  C          6.1060   -0.8930    1.4370 C.2     1  UNL1        0.0000
     11  C          5.3440    1.2950    0.9060 C.2     1  UNL1        0.0000
     12  C          5.4650    0.2690    1.8190 C.2     1  UNL1        0.0000
@<TRIPOS>BOND
     1     4     5    1
     2     4     2    1
     3     3     2    2
     4     2     1    1
     5     1     6    1
     6     6     7    1
     7     7     9    2
     8     7     8    1
     9     9    11    1
    10     8    10    2
    11    11    12    2
    12    10    12    1
