@<TRIPOS>MOLECULE
/home/cewinharhar/GITHUB/reincatalyze/data/processed/docking_pred/2023-Apr-25-1630_maxeplen5_maxtrainstep200_exh32_gamma099_lrac3e-4_lrcr1e-3/32925d028e6f827171d23f19599134de0355568e_ligand_2.pdbqt
 12 12 0 0 0
SMALL
GASTEIGER

@<TRIPOS>ATOM
      1  C          8.3870   -0.6550   -2.1020 C.3     1  UNL1        0.1270
      2  C          8.3650   -1.9080   -2.8950 C.2     1  UNL1        0.3030
      3  O          7.2910   -2.4150   -3.2520 O.2     1  UNL1       -0.2520
      4  O          9.5560   -2.5180   -3.2390 O.3     1  UNL1       -0.4810
      5  H          9.8810   -3.3680   -2.7880 H       1  UNL1        0.2960
      6  C          7.0320    0.0080   -2.1220 C.3     1  UNL1        0.0470
      7  C          6.4570    0.1750   -0.7740 C.2     1  UNL1       -0.0470
      8  C          5.7900    1.2970   -0.3530 C.2     1  UNL1        0.0040
      9  C          6.6020   -0.8640    0.1140 C.2     1  UNL1        0.0040
     10  C          5.2840    1.3680    0.9300 C.2     1  UNL1        0.0000
     11  C          6.1100   -0.8130    1.3850 C.2     1  UNL1        0.0000
     12  C          5.4400    0.3140    1.8090 C.2     1  UNL1        0.0000
@<TRIPOS>BOND
     1     3     2    2
     2     4     2    1
     3     4     5    1
     4     2     1    1
     5     6     1    1
     6     6     7    1
     7     7     8    2
     8     7     9    1
     9     8    10    1
    10     9    11    2
    11    10    12    2
    12    11    12    1
