@<TRIPOS>MOLECULE
/home/cewinharhar/GITHUB/reincatalyze/data/processed/docking_pred/2023-Apr-25-1630_maxeplen5_maxtrainstep200_exh32_gamma099_lrac3e-4_lrcr1e-3/32925d028e6f827171d23f19599134de0355568e_ligand_2.pdbqt
 12 12 0 0 0
SMALL
GASTEIGER

@<TRIPOS>ATOM
      1  C          8.1940   -1.5880    1.1100 C.3     1  UNL1        0.1270
      2  C          8.5070   -2.8110    0.3340 C.2     1  UNL1        0.3030
      3  O          9.1440   -3.7440    0.8480 O.2     1  UNL1       -0.2520
      4  O          8.0840   -2.9150   -0.9770 O.3     1  UNL1       -0.4810
      5  H          8.7110   -3.1790   -1.7310 H       1  UNL1        0.2960
      6  C          6.7080   -1.4710    1.3390 C.3     1  UNL1        0.0470
      7  C          6.1510   -0.1960    0.8470 C.2     1  UNL1       -0.0470
      8  C          5.3820    0.6530    1.6010 C.2     1  UNL1        0.0040
      9  C          6.4230    0.1580   -0.4540 C.2     1  UNL1        0.0040
     10  C          4.9010    1.8280    1.0570 C.2     1  UNL1        0.0000
     11  C          5.9560    1.3130   -1.0090 C.2     1  UNL1        0.0000
     12  C          5.1840    2.1670   -0.2510 C.2     1  UNL1        0.0000
@<TRIPOS>BOND
     1     5     4    1
     2    11     9    1
     3    11    12    2
     4     4     2    1
     5     9     7    2
     6    12    10    1
     7     2     3    2
     8     2     1    1
     9     7     6    1
    10     7     8    1
    11    10     8    2
    12     1     6    1
