@<TRIPOS>MOLECULE
/home/cewinharhar/GITHUB/reincatalyze/data/processed/docking_pred/2023-Apr-25-1630_maxeplen5_maxtrainstep200_exh32_gamma099_lrac3e-4_lrcr1e-3/32925d028e6f827171d23f19599134de0355568e_ligand_2.pdbqt
 12 12 0 0 0
SMALL
GASTEIGER

@<TRIPOS>ATOM
      1  C          5.0500    1.7230    0.7050 C.3     1  UNL1        0.1270
      2  C          4.5930    1.0300    1.9330 C.2     1  UNL1        0.3030
      3  O          5.3060    0.1780    2.4840 O.2     1  UNL1       -0.2520
      4  O          3.3570    1.3370    2.4690 O.3     1  UNL1       -0.4810
      5  H          3.2530    1.7550    3.3890 H       1  UNL1        0.2960
      6  C          6.5510    1.8730    0.7080 C.3     1  UNL1        0.0470
      7  C          7.2070    1.0900   -0.3570 C.2     1  UNL1       -0.0470
      8  C          8.5370    1.1850   -0.6760 C.2     1  UNL1        0.0040
      9  C          6.4290    0.2110   -1.0720 C.2     1  UNL1        0.0040
     10  C          9.0690    0.4130   -1.6910 C.2     1  UNL1        0.0000
     11  C          6.9350   -0.5600   -2.0770 C.2     1  UNL1        0.0000
     12  C          8.2720   -0.4650   -2.3990 C.2     1  UNL1        0.0000
@<TRIPOS>BOND
     1    12    11    2
     2    12    10    1
     3    11     9    1
     4    10     8    2
     5     9     7    2
     6     8     7    1
     7     7     6    1
     8     1     6    1
     9     1     2    1
    10     2     4    1
    11     2     3    2
    12     4     5    1
