@<TRIPOS>MOLECULE
/home/cewinharhar/GITHUB/reincatalyze/data/processed/docking_pred/2023-Apr-25-1630_maxeplen5_maxtrainstep200_exh32_gamma099_lrac3e-4_lrcr1e-3/32925d028e6f827171d23f19599134de0355568e_ligand_2.pdbqt
 12 12 0 0 0
SMALL
GASTEIGER

@<TRIPOS>ATOM
      1  C          8.2940    0.1650   -2.1320 C.3     1  UNL1        0.1270
      2  C          9.4220    0.3440   -1.1880 C.2     1  UNL1        0.3030
      3  O          9.5210   -0.3650   -0.1750 O.2     1  UNL1       -0.2520
      4  O         10.3750    1.3130   -1.4390 O.3     1  UNL1       -0.4810
      5  H         10.1290    2.2490   -1.7480 H       1  UNL1        0.2960
      6  C          7.1810   -0.6220   -1.4850 C.3     1  UNL1        0.0470
      7  C          6.3730    0.1890   -0.5540 C.2     1  UNL1       -0.0470
      8  C          5.8140    1.4000   -0.8710 C.2     1  UNL1        0.0040
      9  C          6.1720   -0.3060    0.7120 C.2     1  UNL1        0.0040
     10  C          5.0710    2.0930    0.0650 C.2     1  UNL1        0.0000
     11  C          5.4430    0.3620    1.6510 C.2     1  UNL1        0.0000
     12  C          4.8800    1.5800    1.3320 C.2     1  UNL1        0.0000
@<TRIPOS>BOND
     1     1     6    1
     2     1     2    1
     3     5     4    1
     4     6     7    1
     5     4     2    1
     6     2     3    2
     7     8     7    2
     8     8    10    1
     9     7     9    1
    10    10    12    2
    11     9    11    2
    12    12    11    1
