MODEL 1
REMARK VINA RESULT:      -7.3      0.000      0.000
REMARK SMILES O=C(O)CCc1ccccc1
REMARK SMILES IDX 4 1 2 2 1 3 3 4 5 6 6 7 7 8 11 9 8 10 10 11 9 12
REMARK H PARENT 3 5
REMARK Flexibility Score: inf
ROOT
ATOM      1  C   UNL     1       8.429  -0.566  -2.208  1.00  0.00     0.127 C 
ENDROOT
BRANCH   1   2
ATOM      2  C   UNL     1       8.478  -1.866  -2.919  1.00  0.00     0.303 C 
ATOM      3  O   UNL     1       9.554  -2.464  -3.075  1.00  0.00    -0.252 OA
BRANCH   2   4
ATOM      4  O   UNL     1       7.312  -2.417  -3.415  1.00  0.00    -0.481 OA
ATOM      5  H   UNL     1       6.417  -1.941  -3.352  1.00  0.00     0.296 HD
ENDBRANCH   2   4
ENDBRANCH   1   2
BRANCH   1   6
ATOM      6  C   UNL     1       7.010  -0.059  -2.129  1.00  0.00     0.047 C 
BRANCH   6   7
ATOM      7  C   UNL     1       6.497  -0.006  -0.747  1.00  0.00    -0.047 A 
ATOM      8  C   UNL     1       6.618  -1.027   0.161  1.00  0.00     0.004 A 
ATOM      9  C   UNL     1       5.856   1.143  -0.348  1.00  0.00     0.004 A 
ATOM     10  C   UNL     1       6.106  -0.893   1.437  1.00  0.00     0.000 A 
ATOM     11  C   UNL     1       5.344   1.295   0.906  1.00  0.00     0.000 A 
ATOM     12  C   UNL     1       5.465   0.269   1.819  1.00  0.00     0.000 A 
ENDBRANCH   6   7
ENDBRANCH   1   6
TORSDOF 4
ENDMDL
MODEL 2
REMARK VINA RESULT:      -7.3      0.139      1.726
REMARK SMILES O=C(O)CCc1ccccc1
REMARK SMILES IDX 4 1 2 2 1 3 3 4 5 6 6 7 7 8 11 9 8 10 10 11 9 12
REMARK H PARENT 3 5
REMARK Flexibility Score: inf
ROOT
ATOM      1  C   UNL     1       8.387  -0.655  -2.102  1.00  0.00     0.127 C 
ENDROOT
BRANCH   1   2
ATOM      2  C   UNL     1       8.365  -1.908  -2.895  1.00  0.00     0.303 C 
ATOM      3  O   UNL     1       7.291  -2.415  -3.252  1.00  0.00    -0.252 OA
BRANCH   2   4
ATOM      4  O   UNL     1       9.556  -2.518  -3.239  1.00  0.00    -0.481 OA
ATOM      5  H   UNL     1       9.881  -3.368  -2.788  1.00  0.00     0.296 HD
ENDBRANCH   2   4
ENDBRANCH   1   2
BRANCH   1   6
ATOM      6  C   UNL     1       7.032   0.008  -2.122  1.00  0.00     0.047 C 
BRANCH   6   7
ATOM      7  C   UNL     1       6.457   0.175  -0.774  1.00  0.00    -0.047 A 
ATOM      8  C   UNL     1       5.790   1.297  -0.353  1.00  0.00     0.004 A 
ATOM      9  C   UNL     1       6.602  -0.864   0.114  1.00  0.00     0.004 A 
ATOM     10  C   UNL     1       5.284   1.368   0.930  1.00  0.00     0.000 A 
ATOM     11  C   UNL     1       6.110  -0.813   1.385  1.00  0.00     0.000 A 
ATOM     12  C   UNL     1       5.440   0.314   1.809  1.00  0.00     0.000 A 
ENDBRANCH   6   7
ENDBRANCH   1   6
TORSDOF 4
ENDMDL
MODEL 3
REMARK VINA RESULT:      -6.8      3.341      5.033
REMARK SMILES O=C(O)CCc1ccccc1
REMARK SMILES IDX 4 1 2 2 1 3 3 4 5 6 6 7 7 8 11 9 8 10 10 11 9 12
REMARK H PARENT 3 5
REMARK Flexibility Score: inf
ROOT
ATOM      1  C   UNL     1       5.050   1.723   0.705  1.00  0.00     0.127 C 
ENDROOT
BRANCH   1   2
ATOM      2  C   UNL     1       4.593   1.030   1.933  1.00  0.00     0.303 C 
ATOM      3  O   UNL     1       5.306   0.178   2.484  1.00  0.00    -0.252 OA
BRANCH   2   4
ATOM      4  O   UNL     1       3.357   1.337   2.469  1.00  0.00    -0.481 OA
ATOM      5  H   UNL     1       3.253   1.755   3.389  1.00  0.00     0.296 HD
ENDBRANCH   2   4
ENDBRANCH   1   2
BRANCH   1   6
ATOM      6  C   UNL     1       6.551   1.873   0.708  1.00  0.00     0.047 C 
BRANCH   6   7
ATOM      7  C   UNL     1       7.207   1.090  -0.357  1.00  0.00    -0.047 A 
ATOM      8  C   UNL     1       8.537   1.185  -0.676  1.00  0.00     0.004 A 
ATOM      9  C   UNL     1       6.429   0.211  -1.072  1.00  0.00     0.004 A 
ATOM     10  C   UNL     1       9.069   0.413  -1.691  1.00  0.00     0.000 A 
ATOM     11  C   UNL     1       6.935  -0.560  -2.077  1.00  0.00     0.000 A 
ATOM     12  C   UNL     1       8.272  -0.465  -2.399  1.00  0.00     0.000 A 
ENDBRANCH   6   7
ENDBRANCH   1   6
TORSDOF 4
ENDMDL
MODEL 4
REMARK VINA RESULT:      -6.6      1.939      2.641
REMARK SMILES O=C(O)CCc1ccccc1
REMARK SMILES IDX 4 1 2 2 1 3 3 4 5 6 6 7 7 8 11 9 8 10 10 11 9 12
REMARK H PARENT 3 5
REMARK Flexibility Score: inf
ROOT
ATOM      1  C   UNL     1       8.294   0.165  -2.132  1.00  0.00     0.127 C 
ENDROOT
BRANCH   1   2
ATOM      2  C   UNL     1       9.422   0.344  -1.188  1.00  0.00     0.303 C 
ATOM      3  O   UNL     1       9.521  -0.365  -0.175  1.00  0.00    -0.252 OA
BRANCH   2   4
ATOM      4  O   UNL     1      10.375   1.313  -1.439  1.00  0.00    -0.481 OA
ATOM      5  H   UNL     1      10.129   2.249  -1.748  1.00  0.00     0.296 HD
ENDBRANCH   2   4
ENDBRANCH   1   2
BRANCH   1   6
ATOM      6  C   UNL     1       7.181  -0.622  -1.485  1.00  0.00     0.047 C 
BRANCH   6   7
ATOM      7  C   UNL     1       6.373   0.189  -0.554  1.00  0.00    -0.047 A 
ATOM      8  C   UNL     1       5.814   1.400  -0.871  1.00  0.00     0.004 A 
ATOM      9  C   UNL     1       6.172  -0.306   0.712  1.00  0.00     0.004 A 
ATOM     10  C   UNL     1       5.071   2.093   0.065  1.00  0.00     0.000 A 
ATOM     11  C   UNL     1       5.443   0.362   1.651  1.00  0.00     0.000 A 
ATOM     12  C   UNL     1       4.880   1.580   1.332  1.00  0.00     0.000 A 
ENDBRANCH   6   7
ENDBRANCH   1   6
TORSDOF 4
ENDMDL
MODEL 5
REMARK VINA RESULT:      -6.6      1.889      2.909
REMARK SMILES O=C(O)CCc1ccccc1
REMARK SMILES IDX 4 1 2 2 1 3 3 4 5 6 6 7 7 8 11 9 8 10 10 11 9 12
REMARK H PARENT 3 5
REMARK Flexibility Score: inf
ROOT
ATOM      1  C   UNL     1       8.194  -1.588   1.110  1.00  0.00     0.127 C 
ENDROOT
BRANCH   1   2
ATOM      2  C   UNL     1       8.507  -2.811   0.334  1.00  0.00     0.303 C 
ATOM      3  O   UNL     1       9.144  -3.744   0.848  1.00  0.00    -0.252 OA
BRANCH   2   4
ATOM      4  O   UNL     1       8.084  -2.915  -0.977  1.00  0.00    -0.481 OA
ATOM      5  H   UNL     1       8.711  -3.179  -1.731  1.00  0.00     0.296 HD
ENDBRANCH   2   4
ENDBRANCH   1   2
BRANCH   1   6
ATOM      6  C   UNL     1       6.708  -1.471   1.339  1.00  0.00     0.047 C 
BRANCH   6   7
ATOM      7  C   UNL     1       6.151  -0.196   0.847  1.00  0.00    -0.047 A 
ATOM      8  C   UNL     1       5.382   0.653   1.601  1.00  0.00     0.004 A 
ATOM      9  C   UNL     1       6.423   0.158  -0.454  1.00  0.00     0.004 A 
ATOM     10  C   UNL     1       4.901   1.828   1.057  1.00  0.00     0.000 A 
ATOM     11  C   UNL     1       5.956   1.313  -1.009  1.00  0.00     0.000 A 
ATOM     12  C   UNL     1       5.184   2.167  -0.251  1.00  0.00     0.000 A 
ENDBRANCH   6   7
ENDBRANCH   1   6
TORSDOF 4
ENDMDL
