@<TRIPOS>MOLECULE
/home/cewinharhar/GITHUB/reincatalyze/data/processed/docking_pred/2023-Apr-25-1630_maxeplen5_maxtrainstep200_exh32_gamma099_lrac3e-4_lrcr1e-3/354626f0a3e222b5e9865005b72eb67019ec4e19_ligand_2.pdbqt
 12 12 0 0 0
SMALL
GASTEIGER

@<TRIPOS>ATOM
      1  C          8.4460   -0.6090   -2.1790 C.3     1  UNL1        0.1270
      2  C          8.4910   -1.8950   -2.9140 C.2     1  UNL1        0.3030
      3  O          9.5670   -2.4860   -3.0950 O.2     1  UNL1       -0.2520
      4  O          7.3210   -2.4430   -3.4040 O.3     1  UNL1       -0.4810
      5  H          7.3170   -3.2190   -4.0600 H       1  UNL1        0.2960
      6  C          7.0350   -0.0810   -2.1220 C.3     1  UNL1        0.0470
      7  C          6.5090   -0.0010   -0.7460 C.2     1  UNL1       -0.0470
      8  C          6.6240   -1.0030    0.1840 C.2     1  UNL1        0.0040
      9  C          5.8610    1.1540   -0.3770 C.2     1  UNL1        0.0040
     10  C          6.0990   -0.8440    1.4520 C.2     1  UNL1        0.0000
     11  C          5.3360    1.3310    0.8690 C.2     1  UNL1        0.0000
     12  C          5.4520    0.3240    1.8040 C.2     1  UNL1        0.0000
@<TRIPOS>BOND
     1     5     4    1
     2     4     2    1
     3     3     2    2
     4     2     1    1
     5     1     6    1
     6     6     7    1
     7     7     9    2
     8     7     8    1
     9     9    11    1
    10     8    10    2
    11    11    12    2
    12    10    12    1
