@<TRIPOS>MOLECULE
/home/cewinharhar/GITHUB/reincatalyze/data/processed/docking_pred/2023-Apr-25-1630_maxeplen5_maxtrainstep200_exh32_gamma099_lrac3e-4_lrcr1e-3/354626f0a3e222b5e9865005b72eb67019ec4e19_ligand_2.pdbqt
 12 12 0 0 0
SMALL
GASTEIGER

@<TRIPOS>ATOM
      1  C          5.4470    2.9150    0.0160 C.3     1  UNL1        0.1270
      2  C          6.2600    3.8650    0.8120 C.2     1  UNL1        0.3030
      3  O          6.8960    4.7750    0.2580 O.2     1  UNL1       -0.2520
      4  O          6.3080    3.7360    2.1860 O.3     1  UNL1       -0.4810
      5  H          5.5100    3.9440    2.7800 H       1  UNL1        0.2960
      6  C          4.8960    1.8210    0.8970 C.3     1  UNL1        0.0470
      7  C          5.7270    0.6020    0.8830 C.2     1  UNL1       -0.0470
      8  C          6.4900    0.1990   -0.1840 C.2     1  UNL1        0.0040
      9  C          5.7310   -0.1790    2.0140 C.2     1  UNL1        0.0040
     10  C          7.2370   -0.9600   -0.1100 C.2     1  UNL1        0.0000
     11  C          6.4610   -1.3270    2.1060 C.2     1  UNL1        0.0000
     12  C          7.2290   -1.7320    1.0350 C.2     1  UNL1        0.0000
@<TRIPOS>BOND
     1     8    10    1
     2     8     7    2
     3    10    12    2
     4     1     2    1
     5     1     6    1
     6     3     2    2
     7     2     4    1
     8     7     6    1
     9     7     9    1
    10    12    11    1
    11     9    11    2
    12     4     5    1
