@<TRIPOS>MOLECULE
/home/cewinharhar/GITHUB/reincatalyze/data/processed/docking_pred/2023-Apr-25-1630_maxeplen5_maxtrainstep200_exh32_gamma099_lrac3e-4_lrcr1e-3/354626f0a3e222b5e9865005b72eb67019ec4e19_ligand_2.pdbqt
 12 12 0 0 0
SMALL
GASTEIGER

@<TRIPOS>ATOM
      1  C          8.3470   -1.0250   -1.7300 C.3     1  UNL1        0.1270
      2  C          8.4700   -2.0350   -2.8070 C.2     1  UNL1        0.3030
      3  O          9.5810   -2.4700   -3.1470 O.2     1  UNL1       -0.2520
      4  O          7.3330   -2.4980   -3.4420 O.3     1  UNL1       -0.4810
      5  H          6.4020   -2.1800   -3.1890 H       1  UNL1        0.2960
      6  C          7.2980   -1.4430   -0.7290 C.3     1  UNL1        0.0470
      7  C          6.5190   -0.3030   -0.2080 C.2     1  UNL1       -0.0470
      8  C          6.1860    0.8050   -0.9430 C.2     1  UNL1        0.0040
      9  C          6.1030   -0.3620    1.1010 C.2     1  UNL1        0.0040
     10  C          5.4530    1.8280   -0.3730 C.2     1  UNL1        0.0000
     11  C          5.3790    0.6370    1.6830 C.2     1  UNL1        0.0000
     12  C          5.0440    1.7510    0.9440 C.2     1  UNL1        0.0000
@<TRIPOS>BOND
     1     4     5    1
     2     4     2    1
     3     3     2    2
     4     2     1    1
     5     1     6    1
     6     8    10    1
     7     8     7    2
     8     6     7    1
     9    10    12    2
    10     7     9    1
    11    12    11    1
    12     9    11    2
