@<TRIPOS>MOLECULE
/home/cewinharhar/GITHUB/reincatalyze/data/processed/docking_pred/2023-Apr-25-1630_maxeplen5_maxtrainstep200_exh32_gamma099_lrac3e-4_lrcr1e-3/354626f0a3e222b5e9865005b72eb67019ec4e19_ligand_2.pdbqt
 12 12 0 0 0
SMALL
GASTEIGER

@<TRIPOS>ATOM
      1  C          5.0130    1.7840    0.7360 C.3     1  UNL1        0.1270
      2  C          4.4830    1.0910    1.9340 C.2     1  UNL1        0.3030
      3  O          5.1260    0.1800    2.4770 O.2     1  UNL1       -0.2520
      4  O          3.2570    1.4640    2.4510 O.3     1  UNL1       -0.4810
      5  H          2.3790    1.1840    2.0240 H       1  UNL1        0.2960
      6  C          6.5210    1.7900    0.7520 C.3     1  UNL1        0.0470
      7  C          7.1080    0.9900   -0.3400 C.2     1  UNL1       -0.0470
      8  C          6.4290    0.0290   -1.0450 C.2     1  UNL1        0.0040
      9  C          8.4230    1.2270   -0.6680 C.2     1  UNL1        0.0040
     10  C          7.0600   -0.6740   -2.0530 C.2     1  UNL1        0.0000
     11  C          9.0630    0.5430   -1.6590 C.2     1  UNL1        0.0000
     12  C          8.3800   -0.4220   -2.3680 C.2     1  UNL1        0.0000
@<TRIPOS>BOND
     1    12    10    2
     2    12    11    1
     3    10     8    1
     4    11     9    2
     5     8     7    2
     6     9     7    1
     7     7     6    1
     8     1     6    1
     9     1     2    1
    10     2     4    1
    11     2     3    2
    12     5     4    1
