@<TRIPOS>MOLECULE
/home/cewinharhar/GITHUB/reincatalyze/data/processed/docking_pred/2023-Apr-25-1630_maxeplen5_maxtrainstep200_exh32_gamma099_lrac3e-4_lrcr1e-3/354626f0a3e222b5e9865005b72eb67019ec4e19_ligand_2.pdbqt
 12 12 0 0 0
SMALL
GASTEIGER

@<TRIPOS>ATOM
      1  C          8.4260   -0.6230   -2.1470 C.3     1  UNL1        0.1270
      2  C          8.4910   -1.8940   -2.9070 C.2     1  UNL1        0.3030
      3  O          9.5740   -2.4740   -3.0850 O.2     1  UNL1       -0.2520
      4  O          7.3320   -2.4400   -3.4240 O.3     1  UNL1       -0.4810
      5  H          7.2980   -3.3800   -3.8080 H       1  UNL1        0.2960
      6  C          7.0210   -0.0750   -2.1520 C.3     1  UNL1        0.0470
      7  C          6.4710    0.1020   -0.7940 C.2     1  UNL1       -0.0470
      8  C          5.8310    1.2350   -0.3610 C.2     1  UNL1        0.0040
      9  C          6.6130   -0.9400    0.0910 C.2     1  UNL1        0.0040
     10  C          5.3480    1.3140    0.9310 C.2     1  UNL1        0.0000
     11  C          6.1440   -0.8820    1.3700 C.2     1  UNL1        0.0000
     12  C          5.5000    0.2570    1.8060 C.2     1  UNL1        0.0000
@<TRIPOS>BOND
     1     5     4    1
     2     4     2    1
     3     3     2    2
     4     2     1    1
     5     6     1    1
     6     6     7    1
     7     7     8    2
     8     7     9    1
     9     8    10    1
    10     9    11    2
    11    10    12    2
    12    11    12    1
