MODEL 1
REMARK VINA RESULT:      -7.3      0.000      0.000
REMARK SMILES O=C(O)CCc1ccccc1
REMARK SMILES IDX 4 1 2 2 1 3 3 4 5 6 6 7 7 8 11 9 8 10 10 11 9 12
REMARK H PARENT 3 5
REMARK Flexibility Score: inf
ROOT
ATOM      1  C   UNL     1       8.446  -0.609  -2.179  1.00  0.00     0.127 C 
ENDROOT
BRANCH   1   2
ATOM      2  C   UNL     1       8.491  -1.895  -2.914  1.00  0.00     0.303 C 
ATOM      3  O   UNL     1       9.567  -2.486  -3.095  1.00  0.00    -0.252 OA
BRANCH   2   4
ATOM      4  O   UNL     1       7.321  -2.443  -3.404  1.00  0.00    -0.481 OA
ATOM      5  H   UNL     1       7.317  -3.219  -4.060  1.00  0.00     0.296 HD
ENDBRANCH   2   4
ENDBRANCH   1   2
BRANCH   1   6
ATOM      6  C   UNL     1       7.035  -0.081  -2.122  1.00  0.00     0.047 C 
BRANCH   6   7
ATOM      7  C   UNL     1       6.509  -0.001  -0.746  1.00  0.00    -0.047 A 
ATOM      8  C   UNL     1       6.624  -1.003   0.184  1.00  0.00     0.004 A 
ATOM      9  C   UNL     1       5.861   1.154  -0.377  1.00  0.00     0.004 A 
ATOM     10  C   UNL     1       6.099  -0.844   1.452  1.00  0.00     0.000 A 
ATOM     11  C   UNL     1       5.336   1.331   0.869  1.00  0.00     0.000 A 
ATOM     12  C   UNL     1       5.452   0.324   1.804  1.00  0.00     0.000 A 
ENDBRANCH   6   7
ENDBRANCH   1   6
TORSDOF 4
ENDMDL
MODEL 2
REMARK VINA RESULT:      -7.3      0.073      1.428
REMARK SMILES O=C(O)CCc1ccccc1
REMARK SMILES IDX 4 1 2 2 1 3 3 4 5 6 6 7 7 8 11 9 8 10 10 11 9 12
REMARK H PARENT 3 5
REMARK Flexibility Score: inf
ROOT
ATOM      1  C   UNL     1       8.426  -0.623  -2.147  1.00  0.00     0.127 C 
ENDROOT
BRANCH   1   2
ATOM      2  C   UNL     1       8.491  -1.894  -2.907  1.00  0.00     0.303 C 
ATOM      3  O   UNL     1       9.574  -2.474  -3.085  1.00  0.00    -0.252 OA
BRANCH   2   4
ATOM      4  O   UNL     1       7.332  -2.440  -3.424  1.00  0.00    -0.481 OA
ATOM      5  H   UNL     1       7.298  -3.380  -3.808  1.00  0.00     0.296 HD
ENDBRANCH   2   4
ENDBRANCH   1   2
BRANCH   1   6
ATOM      6  C   UNL     1       7.021  -0.075  -2.152  1.00  0.00     0.047 C 
BRANCH   6   7
ATOM      7  C   UNL     1       6.471   0.102  -0.794  1.00  0.00    -0.047 A 
ATOM      8  C   UNL     1       5.831   1.235  -0.361  1.00  0.00     0.004 A 
ATOM      9  C   UNL     1       6.613  -0.940   0.091  1.00  0.00     0.004 A 
ATOM     10  C   UNL     1       5.348   1.314   0.931  1.00  0.00     0.000 A 
ATOM     11  C   UNL     1       6.144  -0.882   1.370  1.00  0.00     0.000 A 
ATOM     12  C   UNL     1       5.500   0.257   1.806  1.00  0.00     0.000 A 
ENDBRANCH   6   7
ENDBRANCH   1   6
TORSDOF 4
ENDMDL
MODEL 3
REMARK VINA RESULT:      -7.2      0.708      1.621
REMARK SMILES O=C(O)CCc1ccccc1
REMARK SMILES IDX 4 1 2 2 1 3 3 4 5 6 6 7 7 8 11 9 8 10 10 11 9 12
REMARK H PARENT 3 5
REMARK Flexibility Score: inf
ROOT
ATOM      1  C   UNL     1       8.347  -1.025  -1.730  1.00  0.00     0.127 C 
ENDROOT
BRANCH   1   2
ATOM      2  C   UNL     1       8.470  -2.035  -2.807  1.00  0.00     0.303 C 
ATOM      3  O   UNL     1       9.581  -2.470  -3.147  1.00  0.00    -0.252 OA
BRANCH   2   4
ATOM      4  O   UNL     1       7.333  -2.498  -3.442  1.00  0.00    -0.481 OA
ATOM      5  H   UNL     1       6.402  -2.180  -3.189  1.00  0.00     0.296 HD
ENDBRANCH   2   4
ENDBRANCH   1   2
BRANCH   1   6
ATOM      6  C   UNL     1       7.298  -1.443  -0.729  1.00  0.00     0.047 C 
BRANCH   6   7
ATOM      7  C   UNL     1       6.519  -0.303  -0.208  1.00  0.00    -0.047 A 
ATOM      8  C   UNL     1       6.186   0.805  -0.943  1.00  0.00     0.004 A 
ATOM      9  C   UNL     1       6.103  -0.362   1.101  1.00  0.00     0.004 A 
ATOM     10  C   UNL     1       5.453   1.828  -0.373  1.00  0.00     0.000 A 
ATOM     11  C   UNL     1       5.379   0.637   1.683  1.00  0.00     0.000 A 
ATOM     12  C   UNL     1       5.044   1.751   0.944  1.00  0.00     0.000 A 
ENDBRANCH   6   7
ENDBRANCH   1   6
TORSDOF 4
ENDMDL
MODEL 4
REMARK VINA RESULT:      -6.8      3.372      5.063
REMARK SMILES O=C(O)CCc1ccccc1
REMARK SMILES IDX 4 1 2 2 1 3 3 4 5 6 6 7 7 8 11 9 8 10 10 11 9 12
REMARK H PARENT 3 5
REMARK Flexibility Score: inf
ROOT
ATOM      1  C   UNL     1       5.013   1.784   0.736  1.00  0.00     0.127 C 
ENDROOT
BRANCH   1   2
ATOM      2  C   UNL     1       4.483   1.091   1.934  1.00  0.00     0.303 C 
ATOM      3  O   UNL     1       5.126   0.180   2.477  1.00  0.00    -0.252 OA
BRANCH   2   4
ATOM      4  O   UNL     1       3.257   1.464   2.451  1.00  0.00    -0.481 OA
ATOM      5  H   UNL     1       2.379   1.184   2.024  1.00  0.00     0.296 HD
ENDBRANCH   2   4
ENDBRANCH   1   2
BRANCH   1   6
ATOM      6  C   UNL     1       6.521   1.790   0.752  1.00  0.00     0.047 C 
BRANCH   6   7
ATOM      7  C   UNL     1       7.108   0.990  -0.340  1.00  0.00    -0.047 A 
ATOM      8  C   UNL     1       6.429   0.029  -1.045  1.00  0.00     0.004 A 
ATOM      9  C   UNL     1       8.423   1.227  -0.668  1.00  0.00     0.004 A 
ATOM     10  C   UNL     1       7.060  -0.674  -2.053  1.00  0.00     0.000 A 
ATOM     11  C   UNL     1       9.063   0.543  -1.659  1.00  0.00     0.000 A 
ATOM     12  C   UNL     1       8.380  -0.422  -2.368  1.00  0.00     0.000 A 
ENDBRANCH   6   7
ENDBRANCH   1   6
TORSDOF 4
ENDMDL
MODEL 5
REMARK VINA RESULT:      -6.7      3.824      4.968
REMARK SMILES O=C(O)CCc1ccccc1
REMARK SMILES IDX 4 1 2 2 1 3 3 4 5 6 6 7 7 8 11 9 8 10 10 11 9 12
REMARK H PARENT 3 5
REMARK Flexibility Score: inf
ROOT
ATOM      1  C   UNL     1       5.447   2.915   0.016  1.00  0.00     0.127 C 
ENDROOT
BRANCH   1   2
ATOM      2  C   UNL     1       6.260   3.865   0.812  1.00  0.00     0.303 C 
ATOM      3  O   UNL     1       6.896   4.775   0.258  1.00  0.00    -0.252 OA
BRANCH   2   4
ATOM      4  O   UNL     1       6.308   3.736   2.186  1.00  0.00    -0.481 OA
ATOM      5  H   UNL     1       5.510   3.944   2.780  1.00  0.00     0.296 HD
ENDBRANCH   2   4
ENDBRANCH   1   2
BRANCH   1   6
ATOM      6  C   UNL     1       4.896   1.821   0.897  1.00  0.00     0.047 C 
BRANCH   6   7
ATOM      7  C   UNL     1       5.727   0.602   0.883  1.00  0.00    -0.047 A 
ATOM      8  C   UNL     1       6.490   0.199  -0.184  1.00  0.00     0.004 A 
ATOM      9  C   UNL     1       5.731  -0.179   2.014  1.00  0.00     0.004 A 
ATOM     10  C   UNL     1       7.237  -0.960  -0.110  1.00  0.00     0.000 A 
ATOM     11  C   UNL     1       6.461  -1.327   2.106  1.00  0.00     0.000 A 
ATOM     12  C   UNL     1       7.229  -1.732   1.035  1.00  0.00     0.000 A 
ENDBRANCH   6   7
ENDBRANCH   1   6
TORSDOF 4
ENDMDL
