@<TRIPOS>MOLECULE
/home/cewinharhar/GITHUB/reincatalyze/data/processed/docking_pred/2023-Apr-25-1630_maxeplen5_maxtrainstep200_exh32_gamma099_lrac3e-4_lrcr1e-3/36543b95c0c748273319382419c31c9b55863a9a_ligand_2.pdbqt
 12 12 0 0 0
SMALL
GASTEIGER

@<TRIPOS>ATOM
      1  C          5.4260    2.9250    0.0880 C.3     1  UNL1        0.1270
      2  C          6.2500    3.9060    0.8320 C.2     1  UNL1        0.3030
      3  O          6.9010    4.7750    0.2310 O.2     1  UNL1       -0.2520
      4  O          6.2950    3.8520    2.2120 O.3     1  UNL1       -0.4810
      5  H          7.1680    3.8930    2.7300 H       1  UNL1        0.2960
      6  C          4.9350    1.8370    1.0100 C.3     1  UNL1        0.0470
      7  C          5.7250    0.5950    0.9020 C.2     1  UNL1       -0.0470
      8  C          5.8950   -0.3030    1.9240 C.2     1  UNL1        0.0040
      9  C          6.3290    0.3270   -0.3030 C.2     1  UNL1        0.0040
     10  C          6.6540   -1.4410    1.7350 C.2     1  UNL1        0.0000
     11  C          7.0830   -0.7910   -0.5100 C.2     1  UNL1        0.0000
     12  C          7.2530   -1.6940    0.5170 C.2     1  UNL1        0.0000
@<TRIPOS>BOND
     1    11     9    1
     2    11    12    2
     3     9     7    2
     4     1     2    1
     5     1     6    1
     6     3     2    2
     7    12    10    1
     8     2     4    1
     9     7     6    1
    10     7     8    1
    11    10     8    2
    12     4     5    1
