@<TRIPOS>MOLECULE
/home/cewinharhar/GITHUB/reincatalyze/data/processed/docking_pred/2023-Apr-25-1630_maxeplen5_maxtrainstep200_exh32_gamma099_lrac3e-4_lrcr1e-3/36543b95c0c748273319382419c31c9b55863a9a_ligand_2.pdbqt
 12 12 0 0 0
SMALL
GASTEIGER

@<TRIPOS>ATOM
      1  C          8.2690    0.1510   -2.1770 C.3     1  UNL1        0.1270
      2  C          9.3830    0.3330   -1.2160 C.2     1  UNL1        0.3030
      3  O          9.4800   -0.3900   -0.2130 O.2     1  UNL1       -0.2520
      4  O         10.3240    1.3190   -1.4410 O.3     1  UNL1       -0.4810
      5  H         10.1180    2.3060   -1.3110 H       1  UNL1        0.2960
      6  C          7.1230   -0.5840   -1.5270 C.3     1  UNL1        0.0470
      7  C          6.3370    0.2710   -0.6180 C.2     1  UNL1       -0.0470
      8  C          5.8170    1.4920   -0.9630 C.2     1  UNL1        0.0040
      9  C          6.1140   -0.1910    0.6580 C.2     1  UNL1        0.0040
     10  C          5.0920    2.2280   -0.0450 C.2     1  UNL1        0.0000
     11  C          5.4020    0.5190    1.5780 C.2     1  UNL1        0.0000
     12  C          4.8790    1.7470    1.2310 C.2     1  UNL1        0.0000
@<TRIPOS>BOND
     1     1     6    1
     2     1     2    1
     3     6     7    1
     4     4     5    1
     5     4     2    1
     6     2     3    2
     7     8     7    2
     8     8    10    1
     9     7     9    1
    10    10    12    2
    11     9    11    2
    12    12    11    1
