@<TRIPOS>MOLECULE
/home/cewinharhar/GITHUB/reincatalyze/data/processed/docking_pred/2023-Apr-25-1630_maxeplen5_maxtrainstep200_exh32_gamma099_lrac3e-4_lrcr1e-3/36543b95c0c748273319382419c31c9b55863a9a_ligand_2.pdbqt
 12 12 0 0 0
SMALL
GASTEIGER

@<TRIPOS>ATOM
      1  C          8.4180   -0.6330   -2.1570 C.3     1  UNL1        0.1270
      2  C          8.3860   -1.9080   -2.9100 C.2     1  UNL1        0.3030
      3  O          7.3070   -2.4270   -3.2360 O.2     1  UNL1       -0.2520
      4  O          9.5730   -2.5280   -3.2530 O.3     1  UNL1       -0.4810
      5  H          9.6140   -3.2870   -3.9270 H       1  UNL1        0.2960
      6  C          7.0440   -0.0140   -2.1040 C.3     1  UNL1        0.0470
      7  C          6.4980    0.0530   -0.7340 C.2     1  UNL1       -0.0470
      8  C          6.5970   -0.9580    0.1860 C.2     1  UNL1        0.0040
      9  C          5.8480    1.2060   -0.3630 C.2     1  UNL1        0.0040
     10  C          6.0550   -0.8110    1.4480 C.2     1  UNL1        0.0000
     11  C          5.3050    1.3710    0.8770 C.2     1  UNL1        0.0000
     12  C          5.4050    0.3550    1.8030 C.2     1  UNL1        0.0000
@<TRIPOS>BOND
     1     5     4    1
     2     4     2    1
     3     3     2    2
     4     2     1    1
     5     1     6    1
     6     6     7    1
     7     7     9    2
     8     7     8    1
     9     9    11    1
    10     8    10    2
    11    11    12    2
    12    10    12    1
