@<TRIPOS>MOLECULE
/home/cewinharhar/GITHUB/reincatalyze/data/processed/docking_pred/2023-Apr-25-1630_maxeplen5_maxtrainstep200_exh32_gamma099_lrac3e-4_lrcr1e-3/36543b95c0c748273319382419c31c9b55863a9a_ligand_2.pdbqt
 12 12 0 0 0
SMALL
GASTEIGER

@<TRIPOS>ATOM
      1  C          8.3990   -0.7530   -1.9870 C.3     1  UNL1        0.1270
      2  C          8.3690   -1.9490   -2.8610 C.2     1  UNL1        0.3030
      3  O          7.2910   -2.4200   -3.2560 O.2     1  UNL1       -0.2520
      4  O          9.5550   -2.5480   -3.2390 O.3     1  UNL1       -0.4810
      5  H          9.8010   -3.4930   -2.9570 H       1  UNL1        0.2960
      6  C          7.0850   -0.0160   -2.0520 C.3     1  UNL1        0.0470
      7  C          6.4660    0.1690   -0.7250 C.2     1  UNL1       -0.0470
      8  C          5.7820    1.2940   -0.3420 C.2     1  UNL1        0.0040
      9  C          6.5870   -0.8560    0.1830 C.2     1  UNL1        0.0040
     10  C          5.2340    1.3820    0.9230 C.2     1  UNL1        0.0000
     11  C          6.0550   -0.7880    1.4360 C.2     1  UNL1        0.0000
     12  C          5.3660    0.3420    1.8210 C.2     1  UNL1        0.0000
@<TRIPOS>BOND
     1     3     2    2
     2     4     5    1
     3     4     2    1
     4     2     1    1
     5     6     1    1
     6     6     7    1
     7     7     8    2
     8     7     9    1
     9     8    10    1
    10     9    11    2
    11    10    12    2
    12    11    12    1
