MODEL 1
REMARK VINA RESULT:      -7.3      0.000      0.000
REMARK SMILES O=C(O)CCc1ccccc1
REMARK SMILES IDX 4 1 2 2 1 3 3 4 5 6 6 7 7 8 11 9 8 10 10 11 9 12
REMARK H PARENT 3 5
REMARK Flexibility Score: inf
ROOT
ATOM      1  C   UNL     1       8.399  -0.753  -1.987  1.00  0.00     0.127 C 
ENDROOT
BRANCH   1   2
ATOM      2  C   UNL     1       8.369  -1.949  -2.861  1.00  0.00     0.303 C 
ATOM      3  O   UNL     1       7.291  -2.420  -3.256  1.00  0.00    -0.252 OA
BRANCH   2   4
ATOM      4  O   UNL     1       9.555  -2.548  -3.239  1.00  0.00    -0.481 OA
ATOM      5  H   UNL     1       9.801  -3.493  -2.957  1.00  0.00     0.296 HD
ENDBRANCH   2   4
ENDBRANCH   1   2
BRANCH   1   6
ATOM      6  C   UNL     1       7.085  -0.016  -2.052  1.00  0.00     0.047 C 
BRANCH   6   7
ATOM      7  C   UNL     1       6.466   0.169  -0.725  1.00  0.00    -0.047 A 
ATOM      8  C   UNL     1       5.782   1.294  -0.342  1.00  0.00     0.004 A 
ATOM      9  C   UNL     1       6.587  -0.856   0.183  1.00  0.00     0.004 A 
ATOM     10  C   UNL     1       5.234   1.382   0.923  1.00  0.00     0.000 A 
ATOM     11  C   UNL     1       6.055  -0.788   1.436  1.00  0.00     0.000 A 
ATOM     12  C   UNL     1       5.366   0.342   1.821  1.00  0.00     0.000 A 
ENDBRANCH   6   7
ENDBRANCH   1   6
TORSDOF 4
ENDMDL
MODEL 2
REMARK VINA RESULT:      -7.2      0.096      1.430
REMARK SMILES O=C(O)CCc1ccccc1
REMARK SMILES IDX 4 1 2 2 1 3 3 4 5 6 6 7 7 8 11 9 8 10 10 11 9 12
REMARK H PARENT 3 5
REMARK Flexibility Score: inf
ROOT
ATOM      1  C   UNL     1       8.418  -0.633  -2.157  1.00  0.00     0.127 C 
ENDROOT
BRANCH   1   2
ATOM      2  C   UNL     1       8.386  -1.908  -2.910  1.00  0.00     0.303 C 
ATOM      3  O   UNL     1       7.307  -2.427  -3.236  1.00  0.00    -0.252 OA
BRANCH   2   4
ATOM      4  O   UNL     1       9.573  -2.528  -3.253  1.00  0.00    -0.481 OA
ATOM      5  H   UNL     1       9.614  -3.287  -3.927  1.00  0.00     0.296 HD
ENDBRANCH   2   4
ENDBRANCH   1   2
BRANCH   1   6
ATOM      6  C   UNL     1       7.044  -0.014  -2.104  1.00  0.00     0.047 C 
BRANCH   6   7
ATOM      7  C   UNL     1       6.498   0.053  -0.734  1.00  0.00    -0.047 A 
ATOM      8  C   UNL     1       6.597  -0.958   0.186  1.00  0.00     0.004 A 
ATOM      9  C   UNL     1       5.848   1.206  -0.363  1.00  0.00     0.004 A 
ATOM     10  C   UNL     1       6.055  -0.811   1.448  1.00  0.00     0.000 A 
ATOM     11  C   UNL     1       5.305   1.371   0.877  1.00  0.00     0.000 A 
ATOM     12  C   UNL     1       5.405   0.355   1.803  1.00  0.00     0.000 A 
ENDBRANCH   6   7
ENDBRANCH   1   6
TORSDOF 4
ENDMDL
MODEL 3
REMARK VINA RESULT:      -6.7      3.295      5.115
REMARK SMILES O=C(O)CCc1ccccc1
REMARK SMILES IDX 4 1 2 2 1 3 3 4 5 6 6 7 7 8 11 9 8 10 10 11 9 12
REMARK H PARENT 3 5
REMARK Flexibility Score: inf
ROOT
ATOM      1  C   UNL     1       5.035   1.711   0.751  1.00  0.00     0.127 C 
ENDROOT
BRANCH   1   2
ATOM      2  C   UNL     1       4.556   0.999   1.958  1.00  0.00     0.303 C 
ATOM      3  O   UNL     1       5.241   0.109   2.485  1.00  0.00    -0.252 OA
BRANCH   2   4
ATOM      4  O   UNL     1       3.330   1.329   2.504  1.00  0.00    -0.481 OA
ATOM      5  H   UNL     1       3.231   2.024   3.238  1.00  0.00     0.296 HD
ENDBRANCH   2   4
ENDBRANCH   1   2
BRANCH   1   6
ATOM      6  C   UNL     1       6.538   1.843   0.775  1.00  0.00     0.047 C 
BRANCH   6   7
ATOM      7  C   UNL     1       7.195   1.106  -0.321  1.00  0.00    -0.047 A 
ATOM      8  C   UNL     1       8.520   1.233  -0.651  1.00  0.00     0.004 A 
ATOM      9  C   UNL     1       6.424   0.238  -1.057  1.00  0.00     0.004 A 
ATOM     10  C   UNL     1       9.053   0.503  -1.696  1.00  0.00     0.000 A 
ATOM     11  C   UNL     1       6.931  -0.491  -2.092  1.00  0.00     0.000 A 
ATOM     12  C   UNL     1       8.263  -0.365  -2.424  1.00  0.00     0.000 A 
ENDBRANCH   6   7
ENDBRANCH   1   6
TORSDOF 4
ENDMDL
MODEL 4
REMARK VINA RESULT:      -6.6      3.765      5.042
REMARK SMILES O=C(O)CCc1ccccc1
REMARK SMILES IDX 4 1 2 2 1 3 3 4 5 6 6 7 7 8 11 9 8 10 10 11 9 12
REMARK H PARENT 3 5
REMARK Flexibility Score: inf
ROOT
ATOM      1  C   UNL     1       5.426   2.925   0.088  1.00  0.00     0.127 C 
ENDROOT
BRANCH   1   2
ATOM      2  C   UNL     1       6.250   3.906   0.832  1.00  0.00     0.303 C 
ATOM      3  O   UNL     1       6.901   4.775   0.231  1.00  0.00    -0.252 OA
BRANCH   2   4
ATOM      4  O   UNL     1       6.295   3.852   2.212  1.00  0.00    -0.481 OA
ATOM      5  H   UNL     1       7.168   3.893   2.730  1.00  0.00     0.296 HD
ENDBRANCH   2   4
ENDBRANCH   1   2
BRANCH   1   6
ATOM      6  C   UNL     1       4.935   1.837   1.010  1.00  0.00     0.047 C 
BRANCH   6   7
ATOM      7  C   UNL     1       5.725   0.595   0.902  1.00  0.00    -0.047 A 
ATOM      8  C   UNL     1       5.895  -0.303   1.924  1.00  0.00     0.004 A 
ATOM      9  C   UNL     1       6.329   0.327  -0.303  1.00  0.00     0.004 A 
ATOM     10  C   UNL     1       6.654  -1.441   1.735  1.00  0.00     0.000 A 
ATOM     11  C   UNL     1       7.083  -0.791  -0.510  1.00  0.00     0.000 A 
ATOM     12  C   UNL     1       7.253  -1.694   0.517  1.00  0.00     0.000 A 
ENDBRANCH   6   7
ENDBRANCH   1   6
TORSDOF 4
ENDMDL
MODEL 5
REMARK VINA RESULT:      -6.6      1.934      2.238
REMARK SMILES O=C(O)CCc1ccccc1
REMARK SMILES IDX 4 1 2 2 1 3 3 4 5 6 6 7 7 8 11 9 8 10 10 11 9 12
REMARK H PARENT 3 5
REMARK Flexibility Score: inf
ROOT
ATOM      1  C   UNL     1       8.269   0.151  -2.177  1.00  0.00     0.127 C 
ENDROOT
BRANCH   1   2
ATOM      2  C   UNL     1       9.383   0.333  -1.216  1.00  0.00     0.303 C 
ATOM      3  O   UNL     1       9.480  -0.390  -0.213  1.00  0.00    -0.252 OA
BRANCH   2   4
ATOM      4  O   UNL     1      10.324   1.319  -1.441  1.00  0.00    -0.481 OA
ATOM      5  H   UNL     1      10.118   2.306  -1.311  1.00  0.00     0.296 HD
ENDBRANCH   2   4
ENDBRANCH   1   2
BRANCH   1   6
ATOM      6  C   UNL     1       7.123  -0.584  -1.527  1.00  0.00     0.047 C 
BRANCH   6   7
ATOM      7  C   UNL     1       6.337   0.271  -0.618  1.00  0.00    -0.047 A 
ATOM      8  C   UNL     1       5.817   1.492  -0.963  1.00  0.00     0.004 A 
ATOM      9  C   UNL     1       6.114  -0.191   0.658  1.00  0.00     0.004 A 
ATOM     10  C   UNL     1       5.092   2.228  -0.045  1.00  0.00     0.000 A 
ATOM     11  C   UNL     1       5.402   0.519   1.578  1.00  0.00     0.000 A 
ATOM     12  C   UNL     1       4.879   1.747   1.231  1.00  0.00     0.000 A 
ENDBRANCH   6   7
ENDBRANCH   1   6
TORSDOF 4
ENDMDL
