@<TRIPOS>MOLECULE
/home/cewinharhar/GITHUB/reincatalyze/data/processed/docking_pred/2023-Apr-25-1630_maxeplen5_maxtrainstep200_exh32_gamma099_lrac3e-4_lrcr1e-3/36543b95c0c748273319382419c31c9b55863a9a_ligand_2.pdbqt
 12 12 0 0 0
SMALL
GASTEIGER

@<TRIPOS>ATOM
      1  C          5.0350    1.7110    0.7510 C.3     1  UNL1        0.1270
      2  C          4.5560    0.9990    1.9580 C.2     1  UNL1        0.3030
      3  O          5.2410    0.1090    2.4850 O.2     1  UNL1       -0.2520
      4  O          3.3300    1.3290    2.5040 O.3     1  UNL1       -0.4810
      5  H          3.2310    2.0240    3.2380 H       1  UNL1        0.2960
      6  C          6.5380    1.8430    0.7750 C.3     1  UNL1        0.0470
      7  C          7.1950    1.1060   -0.3210 C.2     1  UNL1       -0.0470
      8  C          8.5200    1.2330   -0.6510 C.2     1  UNL1        0.0040
      9  C          6.4240    0.2380   -1.0570 C.2     1  UNL1        0.0040
     10  C          9.0530    0.5030   -1.6960 C.2     1  UNL1        0.0000
     11  C          6.9310   -0.4910   -2.0920 C.2     1  UNL1        0.0000
     12  C          8.2630   -0.3650   -2.4240 C.2     1  UNL1        0.0000
@<TRIPOS>BOND
     1    12    11    2
     2    12    10    1
     3    11     9    1
     4    10     8    2
     5     9     7    2
     6     8     7    1
     7     7     6    1
     8     1     6    1
     9     1     2    1
    10     2     3    2
    11     2     4    1
    12     4     5    1
