@<TRIPOS>MOLECULE
/home/cewinharhar/GITHUB/reincatalyze/data/processed/docking_pred/2023-Apr-25-1630_maxeplen5_maxtrainstep200_exh32_gamma099_lrac3e-4_lrcr1e-3/37a8b72800122466266a4bb22cdda1f56f02b914_ligand_2.pdbqt
 12 12 0 0 0
SMALL
GASTEIGER

@<TRIPOS>ATOM
      1  C          7.9220   -0.8160   -2.0840 C.3     1  UNL1        0.1270
      2  C          8.2390   -1.9750   -2.9520 C.2     1  UNL1        0.3030
      3  O          9.4020   -2.3970   -3.0490 O.2     1  UNL1       -0.2520
      4  O          7.2270   -2.5920   -3.6620 O.3     1  UNL1       -0.4810
      5  H          7.4100   -3.1660   -4.4810 H       1  UNL1        0.2960
      6  C          7.4340   -1.2810   -0.7350 C.3     1  UNL1        0.0470
      7  C          6.5650   -0.2930   -0.0680 C.2     1  UNL1       -0.0470
      8  C          6.0970   -0.4170    1.2150 C.2     1  UNL1        0.0040
      9  C          6.2020    0.8220   -0.7850 C.2     1  UNL1        0.0040
     10  C          5.2850    0.5580    1.7600 C.2     1  UNL1        0.0000
     11  C          5.4010    1.7960   -0.2660 C.2     1  UNL1        0.0000
     12  C          4.9320    1.6720    1.0250 C.2     1  UNL1        0.0000
@<TRIPOS>BOND
     1     5     4    1
     2     4     2    1
     3     3     2    2
     4     2     1    1
     5     1     6    1
     6     9    11    1
     7     9     7    2
     8     6     7    1
     9    11    12    2
    10     7     8    1
    11    12    10    1
    12     8    10    2
