@<TRIPOS>MOLECULE
/home/cewinharhar/GITHUB/reincatalyze/data/processed/docking_pred/2023-Apr-25-1630_maxeplen5_maxtrainstep200_exh32_gamma099_lrac3e-4_lrcr1e-3/37a8b72800122466266a4bb22cdda1f56f02b914_ligand_2.pdbqt
 12 12 0 0 0
SMALL
GASTEIGER

@<TRIPOS>ATOM
      1  C          8.4100   -0.7000   -2.0160 C.3     1  UNL1        0.1270
      2  C          8.3700   -1.9170   -2.8620 C.2     1  UNL1        0.3030
      3  O          7.2880   -2.4010   -3.2270 O.2     1  UNL1       -0.2520
      4  O          9.5520   -2.5180   -3.2490 O.3     1  UNL1       -0.4810
      5  H          9.5730   -3.3610   -3.8160 H       1  UNL1        0.2960
      6  C          7.0930    0.0330   -2.0800 C.3     1  UNL1        0.0470
      7  C          6.4740    0.2140   -0.7530 C.2     1  UNL1       -0.0470
      8  C          5.7870    1.3360   -0.3680 C.2     1  UNL1        0.0040
      9  C          6.5980   -0.8120    0.1530 C.2     1  UNL1        0.0040
     10  C          5.2390    1.4210    0.8970 C.2     1  UNL1        0.0000
     11  C          6.0660   -0.7480    1.4070 C.2     1  UNL1        0.0000
     12  C          5.3740    0.3800    1.7940 C.2     1  UNL1        0.0000
@<TRIPOS>BOND
     1     5     4    1
     2     4     2    1
     3     3     2    2
     4     2     1    1
     5     6     1    1
     6     6     7    1
     7     7     8    2
     8     7     9    1
     9     8    10    1
    10     9    11    2
    11    10    12    2
    12    11    12    1
