MODEL 1
REMARK VINA RESULT:      -7.3      0.000      0.000
REMARK SMILES O=C(O)CCc1ccccc1
REMARK SMILES IDX 4 1 2 2 1 3 3 4 5 6 6 7 7 8 11 9 8 10 10 11 9 12
REMARK H PARENT 3 5
REMARK Flexibility Score: inf
ROOT
ATOM      1  C   UNL     1       8.440  -0.596  -2.226  1.00  0.00     0.127 C 
ENDROOT
BRANCH   1   2
ATOM      2  C   UNL     1       8.482  -1.901  -2.928  1.00  0.00     0.303 C 
ATOM      3  O   UNL     1       9.554  -2.508  -3.075  1.00  0.00    -0.252 OA
BRANCH   2   4
ATOM      4  O   UNL     1       7.314  -2.447  -3.424  1.00  0.00    -0.481 OA
ATOM      5  H   UNL     1       6.403  -2.032  -3.248  1.00  0.00     0.296 HD
ENDBRANCH   2   4
ENDBRANCH   1   2
BRANCH   1   6
ATOM      6  C   UNL     1       7.028  -0.066  -2.176  1.00  0.00     0.047 C 
BRANCH   6   7
ATOM      7  C   UNL     1       6.503   0.034  -0.801  1.00  0.00    -0.047 A 
ATOM      8  C   UNL     1       6.612  -0.956   0.142  1.00  0.00     0.004 A 
ATOM      9  C   UNL     1       5.861   1.197  -0.448  1.00  0.00     0.004 A 
ATOM     10  C   UNL     1       6.088  -0.777   1.407  1.00  0.00     0.000 A 
ATOM     11  C   UNL     1       5.336   1.393   0.796  1.00  0.00     0.000 A 
ATOM     12  C   UNL     1       5.447   0.398   1.744  1.00  0.00     0.000 A 
ENDBRANCH   6   7
ENDBRANCH   1   6
TORSDOF 4
ENDMDL
MODEL 2
REMARK VINA RESULT:      -7.3      0.161      1.727
REMARK SMILES O=C(O)CCc1ccccc1
REMARK SMILES IDX 4 1 2 2 1 3 3 4 5 6 6 7 7 8 11 9 8 10 10 11 9 12
REMARK H PARENT 3 5
REMARK Flexibility Score: inf
ROOT
ATOM      1  C   UNL     1       8.410  -0.700  -2.016  1.00  0.00     0.127 C 
ENDROOT
BRANCH   1   2
ATOM      2  C   UNL     1       8.370  -1.917  -2.862  1.00  0.00     0.303 C 
ATOM      3  O   UNL     1       7.288  -2.401  -3.227  1.00  0.00    -0.252 OA
BRANCH   2   4
ATOM      4  O   UNL     1       9.552  -2.518  -3.249  1.00  0.00    -0.481 OA
ATOM      5  H   UNL     1       9.573  -3.361  -3.816  1.00  0.00     0.296 HD
ENDBRANCH   2   4
ENDBRANCH   1   2
BRANCH   1   6
ATOM      6  C   UNL     1       7.093   0.033  -2.080  1.00  0.00     0.047 C 
BRANCH   6   7
ATOM      7  C   UNL     1       6.474   0.214  -0.753  1.00  0.00    -0.047 A 
ATOM      8  C   UNL     1       5.787   1.336  -0.368  1.00  0.00     0.004 A 
ATOM      9  C   UNL     1       6.598  -0.812   0.153  1.00  0.00     0.004 A 
ATOM     10  C   UNL     1       5.239   1.421   0.897  1.00  0.00     0.000 A 
ATOM     11  C   UNL     1       6.066  -0.748   1.407  1.00  0.00     0.000 A 
ATOM     12  C   UNL     1       5.374   0.380   1.794  1.00  0.00     0.000 A 
ENDBRANCH   6   7
ENDBRANCH   1   6
TORSDOF 4
ENDMDL
MODEL 3
REMARK VINA RESULT:      -7.1      0.606      1.096
REMARK SMILES O=C(O)CCc1ccccc1
REMARK SMILES IDX 4 1 2 2 1 3 3 4 5 6 6 7 7 8 11 9 8 10 10 11 9 12
REMARK H PARENT 3 5
REMARK Flexibility Score: inf
ROOT
ATOM      1  C   UNL     1       7.922  -0.816  -2.084  1.00  0.00     0.127 C 
ENDROOT
BRANCH   1   2
ATOM      2  C   UNL     1       8.239  -1.975  -2.952  1.00  0.00     0.303 C 
ATOM      3  O   UNL     1       9.402  -2.397  -3.049  1.00  0.00    -0.252 OA
BRANCH   2   4
ATOM      4  O   UNL     1       7.227  -2.592  -3.662  1.00  0.00    -0.481 OA
ATOM      5  H   UNL     1       7.410  -3.166  -4.481  1.00  0.00     0.296 HD
ENDBRANCH   2   4
ENDBRANCH   1   2
BRANCH   1   6
ATOM      6  C   UNL     1       7.434  -1.281  -0.735  1.00  0.00     0.047 C 
BRANCH   6   7
ATOM      7  C   UNL     1       6.565  -0.293  -0.068  1.00  0.00    -0.047 A 
ATOM      8  C   UNL     1       6.097  -0.417   1.215  1.00  0.00     0.004 A 
ATOM      9  C   UNL     1       6.202   0.822  -0.785  1.00  0.00     0.004 A 
ATOM     10  C   UNL     1       5.285   0.558   1.760  1.00  0.00     0.000 A 
ATOM     11  C   UNL     1       5.401   1.796  -0.266  1.00  0.00     0.000 A 
ATOM     12  C   UNL     1       4.932   1.672   1.025  1.00  0.00     0.000 A 
ENDBRANCH   6   7
ENDBRANCH   1   6
TORSDOF 4
ENDMDL
MODEL 4
REMARK VINA RESULT:      -7.0      0.641      1.870
REMARK SMILES O=C(O)CCc1ccccc1
REMARK SMILES IDX 4 1 2 2 1 3 3 4 5 6 6 7 7 8 11 9 8 10 10 11 9 12
REMARK H PARENT 3 5
REMARK Flexibility Score: inf
ROOT
ATOM      1  C   UNL     1       8.265  -0.848  -1.934  1.00  0.00     0.127 C 
ENDROOT
BRANCH   1   2
ATOM      2  C   UNL     1       8.306  -1.973  -2.897  1.00  0.00     0.303 C 
ATOM      3  O   UNL     1       7.262  -2.410  -3.409  1.00  0.00    -0.252 OA
BRANCH   2   4
ATOM      4  O   UNL     1       9.519  -2.544  -3.230  1.00  0.00    -0.481 OA
ATOM      5  H   UNL     1      10.121  -2.158  -3.952  1.00  0.00     0.296 HD
ENDBRANCH   2   4
ENDBRANCH   1   2
BRANCH   1   6
ATOM      6  C   UNL     1       7.576  -1.267  -0.659  1.00  0.00     0.047 C 
BRANCH   6   7
ATOM      7  C   UNL     1       6.660  -0.234  -0.138  1.00  0.00    -0.047 A 
ATOM      8  C   UNL     1       6.251   0.865  -0.849  1.00  0.00     0.004 A 
ATOM      9  C   UNL     1       6.189  -0.388   1.145  1.00  0.00     0.004 A 
ATOM     10  C   UNL     1       5.391   1.784  -0.280  1.00  0.00     0.000 A 
ATOM     11  C   UNL     1       5.340   0.508   1.724  1.00  0.00     0.000 A 
ATOM     12  C   UNL     1       4.928   1.612   1.009  1.00  0.00     0.000 A 
ENDBRANCH   6   7
ENDBRANCH   1   6
TORSDOF 4
ENDMDL
MODEL 5
REMARK VINA RESULT:      -6.8      3.375      5.062
REMARK SMILES O=C(O)CCc1ccccc1
REMARK SMILES IDX 4 1 2 2 1 3 3 4 5 6 6 7 7 8 11 9 8 10 10 11 9 12
REMARK H PARENT 3 5
REMARK Flexibility Score: inf
ROOT
ATOM      1  C   UNL     1       4.993   1.777   0.718  1.00  0.00     0.127 C 
ENDROOT
BRANCH   1   2
ATOM      2  C   UNL     1       4.483   1.094   1.931  1.00  0.00     0.303 C 
ATOM      3  O   UNL     1       5.143   0.198   2.480  1.00  0.00    -0.252 OA
BRANCH   2   4
ATOM      4  O   UNL     1       3.258   1.458   2.455  1.00  0.00    -0.481 OA
ATOM      5  H   UNL     1       2.391   1.353   1.935  1.00  0.00     0.296 HD
ENDBRANCH   2   4
ENDBRANCH   1   2
BRANCH   1   6
ATOM      6  C   UNL     1       6.501   1.818   0.727  1.00  0.00     0.047 C 
BRANCH   6   7
ATOM      7  C   UNL     1       7.102   1.020  -0.359  1.00  0.00    -0.047 A 
ATOM      8  C   UNL     1       6.421   0.088  -1.100  1.00  0.00     0.004 A 
ATOM      9  C   UNL     1       8.431   1.226  -0.640  1.00  0.00     0.004 A 
ATOM     10  C   UNL     1       7.065  -0.616  -2.099  1.00  0.00     0.000 A 
ATOM     11  C   UNL     1       9.085   0.541  -1.622  1.00  0.00     0.000 A 
ATOM     12  C   UNL     1       8.401  -0.395  -2.368  1.00  0.00     0.000 A 
ENDBRANCH   6   7
ENDBRANCH   1   6
TORSDOF 4
ENDMDL
