@<TRIPOS>MOLECULE
/home/cewinharhar/GITHUB/reincatalyze/data/processed/docking_pred/2023-Apr-25-1630_maxeplen5_maxtrainstep200_exh32_gamma099_lrac3e-4_lrcr1e-3/37a8b72800122466266a4bb22cdda1f56f02b914_ligand_2.pdbqt
 12 12 0 0 0
SMALL
GASTEIGER

@<TRIPOS>ATOM
      1  C          8.2650   -0.8480   -1.9340 C.3     1  UNL1        0.1270
      2  C          8.3060   -1.9730   -2.8970 C.2     1  UNL1        0.3030
      3  O          7.2620   -2.4100   -3.4090 O.2     1  UNL1       -0.2520
      4  O          9.5190   -2.5440   -3.2300 O.3     1  UNL1       -0.4810
      5  H         10.1210   -2.1580   -3.9520 H       1  UNL1        0.2960
      6  C          7.5760   -1.2670   -0.6590 C.3     1  UNL1        0.0470
      7  C          6.6600   -0.2340   -0.1380 C.2     1  UNL1       -0.0470
      8  C          6.2510    0.8650   -0.8490 C.2     1  UNL1        0.0040
      9  C          6.1890   -0.3880    1.1450 C.2     1  UNL1        0.0040
     10  C          5.3910    1.7840   -0.2800 C.2     1  UNL1        0.0000
     11  C          5.3400    0.5080    1.7240 C.2     1  UNL1        0.0000
     12  C          4.9280    1.6120    1.0090 C.2     1  UNL1        0.0000
@<TRIPOS>BOND
     1     5     4    1
     2     3     2    2
     3     4     2    1
     4     2     1    1
     5     1     6    1
     6     8    10    1
     7     8     7    2
     8     6     7    1
     9    10    12    2
    10     7     9    1
    11    12    11    1
    12     9    11    2
