@<TRIPOS>MOLECULE
/home/cewinharhar/GITHUB/reincatalyze/data/processed/docking_pred/2023-Apr-25-1630_maxeplen5_maxtrainstep200_exh32_gamma099_lrac3e-4_lrcr1e-3/37a8b72800122466266a4bb22cdda1f56f02b914_ligand_2.pdbqt
 12 12 0 0 0
SMALL
GASTEIGER

@<TRIPOS>ATOM
      1  C          8.4400   -0.5960   -2.2260 C.3     1  UNL1        0.1270
      2  C          8.4820   -1.9010   -2.9280 C.2     1  UNL1        0.3030
      3  O          9.5540   -2.5080   -3.0750 O.2     1  UNL1       -0.2520
      4  O          7.3140   -2.4470   -3.4240 O.3     1  UNL1       -0.4810
      5  H          6.4030   -2.0320   -3.2480 H       1  UNL1        0.2960
      6  C          7.0280   -0.0660   -2.1760 C.3     1  UNL1        0.0470
      7  C          6.5030    0.0340   -0.8010 C.2     1  UNL1       -0.0470
      8  C          6.6120   -0.9560    0.1420 C.2     1  UNL1        0.0040
      9  C          5.8610    1.1970   -0.4480 C.2     1  UNL1        0.0040
     10  C          6.0880   -0.7770    1.4070 C.2     1  UNL1        0.0000
     11  C          5.3360    1.3930    0.7960 C.2     1  UNL1        0.0000
     12  C          5.4470    0.3980    1.7440 C.2     1  UNL1        0.0000
@<TRIPOS>BOND
     1     4     5    1
     2     4     2    1
     3     3     2    2
     4     2     1    1
     5     1     6    1
     6     6     7    1
     7     7     9    2
     8     7     8    1
     9     9    11    1
    10     8    10    2
    11    11    12    2
    12    10    12    1
