@<TRIPOS>MOLECULE
/home/cewinharhar/GITHUB/reincatalyze/data/processed/docking_pred/2023-Apr-25-1630_maxeplen5_maxtrainstep200_exh32_gamma099_lrac3e-4_lrcr1e-3/37a8b72800122466266a4bb22cdda1f56f02b914_ligand_2.pdbqt
 12 12 0 0 0
SMALL
GASTEIGER

@<TRIPOS>ATOM
      1  C          4.9930    1.7770    0.7180 C.3     1  UNL1        0.1270
      2  C          4.4830    1.0940    1.9310 C.2     1  UNL1        0.3030
      3  O          5.1430    0.1980    2.4800 O.2     1  UNL1       -0.2520
      4  O          3.2580    1.4580    2.4550 O.3     1  UNL1       -0.4810
      5  H          2.3910    1.3530    1.9350 H       1  UNL1        0.2960
      6  C          6.5010    1.8180    0.7270 C.3     1  UNL1        0.0470
      7  C          7.1020    1.0200   -0.3590 C.2     1  UNL1       -0.0470
      8  C          6.4210    0.0880   -1.1000 C.2     1  UNL1        0.0040
      9  C          8.4310    1.2260   -0.6400 C.2     1  UNL1        0.0040
     10  C          7.0650   -0.6160   -2.0990 C.2     1  UNL1        0.0000
     11  C          9.0850    0.5410   -1.6220 C.2     1  UNL1        0.0000
     12  C          8.4010   -0.3950   -2.3680 C.2     1  UNL1        0.0000
@<TRIPOS>BOND
     1    12    10    2
     2    12    11    1
     3    10     8    1
     4    11     9    2
     5     8     7    2
     6     9     7    1
     7     7     6    1
     8     1     6    1
     9     1     2    1
    10     2     4    1
    11     2     3    2
    12     5     4    1
