@<TRIPOS>MOLECULE
/home/cewinharhar/GITHUB/reincatalyze/data/processed/docking_pred/2023-Apr-25-1630_maxeplen5_maxtrainstep200_exh32_gamma099_lrac3e-4_lrcr1e-3/3b29dc4ebb7ee5049f43ecb42d98a580ffb6b5da_ligand_2.pdbqt
 12 12 0 0 0
SMALL
GASTEIGER

@<TRIPOS>ATOM
      1  C          8.4330   -0.6150   -2.1990 C.3     1  UNL1        0.1270
      2  C          8.4840   -1.9160   -2.9080 C.2     1  UNL1        0.3030
      3  O          9.5590   -2.5170   -3.0570 O.2     1  UNL1       -0.2520
      4  O          7.3190   -2.4660   -3.4080 O.3     1  UNL1       -0.4810
      5  H          6.4740   -1.9190   -3.5450 H       1  UNL1        0.2960
      6  C          7.0200   -0.0880   -2.1600 C.3     1  UNL1        0.0470
      7  C          6.4910    0.0280   -0.7880 C.2     1  UNL1       -0.0470
      8  C          6.5920   -0.9530    0.1650 C.2     1  UNL1        0.0040
      9  C          5.8540    1.1980   -0.4470 C.2     1  UNL1        0.0040
     10  C          6.0650   -0.7600    1.4270 C.2     1  UNL1        0.0000
     11  C          5.3260    1.4090    0.7930 C.2     1  UNL1        0.0000
     12  C          5.4290    0.4220    1.7500 C.2     1  UNL1        0.0000
@<TRIPOS>BOND
     1     5     4    1
     2     4     2    1
     3     3     2    2
     4     2     1    1
     5     1     6    1
     6     6     7    1
     7     7     9    2
     8     7     8    1
     9     9    11    1
    10     8    10    2
    11    11    12    2
    12    10    12    1
