MODEL 1
REMARK VINA RESULT:      -7.3      0.000      0.000
REMARK SMILES O=C(O)CCc1ccccc1
REMARK SMILES IDX 4 1 2 2 1 3 3 4 5 6 6 7 7 8 11 9 8 10 10 11 9 12
REMARK H PARENT 3 5
REMARK Flexibility Score: inf
ROOT
ATOM      1  C   UNL     1       8.414  -0.718  -2.075  1.00  0.00     0.127 C 
ENDROOT
BRANCH   1   2
ATOM      2  C   UNL     1       8.461  -1.949  -2.898  1.00  0.00     0.303 C 
ATOM      3  O   UNL     1       9.537  -2.529  -3.113  1.00  0.00    -0.252 OA
BRANCH   2   4
ATOM      4  O   UNL     1       7.293  -2.457  -3.434  1.00  0.00    -0.481 OA
ATOM      5  H   UNL     1       7.044  -3.440  -3.361  1.00  0.00     0.296 HD
ENDBRANCH   2   4
ENDBRANCH   1   2
BRANCH   1   6
ATOM      6  C   UNL     1       7.043  -0.092  -2.137  1.00  0.00     0.047 C 
BRANCH   6   7
ATOM      7  C   UNL     1       6.460   0.143  -0.802  1.00  0.00    -0.047 A 
ATOM      8  C   UNL     1       5.823   1.299  -0.430  1.00  0.00     0.004 A 
ATOM      9  C   UNL     1       6.566  -0.866   0.126  1.00  0.00     0.004 A 
ATOM     10  C   UNL     1       5.306   1.433   0.845  1.00  0.00     0.000 A 
ATOM     11  C   UNL     1       6.064  -0.753   1.389  1.00  0.00     0.000 A 
ATOM     12  C   UNL     1       5.423   0.408   1.763  1.00  0.00     0.000 A 
ENDBRANCH   6   7
ENDBRANCH   1   6
TORSDOF 4
ENDMDL
MODEL 2
REMARK VINA RESULT:      -7.3      0.083      1.429
REMARK SMILES O=C(O)CCc1ccccc1
REMARK SMILES IDX 4 1 2 2 1 3 3 4 5 6 6 7 7 8 11 9 8 10 10 11 9 12
REMARK H PARENT 3 5
REMARK Flexibility Score: inf
ROOT
ATOM      1  C   UNL     1       8.433  -0.615  -2.199  1.00  0.00     0.127 C 
ENDROOT
BRANCH   1   2
ATOM      2  C   UNL     1       8.484  -1.916  -2.908  1.00  0.00     0.303 C 
ATOM      3  O   UNL     1       9.559  -2.517  -3.057  1.00  0.00    -0.252 OA
BRANCH   2   4
ATOM      4  O   UNL     1       7.319  -2.466  -3.408  1.00  0.00    -0.481 OA
ATOM      5  H   UNL     1       6.474  -1.919  -3.545  1.00  0.00     0.296 HD
ENDBRANCH   2   4
ENDBRANCH   1   2
BRANCH   1   6
ATOM      6  C   UNL     1       7.020  -0.088  -2.160  1.00  0.00     0.047 C 
BRANCH   6   7
ATOM      7  C   UNL     1       6.491   0.028  -0.788  1.00  0.00    -0.047 A 
ATOM      8  C   UNL     1       6.592  -0.953   0.165  1.00  0.00     0.004 A 
ATOM      9  C   UNL     1       5.854   1.198  -0.447  1.00  0.00     0.004 A 
ATOM     10  C   UNL     1       6.065  -0.760   1.427  1.00  0.00     0.000 A 
ATOM     11  C   UNL     1       5.326   1.409   0.793  1.00  0.00     0.000 A 
ATOM     12  C   UNL     1       5.429   0.422   1.750  1.00  0.00     0.000 A 
ENDBRANCH   6   7
ENDBRANCH   1   6
TORSDOF 4
ENDMDL
MODEL 3
REMARK VINA RESULT:      -6.8      3.370      5.083
REMARK SMILES O=C(O)CCc1ccccc1
REMARK SMILES IDX 4 1 2 2 1 3 3 4 5 6 6 7 7 8 11 9 8 10 10 11 9 12
REMARK H PARENT 3 5
REMARK Flexibility Score: inf
ROOT
ATOM      1  C   UNL     1       4.997   1.793   0.709  1.00  0.00     0.127 C 
ENDROOT
BRANCH   1   2
ATOM      2  C   UNL     1       4.496   1.100   1.920  1.00  0.00     0.303 C 
ATOM      3  O   UNL     1       5.164   0.208   2.463  1.00  0.00    -0.252 OA
BRANCH   2   4
ATOM      4  O   UNL     1       3.269   1.453   2.449  1.00  0.00    -0.481 OA
ATOM      5  H   UNL     1       2.391   1.153   2.033  1.00  0.00     0.296 HD
ENDBRANCH   2   4
ENDBRANCH   1   2
BRANCH   1   6
ATOM      6  C   UNL     1       6.504   1.836   0.709  1.00  0.00     0.047 C 
BRANCH   6   7
ATOM      7  C   UNL     1       7.100   1.026  -0.371  1.00  0.00    -0.047 A 
ATOM      8  C   UNL     1       6.411   0.101  -1.112  1.00  0.00     0.004 A 
ATOM      9  C   UNL     1       8.434   1.214  -0.647  1.00  0.00     0.004 A 
ATOM     10  C   UNL     1       7.050  -0.615  -2.106  1.00  0.00     0.000 A 
ATOM     11  C   UNL     1       9.083   0.517  -1.623  1.00  0.00     0.000 A 
ATOM     12  C   UNL     1       8.390  -0.413  -2.369  1.00  0.00     0.000 A 
ENDBRANCH   6   7
ENDBRANCH   1   6
TORSDOF 4
ENDMDL
MODEL 4
REMARK VINA RESULT:      -6.7      3.352      5.032
REMARK SMILES O=C(O)CCc1ccccc1
REMARK SMILES IDX 4 1 2 2 1 3 3 4 5 6 6 7 7 8 11 9 8 10 10 11 9 12
REMARK H PARENT 3 5
REMARK Flexibility Score: inf
ROOT
ATOM      1  C   UNL     1       5.026   1.664   0.681  1.00  0.00     0.127 C 
ENDROOT
BRANCH   1   2
ATOM      2  C   UNL     1       4.582   1.018   1.938  1.00  0.00     0.303 C 
ATOM      3  O   UNL     1       5.297   0.181   2.510  1.00  0.00    -0.252 OA
BRANCH   2   4
ATOM      4  O   UNL     1       3.355   1.352   2.480  1.00  0.00    -0.481 OA
ATOM      5  H   UNL     1       3.148   1.234   3.468  1.00  0.00     0.296 HD
ENDBRANCH   2   4
ENDBRANCH   1   2
BRANCH   1   6
ATOM      6  C   UNL     1       6.523   1.847   0.679  1.00  0.00     0.047 C 
BRANCH   6   7
ATOM      7  C   UNL     1       7.194   1.072  -0.382  1.00  0.00    -0.047 A 
ATOM      8  C   UNL     1       8.521   1.194  -0.706  1.00  0.00     0.004 A 
ATOM      9  C   UNL     1       6.434   0.171  -1.090  1.00  0.00     0.004 A 
ATOM     10  C   UNL     1       9.067   0.427  -1.717  1.00  0.00     0.000 A 
ATOM     11  C   UNL     1       6.954  -0.595  -2.092  1.00  0.00     0.000 A 
ATOM     12  C   UNL     1       8.288  -0.473  -2.417  1.00  0.00     0.000 A 
ENDBRANCH   6   7
ENDBRANCH   1   6
TORSDOF 4
ENDMDL
MODEL 5
REMARK VINA RESULT:      -6.7      3.833      4.950
REMARK SMILES O=C(O)CCc1ccccc1
REMARK SMILES IDX 4 1 2 2 1 3 3 4 5 6 6 7 7 8 11 9 8 10 10 11 9 12
REMARK H PARENT 3 5
REMARK Flexibility Score: inf
ROOT
ATOM      1  C   UNL     1       5.567   2.994  -0.044  1.00  0.00     0.127 C 
ENDROOT
BRANCH   1   2
ATOM      2  C   UNL     1       6.320   3.944   0.809  1.00  0.00     0.303 C 
ATOM      3  O   UNL     1       7.093   4.774   0.305  1.00  0.00    -0.252 OA
BRANCH   2   4
ATOM      4  O   UNL     1       6.159   3.905   2.180  1.00  0.00    -0.481 OA
ATOM      5  H   UNL     1       6.913   3.641   2.808  1.00  0.00     0.296 HD
ENDBRANCH   2   4
ENDBRANCH   1   2
BRANCH   1   6
ATOM      6  C   UNL     1       4.911   1.930   0.801  1.00  0.00     0.047 C 
BRANCH   6   7
ATOM      7  C   UNL     1       5.676   0.668   0.827  1.00  0.00    -0.047 A 
ATOM      8  C   UNL     1       6.329   0.138  -0.256  1.00  0.00     0.004 A 
ATOM      9  C   UNL     1       5.733  -0.017   2.018  1.00  0.00     0.004 A 
ATOM     10  C   UNL     1       7.022  -1.051  -0.140  1.00  0.00     0.000 A 
ATOM     11  C   UNL     1       6.411  -1.193   2.152  1.00  0.00     0.000 A 
ATOM     12  C   UNL     1       7.069  -1.725   1.064  1.00  0.00     0.000 A 
ENDBRANCH   6   7
ENDBRANCH   1   6
TORSDOF 4
ENDMDL
