@<TRIPOS>MOLECULE
/home/cewinharhar/GITHUB/reincatalyze/data/processed/docking_pred/2023-Apr-25-1630_maxeplen5_maxtrainstep200_exh32_gamma099_lrac3e-4_lrcr1e-3/3b29dc4ebb7ee5049f43ecb42d98a580ffb6b5da_ligand_2.pdbqt
 12 12 0 0 0
SMALL
GASTEIGER

@<TRIPOS>ATOM
      1  C          4.9970    1.7930    0.7090 C.3     1  UNL1        0.1270
      2  C          4.4960    1.1000    1.9200 C.2     1  UNL1        0.3030
      3  O          5.1640    0.2080    2.4630 O.2     1  UNL1       -0.2520
      4  O          3.2690    1.4530    2.4490 O.3     1  UNL1       -0.4810
      5  H          2.3910    1.1530    2.0330 H       1  UNL1        0.2960
      6  C          6.5040    1.8360    0.7090 C.3     1  UNL1        0.0470
      7  C          7.1000    1.0260   -0.3710 C.2     1  UNL1       -0.0470
      8  C          6.4110    0.1010   -1.1120 C.2     1  UNL1        0.0040
      9  C          8.4340    1.2140   -0.6470 C.2     1  UNL1        0.0040
     10  C          7.0500   -0.6150   -2.1060 C.2     1  UNL1        0.0000
     11  C          9.0830    0.5170   -1.6230 C.2     1  UNL1        0.0000
     12  C          8.3900   -0.4130   -2.3690 C.2     1  UNL1        0.0000
@<TRIPOS>BOND
     1    12    10    2
     2    12    11    1
     3    10     8    1
     4    11     9    2
     5     8     7    2
     6     9     7    1
     7     7     6    1
     8     1     6    1
     9     1     2    1
    10     2     4    1
    11     2     3    2
    12     5     4    1
