@<TRIPOS>MOLECULE
/home/cewinharhar/GITHUB/reincatalyze/data/processed/docking_pred/2023-Apr-25-1630_maxeplen5_maxtrainstep200_exh32_gamma099_lrac3e-4_lrcr1e-3/3b29dc4ebb7ee5049f43ecb42d98a580ffb6b5da_ligand_2.pdbqt
 12 12 0 0 0
SMALL
GASTEIGER

@<TRIPOS>ATOM
      1  C          8.4140   -0.7180   -2.0750 C.3     1  UNL1        0.1270
      2  C          8.4610   -1.9490   -2.8980 C.2     1  UNL1        0.3030
      3  O          9.5370   -2.5290   -3.1130 O.2     1  UNL1       -0.2520
      4  O          7.2930   -2.4570   -3.4340 O.3     1  UNL1       -0.4810
      5  H          7.0440   -3.4400   -3.3610 H       1  UNL1        0.2960
      6  C          7.0430   -0.0920   -2.1370 C.3     1  UNL1        0.0470
      7  C          6.4600    0.1430   -0.8020 C.2     1  UNL1       -0.0470
      8  C          5.8230    1.2990   -0.4300 C.2     1  UNL1        0.0040
      9  C          6.5660   -0.8660    0.1260 C.2     1  UNL1        0.0040
     10  C          5.3060    1.4330    0.8450 C.2     1  UNL1        0.0000
     11  C          6.0640   -0.7530    1.3890 C.2     1  UNL1        0.0000
     12  C          5.4230    0.4080    1.7630 C.2     1  UNL1        0.0000
@<TRIPOS>BOND
     1     4     5    1
     2     4     2    1
     3     3     2    2
     4     2     1    1
     5     6     1    1
     6     6     7    1
     7     7     8    2
     8     7     9    1
     9     8    10    1
    10     9    11    2
    11    10    12    2
    12    11    12    1
