@<TRIPOS>MOLECULE
/home/cewinharhar/GITHUB/reincatalyze/data/processed/docking_pred/2023-Apr-25-1630_maxeplen5_maxtrainstep200_exh32_gamma099_lrac3e-4_lrcr1e-3/3b29dc4ebb7ee5049f43ecb42d98a580ffb6b5da_ligand_2.pdbqt
 12 12 0 0 0
SMALL
GASTEIGER

@<TRIPOS>ATOM
      1  C          5.0260    1.6640    0.6810 C.3     1  UNL1        0.1270
      2  C          4.5820    1.0180    1.9380 C.2     1  UNL1        0.3030
      3  O          5.2970    0.1810    2.5100 O.2     1  UNL1       -0.2520
      4  O          3.3550    1.3520    2.4800 O.3     1  UNL1       -0.4810
      5  H          3.1480    1.2340    3.4680 H       1  UNL1        0.2960
      6  C          6.5230    1.8470    0.6790 C.3     1  UNL1        0.0470
      7  C          7.1940    1.0720   -0.3820 C.2     1  UNL1       -0.0470
      8  C          8.5210    1.1940   -0.7060 C.2     1  UNL1        0.0040
      9  C          6.4340    0.1710   -1.0900 C.2     1  UNL1        0.0040
     10  C          9.0670    0.4270   -1.7170 C.2     1  UNL1        0.0000
     11  C          6.9540   -0.5950   -2.0920 C.2     1  UNL1        0.0000
     12  C          8.2880   -0.4730   -2.4170 C.2     1  UNL1        0.0000
@<TRIPOS>BOND
     1    12    11    2
     2    12    10    1
     3    11     9    1
     4    10     8    2
     5     9     7    2
     6     8     7    1
     7     7     6    1
     8     6     1    1
     9     1     2    1
    10     2     4    1
    11     2     3    2
    12     4     5    1
