@<TRIPOS>MOLECULE
/home/cewinharhar/GITHUB/reincatalyze/data/processed/docking_pred/2023-Apr-25-1630_maxeplen5_maxtrainstep200_exh32_gamma099_lrac3e-4_lrcr1e-3/3b29dc4ebb7ee5049f43ecb42d98a580ffb6b5da_ligand_2.pdbqt
 12 12 0 0 0
SMALL
GASTEIGER

@<TRIPOS>ATOM
      1  C          5.5670    2.9940   -0.0440 C.3     1  UNL1        0.1270
      2  C          6.3200    3.9440    0.8090 C.2     1  UNL1        0.3030
      3  O          7.0930    4.7740    0.3050 O.2     1  UNL1       -0.2520
      4  O          6.1590    3.9050    2.1800 O.3     1  UNL1       -0.4810
      5  H          6.9130    3.6410    2.8080 H       1  UNL1        0.2960
      6  C          4.9110    1.9300    0.8010 C.3     1  UNL1        0.0470
      7  C          5.6760    0.6680    0.8270 C.2     1  UNL1       -0.0470
      8  C          6.3290    0.1380   -0.2560 C.2     1  UNL1        0.0040
      9  C          5.7330   -0.0170    2.0180 C.2     1  UNL1        0.0040
     10  C          7.0220   -1.0510   -0.1400 C.2     1  UNL1        0.0000
     11  C          6.4110   -1.1930    2.1520 C.2     1  UNL1        0.0000
     12  C          7.0690   -1.7250    1.0640 C.2     1  UNL1        0.0000
@<TRIPOS>BOND
     1     8    10    1
     2     8     7    2
     3    10    12    2
     4     1     6    1
     5     1     2    1
     6     3     2    2
     7     6     7    1
     8     2     4    1
     9     7     9    1
    10    12    11    1
    11     9    11    2
    12     4     5    1
