@<TRIPOS>MOLECULE
/home/cewinharhar/GITHUB/reincatalyze/data/processed/docking_pred/2023-Apr-25-1630_maxeplen5_maxtrainstep200_exh32_gamma099_lrac3e-4_lrcr1e-3/3bf4b9a3f06cfa5433c2fd34b58c3faf64c233d9_ligand_2.pdbqt
 12 12 0 0 0
SMALL
GASTEIGER

@<TRIPOS>ATOM
      1  C          8.2960    0.3600   -1.9820 C.3     1  UNL1        0.1270
      2  C          9.4670    0.3920   -1.0740 C.2     1  UNL1        0.3030
      3  O          9.5350   -0.3710   -0.0980 O.2     1  UNL1       -0.2520
      4  O         10.4940    1.2840   -1.3160 O.3     1  UNL1       -0.4810
      5  H         10.3250    2.2330   -1.6380 H       1  UNL1        0.2960
      6  C          7.2050   -0.5100   -1.4100 C.3     1  UNL1        0.0470
      7  C          6.3720    0.1950   -0.4160 C.2     1  UNL1       -0.0470
      8  C          5.7930    1.4200   -0.6240 C.2     1  UNL1        0.0040
      9  C          6.1690   -0.4210    0.7960 C.2     1  UNL1        0.0040
     10  C          5.0290    2.0080    0.3650 C.2     1  UNL1        0.0000
     11  C          5.4180    0.1430    1.7850 C.2     1  UNL1        0.0000
     12  C          4.8350    1.3740    1.5760 C.2     1  UNL1        0.0000
@<TRIPOS>BOND
     1     1     6    1
     2     1     2    1
     3     5     4    1
     4     6     7    1
     5     4     2    1
     6     2     3    2
     7     8     7    2
     8     8    10    1
     9     7     9    1
    10    10    12    2
    11     9    11    2
    12    12    11    1
