@<TRIPOS>MOLECULE
/home/cewinharhar/GITHUB/reincatalyze/data/processed/docking_pred/2023-Apr-25-1630_maxeplen5_maxtrainstep200_exh32_gamma099_lrac3e-4_lrcr1e-3/3bf4b9a3f06cfa5433c2fd34b58c3faf64c233d9_ligand_2.pdbqt
 12 12 0 0 0
SMALL
GASTEIGER

@<TRIPOS>ATOM
      1  C          5.4640    2.8920    0.0290 C.3     1  UNL1        0.1270
      2  C          6.2700    3.8630    0.8060 C.2     1  UNL1        0.3030
      3  O          6.8890    4.7750    0.2350 O.2     1  UNL1       -0.2520
      4  O          6.3350    3.7510    2.1810 O.3     1  UNL1       -0.4810
      5  H          7.1850    3.9460    2.7030 H       1  UNL1        0.2960
      6  C          4.9420    1.7990    0.9280 C.3     1  UNL1        0.0470
      7  C          5.7970    0.5960    0.9230 C.2     1  UNL1       -0.0470
      8  C          6.6530    0.2620   -0.0940 C.2     1  UNL1        0.0040
      9  C          5.7250   -0.2410    2.0110 C.2     1  UNL1        0.0040
     10  C          7.4180   -0.8860   -0.0150 C.2     1  UNL1        0.0000
     11  C          6.4700   -1.3790    2.1080 C.2     1  UNL1        0.0000
     12  C          7.3320   -1.7150    1.0860 C.2     1  UNL1        0.0000
@<TRIPOS>BOND
     1     8    10    1
     2     8     7    2
     3    10    12    2
     4     1     2    1
     5     1     6    1
     6     3     2    2
     7     2     4    1
     8     7     6    1
     9     7     9    1
    10    12    11    1
    11     9    11    2
    12     4     5    1
