@<TRIPOS>MOLECULE
/home/cewinharhar/GITHUB/reincatalyze/data/processed/docking_pred/2023-Apr-25-1630_maxeplen5_maxtrainstep200_exh32_gamma099_lrac3e-4_lrcr1e-3/3bf4b9a3f06cfa5433c2fd34b58c3faf64c233d9_ligand_2.pdbqt
 12 12 0 0 0
SMALL
GASTEIGER

@<TRIPOS>ATOM
      1  C          8.4240   -0.6600   -2.0970 C.3     1  UNL1        0.1270
      2  C          8.4740   -1.9090   -2.8930 C.2     1  UNL1        0.3030
      3  O          9.5520   -2.4890   -3.0970 O.2     1  UNL1       -0.2520
      4  O          7.3080   -2.4330   -3.4150 O.3     1  UNL1       -0.4810
      5  H          7.0090   -2.2510   -4.3690 H       1  UNL1        0.2960
      6  C          7.0430   -0.0550   -2.1470 C.3     1  UNL1        0.0470
      7  C          6.4610    0.1560   -0.8080 C.2     1  UNL1       -0.0470
      8  C          5.7990    1.2940   -0.4240 C.2     1  UNL1        0.0040
      9  C          6.5960   -0.8570    0.1120 C.2     1  UNL1        0.0040
     10  C          5.2870    1.4070    0.8540 C.2     1  UNL1        0.0000
     11  C          6.0970   -0.7650    1.3780 C.2     1  UNL1        0.0000
     12  C          5.4310    0.3790    1.7640 C.2     1  UNL1        0.0000
@<TRIPOS>BOND
     1     5     4    1
     2     4     2    1
     3     3     2    2
     4     2     1    1
     5     6     1    1
     6     6     7    1
     7     7     8    2
     8     7     9    1
     9     8    10    1
    10     9    11    2
    11    10    12    2
    12    11    12    1
