@<TRIPOS>MOLECULE
/home/cewinharhar/GITHUB/reincatalyze/data/processed/docking_pred/2023-Apr-25-1630_maxeplen5_maxtrainstep200_exh32_gamma099_lrac3e-4_lrcr1e-3/3bf4b9a3f06cfa5433c2fd34b58c3faf64c233d9_ligand_2.pdbqt
 12 12 0 0 0
SMALL
GASTEIGER

@<TRIPOS>ATOM
      1  C          5.0020    1.7720    0.7110 C.3     1  UNL1        0.1270
      2  C          4.4930    1.0950    1.9260 C.2     1  UNL1        0.3030
      3  O          5.1540    0.2030    2.4810 O.2     1  UNL1       -0.2520
      4  O          3.2670    1.4600    2.4480 O.3     1  UNL1       -0.4810
      5  H          3.1040    1.5390    3.4480 H       1  UNL1        0.2960
      6  C          6.5060    1.8830    0.7560 C.3     1  UNL1        0.0470
      7  C          7.1690    1.1200   -0.3190 C.2     1  UNL1       -0.0470
      8  C          8.5000    1.2240   -0.6320 C.2     1  UNL1        0.0040
      9  C          6.3960    0.2520   -1.0540 C.2     1  UNL1        0.0040
     10  C          9.0380    0.4710   -1.6580 C.2     1  UNL1        0.0000
     11  C          6.9080   -0.5000   -2.0700 C.2     1  UNL1        0.0000
     12  C          8.2460   -0.3970   -2.3840 C.2     1  UNL1        0.0000
@<TRIPOS>BOND
     1    12    11    2
     2    12    10    1
     3    11     9    1
     4    10     8    2
     5     9     7    2
     6     8     7    1
     7     7     6    1
     8     1     6    1
     9     1     2    1
    10     2     4    1
    11     2     3    2
    12     4     5    1
