@<TRIPOS>MOLECULE
/home/cewinharhar/GITHUB/reincatalyze/data/processed/docking_pred/2023-Apr-25-1630_maxeplen5_maxtrainstep200_exh32_gamma099_lrac3e-4_lrcr1e-3/3bf4b9a3f06cfa5433c2fd34b58c3faf64c233d9_ligand_2.pdbqt
 12 12 0 0 0
SMALL
GASTEIGER

@<TRIPOS>ATOM
      1  C          8.4640   -0.6430   -2.1760 C.3     1  UNL1        0.1270
      2  C          8.5050   -1.9330   -2.9040 C.2     1  UNL1        0.3030
      3  O          9.5760   -2.5400   -3.0600 O.2     1  UNL1       -0.2520
      4  O          7.3380   -2.4660   -3.4150 O.3     1  UNL1       -0.4810
      5  H          7.2430   -2.7310   -4.3910 H       1  UNL1        0.2960
      6  C          7.0640   -0.0830   -2.1680 C.3     1  UNL1        0.0470
      7  C          6.5130    0.0620   -0.8070 C.2     1  UNL1       -0.0470
      8  C          6.6010   -0.8990    0.1680 C.2     1  UNL1        0.0040
      9  C          5.8690    1.2370   -0.5020 C.2     1  UNL1        0.0040
     10  C          6.0540   -0.6790    1.4170 C.2     1  UNL1        0.0000
     11  C          5.3230    1.4740    0.7250 C.2     1  UNL1        0.0000
     12  C          5.4120    0.5090    1.7050 C.2     1  UNL1        0.0000
@<TRIPOS>BOND
     1     5     4    1
     2     4     2    1
     3     3     2    2
     4     2     1    1
     5     1     6    1
     6     6     7    1
     7     7     9    2
     8     7     8    1
     9     9    11    1
    10     8    10    2
    11    11    12    2
    12    10    12    1
