@<TRIPOS>MOLECULE
/home/cewinharhar/GITHUB/reincatalyze/data/processed/docking_pred/2023-Apr-25-1630_maxeplen5_maxtrainstep200_exh32_gamma099_lrac3e-4_lrcr1e-3/3c607cf36dcc024da10d53d595c24d9744c2a083_ligand_2.pdbqt
 12 12 0 0 0
SMALL
GASTEIGER

@<TRIPOS>ATOM
      1  C          8.2110    0.3140   -2.0840 C.3     1  UNL1        0.1270
      2  C          9.3870    0.3810   -1.1840 C.2     1  UNL1        0.3030
      3  O          9.4820   -0.3770   -0.2060 O.2     1  UNL1       -0.2520
      4  O         10.3880    1.2980   -1.4370 O.3     1  UNL1       -0.4810
      5  H         10.6210    2.0420   -0.7840 H       1  UNL1        0.2960
      6  C          7.1270   -0.5420   -1.4780 C.3     1  UNL1        0.0470
      7  C          6.3370    0.1740   -0.4570 C.2     1  UNL1       -0.0470
      8  C          5.7670    1.4060   -0.6470 C.2     1  UNL1        0.0040
      9  C          6.1650   -0.4400    0.7610 C.2     1  UNL1        0.0040
     10  C          5.0430    2.0050    0.3660 C.2     1  UNL1        0.0000
     11  C          5.4540    0.1340    1.7740 C.2     1  UNL1        0.0000
     12  C          4.8810    1.3730    1.5830 C.2     1  UNL1        0.0000
@<TRIPOS>BOND
     1     1     6    1
     2     1     2    1
     3     6     7    1
     4     4     2    1
     5     4     5    1
     6     2     3    2
     7     8     7    2
     8     8    10    1
     9     7     9    1
    10    10    12    2
    11     9    11    2
    12    12    11    1
