MODEL 1
REMARK VINA RESULT:      -7.3      0.000      0.000
REMARK SMILES O=C(O)CCc1ccccc1
REMARK SMILES IDX 4 1 2 2 1 3 3 4 5 6 6 7 7 8 11 9 8 10 10 11 9 12
REMARK H PARENT 3 5
REMARK Flexibility Score: inf
ROOT
ATOM      1  C   UNL     1       8.433  -0.575  -2.233  1.00  0.00     0.127 C 
ENDROOT
BRANCH   1   2
ATOM      2  C   UNL     1       8.488  -1.887  -2.921  1.00  0.00     0.303 C 
ATOM      3  O   UNL     1       9.568  -2.475  -3.083  1.00  0.00    -0.252 OA
BRANCH   2   4
ATOM      4  O   UNL     1       7.322  -2.461  -3.389  1.00  0.00    -0.481 OA
ATOM      5  H   UNL     1       7.309  -3.366  -3.852  1.00  0.00     0.296 HD
ENDBRANCH   2   4
ENDBRANCH   1   2
BRANCH   1   6
ATOM      6  C   UNL     1       7.015  -0.066  -2.174  1.00  0.00     0.047 C 
BRANCH   6   7
ATOM      7  C   UNL     1       6.500   0.037  -0.795  1.00  0.00    -0.047 A 
ATOM      8  C   UNL     1       6.621  -0.950   0.150  1.00  0.00     0.004 A 
ATOM      9  C   UNL     1       5.857   1.199  -0.440  1.00  0.00     0.004 A 
ATOM     10  C   UNL     1       6.107  -0.768   1.419  1.00  0.00     0.000 A 
ATOM     11  C   UNL     1       5.343   1.398   0.807  1.00  0.00     0.000 A 
ATOM     12  C   UNL     1       5.464   0.406   1.757  1.00  0.00     0.000 A 
ENDBRANCH   6   7
ENDBRANCH   1   6
TORSDOF 4
ENDMDL
MODEL 2
REMARK VINA RESULT:      -7.3      0.101      1.429
REMARK SMILES O=C(O)CCc1ccccc1
REMARK SMILES IDX 4 1 2 2 1 3 3 4 5 6 6 7 7 8 11 9 8 10 10 11 9 12
REMARK H PARENT 3 5
REMARK Flexibility Score: inf
ROOT
ATOM      1  C   UNL     1       8.378  -0.645  -2.133  1.00  0.00     0.127 C 
ENDROOT
BRANCH   1   2
ATOM      2  C   UNL     1       8.444  -1.914  -2.895  1.00  0.00     0.303 C 
ATOM      3  O   UNL     1       9.527  -2.494  -3.072  1.00  0.00    -0.252 OA
BRANCH   2   4
ATOM      4  O   UNL     1       7.285  -2.459  -3.415  1.00  0.00    -0.481 OA
ATOM      5  H   UNL     1       6.364  -2.217  -3.059  1.00  0.00     0.296 HD
ENDBRANCH   2   4
ENDBRANCH   1   2
BRANCH   1   6
ATOM      6  C   UNL     1       6.972  -0.099  -2.132  1.00  0.00     0.047 C 
BRANCH   6   7
ATOM      7  C   UNL     1       6.435   0.095  -0.771  1.00  0.00    -0.047 A 
ATOM      8  C   UNL     1       5.817   1.241  -0.342  1.00  0.00     0.004 A 
ATOM      9  C   UNL     1       6.567  -0.943   0.120  1.00  0.00     0.004 A 
ATOM     10  C   UNL     1       5.344   1.337   0.953  1.00  0.00     0.000 A 
ATOM     11  C   UNL     1       6.108  -0.868   1.402  1.00  0.00     0.000 A 
ATOM     12  C   UNL     1       5.486   0.284   1.834  1.00  0.00     0.000 A 
ENDBRANCH   6   7
ENDBRANCH   1   6
TORSDOF 4
ENDMDL
MODEL 3
REMARK VINA RESULT:      -6.8      3.371      5.054
REMARK SMILES O=C(O)CCc1ccccc1
REMARK SMILES IDX 4 1 2 2 1 3 3 4 5 6 6 7 7 8 11 9 8 10 10 11 9 12
REMARK H PARENT 3 5
REMARK Flexibility Score: inf
ROOT
ATOM      1  C   UNL     1       4.998   1.771   0.736  1.00  0.00     0.127 C 
ENDROOT
BRANCH   1   2
ATOM      2  C   UNL     1       4.466   1.092   1.941  1.00  0.00     0.303 C 
ATOM      3  O   UNL     1       5.108   0.185   2.494  1.00  0.00    -0.252 OA
BRANCH   2   4
ATOM      4  O   UNL     1       3.242   1.472   2.455  1.00  0.00    -0.481 OA
ATOM      5  H   UNL     1       2.946   1.223   3.395  1.00  0.00     0.296 HD
ENDBRANCH   2   4
ENDBRANCH   1   2
BRANCH   1   6
ATOM      6  C   UNL     1       6.506   1.777   0.753  1.00  0.00     0.047 C 
BRANCH   6   7
ATOM      7  C   UNL     1       7.094   0.974  -0.336  1.00  0.00    -0.047 A 
ATOM      8  C   UNL     1       6.427  -0.015  -1.013  1.00  0.00     0.004 A 
ATOM      9  C   UNL     1       8.396   1.238  -0.691  1.00  0.00     0.004 A 
ATOM     10  C   UNL     1       7.057  -0.719  -2.021  1.00  0.00     0.000 A 
ATOM     11  C   UNL     1       9.035   0.554  -1.683  1.00  0.00     0.000 A 
ATOM     12  C   UNL     1       8.365  -0.440  -2.363  1.00  0.00     0.000 A 
ENDBRANCH   6   7
ENDBRANCH   1   6
TORSDOF 4
ENDMDL
MODEL 4
REMARK VINA RESULT:      -6.7      1.940      2.623
REMARK SMILES O=C(O)CCc1ccccc1
REMARK SMILES IDX 4 1 2 2 1 3 3 4 5 6 6 7 7 8 11 9 8 10 10 11 9 12
REMARK H PARENT 3 5
REMARK Flexibility Score: inf
ROOT
ATOM      1  C   UNL     1       8.211   0.314  -2.084  1.00  0.00     0.127 C 
ENDROOT
BRANCH   1   2
ATOM      2  C   UNL     1       9.387   0.381  -1.184  1.00  0.00     0.303 C 
ATOM      3  O   UNL     1       9.482  -0.377  -0.206  1.00  0.00    -0.252 OA
BRANCH   2   4
ATOM      4  O   UNL     1      10.388   1.298  -1.437  1.00  0.00    -0.481 OA
ATOM      5  H   UNL     1      10.621   2.042  -0.784  1.00  0.00     0.296 HD
ENDBRANCH   2   4
ENDBRANCH   1   2
BRANCH   1   6
ATOM      6  C   UNL     1       7.127  -0.542  -1.478  1.00  0.00     0.047 C 
BRANCH   6   7
ATOM      7  C   UNL     1       6.337   0.174  -0.457  1.00  0.00    -0.047 A 
ATOM      8  C   UNL     1       5.767   1.406  -0.647  1.00  0.00     0.004 A 
ATOM      9  C   UNL     1       6.165  -0.440   0.761  1.00  0.00     0.004 A 
ATOM     10  C   UNL     1       5.043   2.005   0.366  1.00  0.00     0.000 A 
ATOM     11  C   UNL     1       5.454   0.134   1.774  1.00  0.00     0.000 A 
ATOM     12  C   UNL     1       4.881   1.373   1.583  1.00  0.00     0.000 A 
ENDBRANCH   6   7
ENDBRANCH   1   6
TORSDOF 4
ENDMDL
MODEL 5
REMARK VINA RESULT:      -6.6      3.823      4.948
REMARK SMILES O=C(O)CCc1ccccc1
REMARK SMILES IDX 4 1 2 2 1 3 3 4 5 6 6 7 7 8 11 9 8 10 10 11 9 12
REMARK H PARENT 3 5
REMARK Flexibility Score: inf
ROOT
ATOM      1  C   UNL     1       5.470   2.904   0.091  1.00  0.00     0.127 C 
ENDROOT
BRANCH   1   2
ATOM      2  C   UNL     1       6.275   3.901   0.837  1.00  0.00     0.303 C 
ATOM      3  O   UNL     1       6.919   4.775   0.236  1.00  0.00    -0.252 OA
BRANCH   2   4
ATOM      4  O   UNL     1       6.307   3.857   2.217  1.00  0.00    -0.481 OA
ATOM      5  H   UNL     1       6.899   3.206   2.726  1.00  0.00     0.296 HD
ENDBRANCH   2   4
ENDBRANCH   1   2
BRANCH   1   6
ATOM      6  C   UNL     1       4.915   1.862   1.030  1.00  0.00     0.047 C 
BRANCH   6   7
ATOM      7  C   UNL     1       5.702   0.614   1.031  1.00  0.00    -0.047 A 
ATOM      8  C   UNL     1       5.774  -0.252   2.092  1.00  0.00     0.004 A 
ATOM      9  C   UNL     1       6.409   0.306  -0.107  1.00  0.00     0.004 A 
ATOM     10  C   UNL     1       6.538  -1.399   2.006  1.00  0.00     0.000 A 
ATOM     11  C   UNL     1       7.169  -0.822  -0.211  1.00  0.00     0.000 A 
ATOM     12  C   UNL     1       7.241  -1.693   0.854  1.00  0.00     0.000 A 
ENDBRANCH   6   7
ENDBRANCH   1   6
TORSDOF 4
ENDMDL
