@<TRIPOS>MOLECULE
/home/cewinharhar/GITHUB/reincatalyze/data/processed/docking_pred/2023-Apr-25-1630_maxeplen5_maxtrainstep200_exh32_gamma099_lrac3e-4_lrcr1e-3/3c607cf36dcc024da10d53d595c24d9744c2a083_ligand_2.pdbqt
 12 12 0 0 0
SMALL
GASTEIGER

@<TRIPOS>ATOM
      1  C          5.4700    2.9040    0.0910 C.3     1  UNL1        0.1270
      2  C          6.2750    3.9010    0.8370 C.2     1  UNL1        0.3030
      3  O          6.9190    4.7750    0.2360 O.2     1  UNL1       -0.2520
      4  O          6.3070    3.8570    2.2170 O.3     1  UNL1       -0.4810
      5  H          6.8990    3.2060    2.7260 H       1  UNL1        0.2960
      6  C          4.9150    1.8620    1.0300 C.3     1  UNL1        0.0470
      7  C          5.7020    0.6140    1.0310 C.2     1  UNL1       -0.0470
      8  C          5.7740   -0.2520    2.0920 C.2     1  UNL1        0.0040
      9  C          6.4090    0.3060   -0.1070 C.2     1  UNL1        0.0040
     10  C          6.5380   -1.3990    2.0060 C.2     1  UNL1        0.0000
     11  C          7.1690   -0.8220   -0.2110 C.2     1  UNL1        0.0000
     12  C          7.2410   -1.6930    0.8540 C.2     1  UNL1        0.0000
@<TRIPOS>BOND
     1    11     9    1
     2    11    12    2
     3     9     7    2
     4     1     2    1
     5     1     6    1
     6     3     2    2
     7     2     4    1
     8    12    10    1
     9     6     7    1
    10     7     8    1
    11    10     8    2
    12     4     5    1
