@<TRIPOS>MOLECULE
/home/cewinharhar/GITHUB/reincatalyze/data/processed/docking_pred/2023-Apr-25-1630_maxeplen5_maxtrainstep200_exh32_gamma099_lrac3e-4_lrcr1e-3/3c607cf36dcc024da10d53d595c24d9744c2a083_ligand_2.pdbqt
 12 12 0 0 0
SMALL
GASTEIGER

@<TRIPOS>ATOM
      1  C          8.4330   -0.5750   -2.2330 C.3     1  UNL1        0.1270
      2  C          8.4880   -1.8870   -2.9210 C.2     1  UNL1        0.3030
      3  O          9.5680   -2.4750   -3.0830 O.2     1  UNL1       -0.2520
      4  O          7.3220   -2.4610   -3.3890 O.3     1  UNL1       -0.4810
      5  H          7.3090   -3.3660   -3.8520 H       1  UNL1        0.2960
      6  C          7.0150   -0.0660   -2.1740 C.3     1  UNL1        0.0470
      7  C          6.5000    0.0370   -0.7950 C.2     1  UNL1       -0.0470
      8  C          6.6210   -0.9500    0.1500 C.2     1  UNL1        0.0040
      9  C          5.8570    1.1990   -0.4400 C.2     1  UNL1        0.0040
     10  C          6.1070   -0.7680    1.4190 C.2     1  UNL1        0.0000
     11  C          5.3430    1.3980    0.8070 C.2     1  UNL1        0.0000
     12  C          5.4640    0.4060    1.7570 C.2     1  UNL1        0.0000
@<TRIPOS>BOND
     1     5     4    1
     2     4     2    1
     3     3     2    2
     4     2     1    1
     5     1     6    1
     6     6     7    1
     7     7     9    2
     8     7     8    1
     9     9    11    1
    10     8    10    2
    11    11    12    2
    12    10    12    1
