@<TRIPOS>MOLECULE
/home/cewinharhar/GITHUB/reincatalyze/data/processed/docking_pred/2023-Apr-25-1630_maxeplen5_maxtrainstep200_exh32_gamma099_lrac3e-4_lrcr1e-3/3c607cf36dcc024da10d53d595c24d9744c2a083_ligand_2.pdbqt
 12 12 0 0 0
SMALL
GASTEIGER

@<TRIPOS>ATOM
      1  C          4.9980    1.7710    0.7360 C.3     1  UNL1        0.1270
      2  C          4.4660    1.0920    1.9410 C.2     1  UNL1        0.3030
      3  O          5.1080    0.1850    2.4940 O.2     1  UNL1       -0.2520
      4  O          3.2420    1.4720    2.4550 O.3     1  UNL1       -0.4810
      5  H          2.9460    1.2230    3.3950 H       1  UNL1        0.2960
      6  C          6.5060    1.7770    0.7530 C.3     1  UNL1        0.0470
      7  C          7.0940    0.9740   -0.3360 C.2     1  UNL1       -0.0470
      8  C          6.4270   -0.0150   -1.0130 C.2     1  UNL1        0.0040
      9  C          8.3960    1.2380   -0.6910 C.2     1  UNL1        0.0040
     10  C          7.0570   -0.7190   -2.0210 C.2     1  UNL1        0.0000
     11  C          9.0350    0.5540   -1.6830 C.2     1  UNL1        0.0000
     12  C          8.3650   -0.4400   -2.3630 C.2     1  UNL1        0.0000
@<TRIPOS>BOND
     1    12    10    2
     2    12    11    1
     3    10     8    1
     4    11     9    2
     5     8     7    2
     6     9     7    1
     7     7     6    1
     8     1     6    1
     9     1     2    1
    10     2     4    1
    11     2     3    2
    12     4     5    1
