@<TRIPOS>MOLECULE
/home/cewinharhar/GITHUB/reincatalyze/data/processed/docking_pred/2023-Apr-25-1630_maxeplen5_maxtrainstep200_exh32_gamma099_lrac3e-4_lrcr1e-3/3dd20a82ca316ee4e9168eadca9f8684e5881f32_ligand_2.pdbqt
 12 12 0 0 0
SMALL
GASTEIGER

@<TRIPOS>ATOM
      1  C          8.2300   -0.9850   -1.7940 C.3     1  UNL1        0.1270
      2  C          8.3900   -2.0290   -2.8340 C.2     1  UNL1        0.3030
      3  O          9.5130   -2.4710   -3.1230 O.2     1  UNL1       -0.2520
      4  O          7.2760   -2.5150   -3.4900 O.3     1  UNL1       -0.4810
      5  H          7.2450   -2.6260   -4.5000 H       1  UNL1        0.2960
      6  C          7.3320   -1.4750   -0.6860 C.3     1  UNL1        0.0470
      7  C          6.5300   -0.3950   -0.0790 C.2     1  UNL1       -0.0470
      8  C          6.0510   -0.4180    1.2060 C.2     1  UNL1        0.0040
      9  C          6.2460    0.7020   -0.8570 C.2     1  UNL1        0.0040
     10  C          5.3060    0.6390    1.6920 C.2     1  UNL1        0.0000
     11  C          5.5120    1.7550   -0.3960 C.2     1  UNL1        0.0000
     12  C          5.0310    1.7330    0.8960 C.2     1  UNL1        0.0000
@<TRIPOS>BOND
     1     5     4    1
     2     4     2    1
     3     3     2    2
     4     2     1    1
     5     1     6    1
     6     9    11    1
     7     9     7    2
     8     6     7    1
     9    11    12    2
    10     7     8    1
    11    12    10    1
    12     8    10    2
