@<TRIPOS>MOLECULE
/home/cewinharhar/GITHUB/reincatalyze/data/processed/docking_pred/2023-Apr-25-1630_maxeplen5_maxtrainstep200_exh32_gamma099_lrac3e-4_lrcr1e-3/3dd20a82ca316ee4e9168eadca9f8684e5881f32_ligand_2.pdbqt
 12 12 0 0 0
SMALL
GASTEIGER

@<TRIPOS>ATOM
      1  C          8.4210   -0.6470   -2.1190 C.3     1  UNL1        0.1270
      2  C          8.4600   -1.9040   -2.9030 C.2     1  UNL1        0.3030
      3  O          9.5300   -2.5050   -3.0870 O.2     1  UNL1       -0.2520
      4  O          7.2910   -2.4130   -3.4350 O.3     1  UNL1       -0.4810
      5  H          7.0080   -2.2350   -4.3940 H       1  UNL1        0.2960
      6  C          7.0290   -0.0650   -2.1200 C.3     1  UNL1        0.0470
      7  C          6.4740    0.0920   -0.7620 C.2     1  UNL1       -0.0470
      8  C          5.8300    1.2170   -0.3160 C.2     1  UNL1        0.0040
      9  C          6.6150   -0.9620    0.1100 C.2     1  UNL1        0.0040
     10  C          5.3410    1.2780    0.9740 C.2     1  UNL1        0.0000
     11  C          6.1410   -0.9210    1.3880 C.2     1  UNL1        0.0000
     12  C          5.4920    0.2100    1.8360 C.2     1  UNL1        0.0000
@<TRIPOS>BOND
     1     5     4    1
     2     4     2    1
     3     3     2    2
     4     2     1    1
     5     6     1    1
     6     6     7    1
     7     7     8    2
     8     7     9    1
     9     8    10    1
    10     9    11    2
    11    10    12    2
    12    11    12    1
