MODEL 1
REMARK VINA RESULT:      -7.3      0.000      0.000
REMARK SMILES O=C(O)CCc1ccccc1
REMARK SMILES IDX 4 1 2 2 1 3 3 4 5 6 6 7 7 8 11 9 8 10 10 11 9 12
REMARK H PARENT 3 5
REMARK Flexibility Score: inf
ROOT
ATOM      1  C   UNL     1       8.421  -0.647  -2.119  1.00  0.00     0.127 C 
ENDROOT
BRANCH   1   2
ATOM      2  C   UNL     1       8.460  -1.904  -2.903  1.00  0.00     0.303 C 
ATOM      3  O   UNL     1       9.530  -2.505  -3.087  1.00  0.00    -0.252 OA
BRANCH   2   4
ATOM      4  O   UNL     1       7.291  -2.413  -3.435  1.00  0.00    -0.481 OA
ATOM      5  H   UNL     1       7.008  -2.235  -4.394  1.00  0.00     0.296 HD
ENDBRANCH   2   4
ENDBRANCH   1   2
BRANCH   1   6
ATOM      6  C   UNL     1       7.029  -0.065  -2.120  1.00  0.00     0.047 C 
BRANCH   6   7
ATOM      7  C   UNL     1       6.474   0.092  -0.762  1.00  0.00    -0.047 A 
ATOM      8  C   UNL     1       5.830   1.217  -0.316  1.00  0.00     0.004 A 
ATOM      9  C   UNL     1       6.615  -0.962   0.110  1.00  0.00     0.004 A 
ATOM     10  C   UNL     1       5.341   1.278   0.974  1.00  0.00     0.000 A 
ATOM     11  C   UNL     1       6.141  -0.921   1.388  1.00  0.00     0.000 A 
ATOM     12  C   UNL     1       5.492   0.210   1.836  1.00  0.00     0.000 A 
ENDBRANCH   6   7
ENDBRANCH   1   6
TORSDOF 4
ENDMDL
MODEL 2
REMARK VINA RESULT:      -7.3      0.110      1.430
REMARK SMILES O=C(O)CCc1ccccc1
REMARK SMILES IDX 4 1 2 2 1 3 3 4 5 6 6 7 7 8 11 9 8 10 10 11 9 12
REMARK H PARENT 3 5
REMARK Flexibility Score: inf
ROOT
ATOM      1  C   UNL     1       8.426  -0.556  -2.277  1.00  0.00     0.127 C 
ENDROOT
BRANCH   1   2
ATOM      2  C   UNL     1       8.475  -1.883  -2.937  1.00  0.00     0.303 C 
ATOM      3  O   UNL     1       9.552  -2.484  -3.074  1.00  0.00    -0.252 OA
BRANCH   2   4
ATOM      4  O   UNL     1       7.308  -2.456  -3.404  1.00  0.00    -0.481 OA
ATOM      5  H   UNL     1       7.025  -3.398  -3.148  1.00  0.00     0.296 HD
ENDBRANCH   2   4
ENDBRANCH   1   2
BRANCH   1   6
ATOM      6  C   UNL     1       7.005  -0.056  -2.197  1.00  0.00     0.047 C 
BRANCH   6   7
ATOM      7  C   UNL     1       6.503   0.021  -0.812  1.00  0.00    -0.047 A 
ATOM      8  C   UNL     1       6.603  -0.995   0.103  1.00  0.00     0.004 A 
ATOM      9  C   UNL     1       5.894   1.189  -0.419  1.00  0.00     0.004 A 
ATOM     10  C   UNL     1       6.103  -0.837   1.381  1.00  0.00     0.000 A 
ATOM     11  C   UNL     1       5.393   1.366   0.837  1.00  0.00     0.000 A 
ATOM     12  C   UNL     1       5.495   0.344   1.758  1.00  0.00     0.000 A 
ENDBRANCH   6   7
ENDBRANCH   1   6
TORSDOF 4
ENDMDL
MODEL 3
REMARK VINA RESULT:      -7.2      0.656      1.626
REMARK SMILES O=C(O)CCc1ccccc1
REMARK SMILES IDX 4 1 2 2 1 3 3 4 5 6 6 7 7 8 11 9 8 10 10 11 9 12
REMARK H PARENT 3 5
REMARK Flexibility Score: inf
ROOT
ATOM      1  C   UNL     1       8.230  -0.985  -1.794  1.00  0.00     0.127 C 
ENDROOT
BRANCH   1   2
ATOM      2  C   UNL     1       8.390  -2.029  -2.834  1.00  0.00     0.303 C 
ATOM      3  O   UNL     1       9.513  -2.471  -3.123  1.00  0.00    -0.252 OA
BRANCH   2   4
ATOM      4  O   UNL     1       7.276  -2.515  -3.490  1.00  0.00    -0.481 OA
ATOM      5  H   UNL     1       7.245  -2.626  -4.500  1.00  0.00     0.296 HD
ENDBRANCH   2   4
ENDBRANCH   1   2
BRANCH   1   6
ATOM      6  C   UNL     1       7.332  -1.475  -0.686  1.00  0.00     0.047 C 
BRANCH   6   7
ATOM      7  C   UNL     1       6.530  -0.395  -0.079  1.00  0.00    -0.047 A 
ATOM      8  C   UNL     1       6.051  -0.418   1.206  1.00  0.00     0.004 A 
ATOM      9  C   UNL     1       6.246   0.702  -0.857  1.00  0.00     0.004 A 
ATOM     10  C   UNL     1       5.306   0.639   1.692  1.00  0.00     0.000 A 
ATOM     11  C   UNL     1       5.512   1.755  -0.396  1.00  0.00     0.000 A 
ATOM     12  C   UNL     1       5.031   1.733   0.896  1.00  0.00     0.000 A 
ENDBRANCH   6   7
ENDBRANCH   1   6
TORSDOF 4
ENDMDL
MODEL 4
REMARK VINA RESULT:      -6.8      3.379      5.083
REMARK SMILES O=C(O)CCc1ccccc1
REMARK SMILES IDX 4 1 2 2 1 3 3 4 5 6 6 7 7 8 11 9 8 10 10 11 9 12
REMARK H PARENT 3 5
REMARK Flexibility Score: inf
ROOT
ATOM      1  C   UNL     1       4.977   1.791   0.729  1.00  0.00     0.127 C 
ENDROOT
BRANCH   1   2
ATOM      2  C   UNL     1       4.464   1.099   1.935  1.00  0.00     0.303 C 
ATOM      3  O   UNL     1       5.118   0.193   2.474  1.00  0.00    -0.252 OA
BRANCH   2   4
ATOM      4  O   UNL     1       3.242   1.467   2.465  1.00  0.00    -0.481 OA
ATOM      5  H   UNL     1       2.361   1.151   2.069  1.00  0.00     0.296 HD
ENDBRANCH   2   4
ENDBRANCH   1   2
BRANCH   1   6
ATOM      6  C   UNL     1       6.485   1.823   0.738  1.00  0.00     0.047 C 
BRANCH   6   7
ATOM      7  C   UNL     1       7.081   1.015  -0.343  1.00  0.00    -0.047 A 
ATOM      8  C   UNL     1       6.404   0.058  -1.054  1.00  0.00     0.004 A 
ATOM      9  C   UNL     1       8.402   1.238  -0.651  1.00  0.00     0.004 A 
ATOM     10  C   UNL     1       7.043  -0.654  -2.051  1.00  0.00     0.000 A 
ATOM     11  C   UNL     1       9.051   0.546  -1.631  1.00  0.00     0.000 A 
ATOM     12  C   UNL     1       8.370  -0.415  -2.347  1.00  0.00     0.000 A 
ENDBRANCH   6   7
ENDBRANCH   1   6
TORSDOF 4
ENDMDL
MODEL 5
REMARK VINA RESULT:      -6.8      3.368      5.044
REMARK SMILES O=C(O)CCc1ccccc1
REMARK SMILES IDX 4 1 2 2 1 3 3 4 5 6 6 7 7 8 11 9 8 10 10 11 9 12
REMARK H PARENT 3 5
REMARK Flexibility Score: inf
ROOT
ATOM      1  C   UNL     1       5.031   1.769   0.672  1.00  0.00     0.127 C 
ENDROOT
BRANCH   1   2
ATOM      2  C   UNL     1       4.523   1.109   1.898  1.00  0.00     0.303 C 
ATOM      3  O   UNL     1       5.187   0.229   2.468  1.00  0.00    -0.252 OA
BRANCH   2   4
ATOM      4  O   UNL     1       3.294   1.477   2.411  1.00  0.00    -0.481 OA
ATOM      5  H   UNL     1       2.638   0.800   2.789  1.00  0.00     0.296 HD
ENDBRANCH   2   4
ENDBRANCH   1   2
BRANCH   1   6
ATOM      6  C   UNL     1       6.535   1.877   0.714  1.00  0.00     0.047 C 
BRANCH   6   7
ATOM      7  C   UNL     1       7.195   1.102  -0.354  1.00  0.00    -0.047 A 
ATOM      8  C   UNL     1       8.526   1.197  -0.668  1.00  0.00     0.004 A 
ATOM      9  C   UNL     1       6.419   0.229  -1.080  1.00  0.00     0.004 A 
ATOM     10  C   UNL     1       9.061   0.432  -1.686  1.00  0.00     0.000 A 
ATOM     11  C   UNL     1       6.927  -0.534  -2.089  1.00  0.00     0.000 A 
ATOM     12  C   UNL     1       8.266  -0.439  -2.404  1.00  0.00     0.000 A 
ENDBRANCH   6   7
ENDBRANCH   1   6
TORSDOF 4
ENDMDL
