@<TRIPOS>MOLECULE
/home/cewinharhar/GITHUB/reincatalyze/data/processed/docking_pred/2023-Apr-25-1630_maxeplen5_maxtrainstep200_exh32_gamma099_lrac3e-4_lrcr1e-3/3dd20a82ca316ee4e9168eadca9f8684e5881f32_ligand_2.pdbqt
 12 12 0 0 0
SMALL
GASTEIGER

@<TRIPOS>ATOM
      1  C          8.4260   -0.5560   -2.2770 C.3     1  UNL1        0.1270
      2  C          8.4750   -1.8830   -2.9370 C.2     1  UNL1        0.3030
      3  O          9.5520   -2.4840   -3.0740 O.2     1  UNL1       -0.2520
      4  O          7.3080   -2.4560   -3.4040 O.3     1  UNL1       -0.4810
      5  H          7.0250   -3.3980   -3.1480 H       1  UNL1        0.2960
      6  C          7.0050   -0.0560   -2.1970 C.3     1  UNL1        0.0470
      7  C          6.5030    0.0210   -0.8120 C.2     1  UNL1       -0.0470
      8  C          6.6030   -0.9950    0.1030 C.2     1  UNL1        0.0040
      9  C          5.8940    1.1890   -0.4190 C.2     1  UNL1        0.0040
     10  C          6.1030   -0.8370    1.3810 C.2     1  UNL1        0.0000
     11  C          5.3930    1.3660    0.8370 C.2     1  UNL1        0.0000
     12  C          5.4950    0.3440    1.7580 C.2     1  UNL1        0.0000
@<TRIPOS>BOND
     1     4     5    1
     2     4     2    1
     3     3     2    2
     4     2     1    1
     5     1     6    1
     6     6     7    1
     7     7     9    2
     8     7     8    1
     9     9    11    1
    10     8    10    2
    11    11    12    2
    12    10    12    1
