@<TRIPOS>MOLECULE
/home/cewinharhar/GITHUB/reincatalyze/data/processed/docking_pred/2023-Apr-25-1630_maxeplen5_maxtrainstep200_exh32_gamma099_lrac3e-4_lrcr1e-3/3dd20a82ca316ee4e9168eadca9f8684e5881f32_ligand_2.pdbqt
 12 12 0 0 0
SMALL
GASTEIGER

@<TRIPOS>ATOM
      1  C          5.0310    1.7690    0.6720 C.3     1  UNL1        0.1270
      2  C          4.5230    1.1090    1.8980 C.2     1  UNL1        0.3030
      3  O          5.1870    0.2290    2.4680 O.2     1  UNL1       -0.2520
      4  O          3.2940    1.4770    2.4110 O.3     1  UNL1       -0.4810
      5  H          2.6380    0.8000    2.7890 H       1  UNL1        0.2960
      6  C          6.5350    1.8770    0.7140 C.3     1  UNL1        0.0470
      7  C          7.1950    1.1020   -0.3540 C.2     1  UNL1       -0.0470
      8  C          8.5260    1.1970   -0.6680 C.2     1  UNL1        0.0040
      9  C          6.4190    0.2290   -1.0800 C.2     1  UNL1        0.0040
     10  C          9.0610    0.4320   -1.6860 C.2     1  UNL1        0.0000
     11  C          6.9270   -0.5340   -2.0890 C.2     1  UNL1        0.0000
     12  C          8.2660   -0.4390   -2.4040 C.2     1  UNL1        0.0000
@<TRIPOS>BOND
     1    12    11    2
     2    12    10    1
     3    11     9    1
     4    10     8    2
     5     9     7    2
     6     8     7    1
     7     7     6    1
     8     1     6    1
     9     1     2    1
    10     2     4    1
    11     2     3    2
    12     4     5    1
