@<TRIPOS>MOLECULE
/home/cewinharhar/GITHUB/reincatalyze/data/processed/docking_pred/2023-Apr-25-1630_maxeplen5_maxtrainstep200_exh32_gamma099_lrac3e-4_lrcr1e-3/3ef00b253c4480de2280c2f95d83164b82996574_ligand_2.pdbqt
 12 12 0 0 0
SMALL
GASTEIGER

@<TRIPOS>ATOM
      1  C          5.0230    1.7930    0.7510 C.3     1  UNL1        0.1270
      2  C          4.4790    1.0960    1.9410 C.2     1  UNL1        0.3030
      3  O          5.1130    0.1800    2.4850 O.2     1  UNL1       -0.2520
      4  O          3.2500    1.4720    2.4480 O.3     1  UNL1       -0.4810
      5  H          3.0650    1.5170    3.4470 H       1  UNL1        0.2960
      6  C          6.5310    1.7720    0.7680 C.3     1  UNL1        0.0470
      7  C          7.1050    0.9760   -0.3340 C.2     1  UNL1       -0.0470
      8  C          6.4220    0.0080   -1.0240 C.2     1  UNL1        0.0040
      9  C          8.4100    1.2240   -0.6860 C.2     1  UNL1        0.0040
     10  C          7.0390   -0.6910   -2.0430 C.2     1  UNL1        0.0000
     11  C          9.0380    0.5450   -1.6890 C.2     1  UNL1        0.0000
     12  C          8.3510   -0.4280   -2.3830 C.2     1  UNL1        0.0000
@<TRIPOS>BOND
     1    12    10    2
     2    12    11    1
     3    10     8    1
     4    11     9    2
     5     8     7    2
     6     9     7    1
     7     7     6    1
     8     1     6    1
     9     1     2    1
    10     2     4    1
    11     2     3    2
    12     4     5    1
