@<TRIPOS>MOLECULE
/home/cewinharhar/GITHUB/reincatalyze/data/processed/docking_pred/2023-Apr-25-1630_maxeplen5_maxtrainstep200_exh32_gamma099_lrac3e-4_lrcr1e-3/3ef00b253c4480de2280c2f95d83164b82996574_ligand_2.pdbqt
 12 12 0 0 0
SMALL
GASTEIGER

@<TRIPOS>ATOM
      1  C          8.3840   -0.7510   -1.9890 C.3     1  UNL1        0.1270
      2  C          8.3600   -1.9480   -2.8620 C.2     1  UNL1        0.3030
      3  O          7.2850   -2.4220   -3.2610 O.2     1  UNL1       -0.2520
      4  O          9.5500   -2.5430   -3.2370 O.3     1  UNL1       -0.4810
      5  H         10.1030   -3.1030   -2.5950 H       1  UNL1        0.2960
      6  C          7.0660   -0.0210   -2.0530 C.3     1  UNL1        0.0470
      7  C          6.4530    0.1720   -0.7250 C.2     1  UNL1       -0.0470
      8  C          5.7760    1.3020   -0.3440 C.2     1  UNL1        0.0040
      9  C          6.5740   -0.8490    0.1870 C.2     1  UNL1        0.0040
     10  C          5.2340    1.3990    0.9230 C.2     1  UNL1        0.0000
     11  C          6.0470   -0.7730    1.4430 C.2     1  UNL1        0.0000
     12  C          5.3650    0.3620    1.8260 C.2     1  UNL1        0.0000
@<TRIPOS>BOND
     1     3     2    2
     2     4     2    1
     3     4     5    1
     4     2     1    1
     5     6     1    1
     6     6     7    1
     7     7     8    2
     8     7     9    1
     9     8    10    1
    10     9    11    2
    11    10    12    2
    12    11    12    1
