@<TRIPOS>MOLECULE
/home/cewinharhar/GITHUB/reincatalyze/data/processed/docking_pred/2023-Apr-25-1630_maxeplen5_maxtrainstep200_exh32_gamma099_lrac3e-4_lrcr1e-3/3ef00b253c4480de2280c2f95d83164b82996574_ligand_2.pdbqt
 12 12 0 0 0
SMALL
GASTEIGER

@<TRIPOS>ATOM
      1  C          8.2320   -0.9490   -1.8730 C.3     1  UNL1        0.1270
      2  C          8.4160   -2.0400   -2.8590 C.2     1  UNL1        0.3030
      3  O          9.5460   -2.4940   -3.1000 O.2     1  UNL1       -0.2520
      4  O          7.3180   -2.5570   -3.5180 O.3     1  UNL1       -0.4810
      5  H          7.3710   -2.9090   -4.4690 H       1  UNL1        0.2960
      6  C          7.2920   -1.3790   -0.7760 C.3     1  UNL1        0.0470
      7  C          6.5020   -0.2600   -0.2270 C.2     1  UNL1       -0.0470
      8  C          6.1670    0.8680   -0.9320 C.2     1  UNL1        0.0040
      9  C          6.0770   -0.3590    1.0770 C.2     1  UNL1        0.0040
     10  C          5.4240    1.8690   -0.3370 C.2     1  UNL1        0.0000
     11  C          5.3430    0.6180    1.6820 C.2     1  UNL1        0.0000
     12  C          5.0060    1.7510    0.9730 C.2     1  UNL1        0.0000
@<TRIPOS>BOND
     1     5     4    1
     2     4     2    1
     3     3     2    2
     4     2     1    1
     5     1     6    1
     6     8    10    1
     7     8     7    2
     8     6     7    1
     9    10    12    2
    10     7     9    1
    11    12    11    1
    12     9    11    2
