@<TRIPOS>MOLECULE
/home/cewinharhar/GITHUB/reincatalyze/data/processed/docking_pred/2023-Apr-25-1630_maxeplen5_maxtrainstep200_exh32_gamma099_lrac3e-4_lrcr1e-3/3ef00b253c4480de2280c2f95d83164b82996574_ligand_2.pdbqt
 12 12 0 0 0
SMALL
GASTEIGER

@<TRIPOS>ATOM
      1  C          8.4240   -0.5560   -2.2750 C.3     1  UNL1        0.1270
      2  C          8.4920   -1.8920   -2.9130 C.2     1  UNL1        0.3030
      3  O          9.5750   -2.4850   -3.0320 O.2     1  UNL1       -0.2520
      4  O          7.3350   -2.4840   -3.3810 O.3     1  UNL1       -0.4810
      5  H          7.2680   -2.8850   -4.3120 H       1  UNL1        0.2960
      6  C          6.9980   -0.0700   -2.2130 C.3     1  UNL1        0.0470
      7  C          6.4900    0.0400   -0.8320 C.2     1  UNL1       -0.0470
      8  C          6.6040   -0.9470    0.1130 C.2     1  UNL1        0.0040
      9  C          5.8620    1.2100   -0.4750 C.2     1  UNL1        0.0040
     10  C          6.0970   -0.7590    1.3850 C.2     1  UNL1        0.0000
     11  C          5.3540    1.4150    0.7740 C.2     1  UNL1        0.0000
     12  C          5.4690    0.4230    1.7250 C.2     1  UNL1        0.0000
@<TRIPOS>BOND
     1     5     4    1
     2     4     2    1
     3     3     2    2
     4     2     1    1
     5     1     6    1
     6     6     7    1
     7     7     9    2
     8     7     8    1
     9     9    11    1
    10     8    10    2
    11    11    12    2
    12    10    12    1
