@<TRIPOS>MOLECULE
/home/cewinharhar/GITHUB/reincatalyze/data/processed/docking_pred/2023-Apr-25-1630_maxeplen5_maxtrainstep200_exh32_gamma099_lrac3e-4_lrcr1e-3/3ef00b253c4480de2280c2f95d83164b82996574_ligand_2.pdbqt
 12 12 0 0 0
SMALL
GASTEIGER

@<TRIPOS>ATOM
      1  C          8.2080   -0.9260   -1.8760 C.3     1  UNL1        0.1270
      2  C          8.3830   -2.0230   -2.8580 C.2     1  UNL1        0.3030
      3  O          9.5070   -2.4960   -3.0880 O.2     1  UNL1       -0.2520
      4  O          7.2810   -2.5230   -3.5250 O.3     1  UNL1       -0.4810
      5  H          7.1750   -2.4450   -4.5320 H       1  UNL1        0.2960
      6  C          7.4510   -1.4140   -0.6660 C.3     1  UNL1        0.0470
      7  C          6.6020   -0.3700   -0.0620 C.2     1  UNL1       -0.0470
      8  C          6.1080   -0.4200    1.2160 C.2     1  UNL1        0.0040
      9  C          6.2870    0.7210   -0.8360 C.2     1  UNL1        0.0040
     10  C          5.3180    0.6050    1.7010 C.2     1  UNL1        0.0000
     11  C          5.5080    1.7430   -0.3770 C.2     1  UNL1        0.0000
     12  C          5.0120    1.6930    0.9080 C.2     1  UNL1        0.0000
@<TRIPOS>BOND
     1     5     4    1
     2     4     2    1
     3     3     2    2
     4     2     1    1
     5     1     6    1
     6     9    11    1
     7     9     7    2
     8     6     7    1
     9    11    12    2
    10     7     8    1
    11    12    10    1
    12     8    10    2
