@<TRIPOS>MOLECULE
/home/cewinharhar/GITHUB/reincatalyze/data/processed/docking_pred/2023-Apr-25-1630_maxeplen5_maxtrainstep200_exh32_gamma099_lrac3e-4_lrcr1e-3/40246e00fe273733fff606c0d5025fbb5a6aafa7_ligand_2.pdbqt
 12 12 0 0 0
SMALL
GASTEIGER

@<TRIPOS>ATOM
      1  C          5.0450    1.6800    0.6810 C.3     1  UNL1        0.1270
      2  C          4.6030    1.0120    1.9280 C.2     1  UNL1        0.3030
      3  O          5.3240    0.1730    2.4890 O.2     1  UNL1       -0.2520
      4  O          3.3720    1.3270    2.4710 O.3     1  UNL1       -0.4810
      5  H          3.1630    1.1930    3.4560 H       1  UNL1        0.2960
      6  C          6.5430    1.8620    0.6790 C.3     1  UNL1        0.0470
      7  C          7.2130    1.0810   -0.3780 C.2     1  UNL1       -0.0470
      8  C          8.5490    1.1720   -0.6750 C.2     1  UNL1        0.0040
      9  C          6.4440    0.2100   -1.1120 C.2     1  UNL1        0.0040
     10  C          9.0940    0.4020   -1.6850 C.2     1  UNL1        0.0000
     11  C          6.9620   -0.5570   -2.1130 C.2     1  UNL1        0.0000
     12  C          8.3050   -0.4680   -2.4110 C.2     1  UNL1        0.0000
@<TRIPOS>BOND
     1    12    11    2
     2    12    10    1
     3    11     9    1
     4    10     8    2
     5     9     7    2
     6     8     7    1
     7     7     6    1
     8     6     1    1
     9     1     2    1
    10     2     4    1
    11     2     3    2
    12     4     5    1
