@<TRIPOS>MOLECULE
/home/cewinharhar/GITHUB/reincatalyze/data/processed/docking_pred/2023-Apr-25-1630_maxeplen5_maxtrainstep200_exh32_gamma099_lrac3e-4_lrcr1e-3/40246e00fe273733fff606c0d5025fbb5a6aafa7_ligand_2.pdbqt
 12 12 0 0 0
SMALL
GASTEIGER

@<TRIPOS>ATOM
      1  C          5.0010    1.7820    0.7280 C.3     1  UNL1        0.1270
      2  C          4.4790    1.0890    1.9300 C.2     1  UNL1        0.3030
      3  O          5.1270    0.1800    2.4710 O.2     1  UNL1       -0.2520
      4  O          3.2560    1.4610    2.4540 O.3     1  UNL1       -0.4810
      5  H          2.4130    0.9110    2.3100 H       1  UNL1        0.2960
      6  C          6.5090    1.8000    0.7410 C.3     1  UNL1        0.0470
      7  C          7.1010    0.9970   -0.3460 C.2     1  UNL1       -0.0470
      8  C          6.4190    0.0460   -1.0620 C.2     1  UNL1        0.0040
      9  C          8.4210    1.2180   -0.6570 C.2     1  UNL1        0.0040
     10  C          7.0530   -0.6620   -2.0640 C.2     1  UNL1        0.0000
     11  C          9.0660    0.5300   -1.6420 C.2     1  UNL1        0.0000
     12  C          8.3810   -0.4250   -2.3620 C.2     1  UNL1        0.0000
@<TRIPOS>BOND
     1    12    10    2
     2    12    11    1
     3    10     8    1
     4    11     9    2
     5     8     7    2
     6     9     7    1
     7     7     6    1
     8     1     6    1
     9     1     2    1
    10     2     4    1
    11     2     3    2
    12     5     4    1
