@<TRIPOS>MOLECULE
/home/cewinharhar/GITHUB/reincatalyze/data/processed/docking_pred/2023-Apr-25-1630_maxeplen5_maxtrainstep200_exh32_gamma099_lrac3e-4_lrcr1e-3/40246e00fe273733fff606c0d5025fbb5a6aafa7_ligand_2.pdbqt
 12 12 0 0 0
SMALL
GASTEIGER

@<TRIPOS>ATOM
      1  C          8.4460   -0.5920   -2.2280 C.3     1  UNL1        0.1270
      2  C          8.5080   -1.9000   -2.9220 C.2     1  UNL1        0.3030
      3  O          9.5920   -2.4800   -3.0890 O.2     1  UNL1       -0.2520
      4  O          7.3450   -2.4790   -3.3910 O.3     1  UNL1       -0.4810
      5  H          7.3490   -3.2230   -4.0830 H       1  UNL1        0.2960
      6  C          7.0270   -0.0820   -2.1830 C.3     1  UNL1        0.0470
      7  C          6.5010    0.0290   -0.8090 C.2     1  UNL1       -0.0470
      8  C          6.6160   -0.9510    0.1430 C.2     1  UNL1        0.0040
      9  C          5.8540    1.1920   -0.4670 C.2     1  UNL1        0.0040
     10  C          6.0920   -0.7620    1.4070 C.2     1  UNL1        0.0000
     11  C          5.3290    1.3980    0.7750 C.2     1  UNL1        0.0000
     12  C          5.4450    0.4130    1.7330 C.2     1  UNL1        0.0000
@<TRIPOS>BOND
     1     5     4    1
     2     4     2    1
     3     3     2    2
     4     2     1    1
     5     1     6    1
     6     6     7    1
     7     7     9    2
     8     7     8    1
     9     9    11    1
    10     8    10    2
    11    11    12    2
    12    10    12    1
