@<TRIPOS>MOLECULE
/home/cewinharhar/GITHUB/reincatalyze/data/processed/docking_pred/2023-Apr-25-1630_maxeplen5_maxtrainstep200_exh32_gamma099_lrac3e-4_lrcr1e-3/40246e00fe273733fff606c0d5025fbb5a6aafa7_ligand_2.pdbqt
 12 12 0 0 0
SMALL
GASTEIGER

@<TRIPOS>ATOM
      1  C          8.4230   -0.6050   -2.1660 C.3     1  UNL1        0.1270
      2  C          8.4910   -1.8830   -2.9130 C.2     1  UNL1        0.3030
      3  O          9.5750   -2.4600   -3.0880 O.2     1  UNL1       -0.2520
      4  O          7.3330   -2.4380   -3.4220 O.3     1  UNL1       -0.4810
      5  H          7.3450   -3.1780   -4.1190 H       1  UNL1        0.2960
      6  C          7.0110   -0.0730   -2.1530 C.3     1  UNL1        0.0470
      7  C          6.4740    0.0920   -0.7890 C.2     1  UNL1       -0.0470
      8  C          5.8490    1.2260   -0.3370 C.2     1  UNL1        0.0040
      9  C          6.6130   -0.9630    0.0820 C.2     1  UNL1        0.0040
     10  C          5.3770    1.2940    0.9590 C.2     1  UNL1        0.0000
     11  C          6.1540   -0.9150    1.3650 C.2     1  UNL1        0.0000
     12  C          5.5250    0.2240    1.8200 C.2     1  UNL1        0.0000
@<TRIPOS>BOND
     1     5     4    1
     2     4     2    1
     3     3     2    2
     4     2     1    1
     5     1     6    1
     6     6     7    1
     7     7     8    2
     8     7     9    1
     9     8    10    1
    10     9    11    2
    11    10    12    2
    12    11    12    1
