@<TRIPOS>MOLECULE
/home/cewinharhar/GITHUB/reincatalyze/data/processed/docking_pred/2023-Apr-25-1630_maxeplen5_maxtrainstep200_exh32_gamma099_lrac3e-4_lrcr1e-3/40246e00fe273733fff606c0d5025fbb5a6aafa7_ligand_2.pdbqt
 12 12 0 0 0
SMALL
GASTEIGER

@<TRIPOS>ATOM
      1  C          5.5420    2.8560   -0.0290 C.3     1  UNL1        0.1270
      2  C          6.2550    3.8830    0.7670 C.2     1  UNL1        0.3030
      3  O          6.9130    4.7750    0.2090 O.2     1  UNL1       -0.2520
      4  O          6.1870    3.8470    2.1460 O.3     1  UNL1       -0.4810
      5  H          6.1090    2.9760    2.6630 H       1  UNL1        0.2960
      6  C          4.9570    1.7980    0.8740 C.3     1  UNL1        0.0470
      7  C          5.7490    0.5530    0.8840 C.2     1  UNL1       -0.0470
      8  C          6.4660    0.0850   -0.1880 C.2     1  UNL1        0.0040
      9  C          5.7660   -0.1820    2.0450 C.2     1  UNL1        0.0040
     10  C          7.1800   -1.0930   -0.0900 C.2     1  UNL1        0.0000
     11  C          6.4640   -1.3480    2.1620 C.2     1  UNL1        0.0000
     12  C          7.1850   -1.8180    1.0850 C.2     1  UNL1        0.0000
@<TRIPOS>BOND
     1     8    10    1
     2     8     7    2
     3    10    12    2
     4     1     2    1
     5     1     6    1
     6     3     2    2
     7     2     4    1
     8     6     7    1
     9     7     9    1
    10    12    11    1
    11     9    11    2
    12     4     5    1
