MODEL 1
REMARK VINA RESULT:      -7.3      0.000      0.000
REMARK SMILES O=C(O)CCc1ccccc1
REMARK SMILES IDX 4 1 2 2 1 3 3 4 5 6 6 7 7 8 11 9 8 10 10 11 9 12
REMARK H PARENT 3 5
REMARK Flexibility Score: inf
ROOT
ATOM      1  C   UNL     1       8.511  -0.713  -2.085  1.00  0.00     0.127 C 
ENDROOT
BRANCH   1   2
ATOM      2  C   UNL     1       8.533  -1.948  -2.903  1.00  0.00     0.303 C 
ATOM      3  O   UNL     1       9.601  -2.530  -3.148  1.00  0.00    -0.252 OA
BRANCH   2   4
ATOM      4  O   UNL     1       7.349  -2.459  -3.400  1.00  0.00    -0.481 OA
ATOM      5  H   UNL     1       6.781  -1.955  -4.075  1.00  0.00     0.296 HD
ENDBRANCH   2   4
ENDBRANCH   1   2
BRANCH   1   6
ATOM      6  C   UNL     1       7.120  -0.133  -2.038  1.00  0.00     0.047 C 
BRANCH   6   7
ATOM      7  C   UNL     1       6.571  -0.072  -0.670  1.00  0.00    -0.047 A 
ATOM      8  C   UNL     1       5.885   1.001  -0.160  1.00  0.00     0.004 A 
ATOM      9  C   UNL     1       6.764  -1.163   0.143  1.00  0.00     0.004 A 
ATOM     10  C   UNL     1       5.406   0.973   1.135  1.00  0.00     0.000 A 
ATOM     11  C   UNL     1       6.300  -1.211   1.425  1.00  0.00     0.000 A 
ATOM     12  C   UNL     1       5.610  -0.133   1.937  1.00  0.00     0.000 A 
ENDBRANCH   6   7
ENDBRANCH   1   6
TORSDOF 4
ENDMDL
MODEL 2
REMARK VINA RESULT:      -7.3      0.143      1.433
REMARK SMILES O=C(O)CCc1ccccc1
REMARK SMILES IDX 4 1 2 2 1 3 3 4 5 6 6 7 7 8 11 9 8 10 10 11 9 12
REMARK H PARENT 3 5
REMARK Flexibility Score: inf
ROOT
ATOM      1  C   UNL     1       8.417  -0.553  -2.283  1.00  0.00     0.127 C 
ENDROOT
BRANCH   1   2
ATOM      2  C   UNL     1       8.459  -1.868  -2.964  1.00  0.00     0.303 C 
ATOM      3  O   UNL     1       9.534  -2.468  -3.121  1.00  0.00    -0.252 OA
BRANCH   2   4
ATOM      4  O   UNL     1       7.287  -2.433  -3.431  1.00  0.00    -0.481 OA
ATOM      5  H   UNL     1       7.183  -2.752  -4.390  1.00  0.00     0.296 HD
ENDBRANCH   2   4
ENDBRANCH   1   2
BRANCH   1   6
ATOM      6  C   UNL     1       6.990  -0.117  -2.060  1.00  0.00     0.047 C 
BRANCH   6   7
ATOM      7  C   UNL     1       6.587  -0.180  -0.642  1.00  0.00    -0.047 A 
ATOM      8  C   UNL     1       6.868  -1.229   0.195  1.00  0.00     0.004 A 
ATOM      9  C   UNL     1       5.882   0.885  -0.131  1.00  0.00     0.004 A 
ATOM     10  C   UNL     1       6.450  -1.205   1.511  1.00  0.00     0.000 A 
ATOM     11  C   UNL     1       5.461   0.928   1.165  1.00  0.00     0.000 A 
ATOM     12  C   UNL     1       5.744  -0.127   2.006  1.00  0.00     0.000 A 
ENDBRANCH   6   7
ENDBRANCH   1   6
TORSDOF 4
ENDMDL
MODEL 3
REMARK VINA RESULT:      -6.6      3.235      4.918
REMARK SMILES O=C(O)CCc1ccccc1
REMARK SMILES IDX 4 1 2 2 1 3 3 4 5 6 6 7 7 8 11 9 8 10 10 11 9 12
REMARK H PARENT 3 5
REMARK Flexibility Score: inf
ROOT
ATOM      1  C   UNL     1       5.926  -0.730   1.698  1.00  0.00     0.127 C 
ENDROOT
BRANCH   1   2
ATOM      2  C   UNL     1       5.260   0.564   1.976  1.00  0.00     0.303 C 
ATOM      3  O   UNL     1       4.118   0.600   2.460  1.00  0.00    -0.252 OA
BRANCH   2   4
ATOM      4  O   UNL     1       5.918   1.745   1.691  1.00  0.00    -0.481 OA
ATOM      5  H   UNL     1       5.670   2.626   2.134  1.00  0.00     0.296 HD
ENDBRANCH   2   4
ENDBRANCH   1   2
BRANCH   1   6
ATOM      6  C   UNL     1       7.397  -0.523   1.432  1.00  0.00     0.047 C 
BRANCH   6   7
ATOM      7  C   UNL     1       7.706  -0.389  -0.004  1.00  0.00    -0.047 A 
ATOM      8  C   UNL     1       8.661   0.452  -0.513  1.00  0.00     0.004 A 
ATOM      9  C   UNL     1       6.985  -1.160  -0.885  1.00  0.00     0.004 A 
ATOM     10  C   UNL     1       8.884   0.515  -1.875  1.00  0.00     0.000 A 
ATOM     11  C   UNL     1       7.189  -1.113  -2.233  1.00  0.00     0.000 A 
ATOM     12  C   UNL     1       8.150  -0.267  -2.745  1.00  0.00     0.000 A 
ENDBRANCH   6   7
ENDBRANCH   1   6
TORSDOF 4
ENDMDL
MODEL 4
REMARK VINA RESULT:      -6.6      3.092      4.871
REMARK SMILES O=C(O)CCc1ccccc1
REMARK SMILES IDX 4 1 2 2 1 3 3 4 5 6 6 7 7 8 11 9 8 10 10 11 9 12
REMARK H PARENT 3 5
REMARK Flexibility Score: inf
ROOT
ATOM      1  C   UNL     1       6.098   1.393   1.210  1.00  0.00     0.127 C 
ENDROOT
BRANCH   1   2
ATOM      2  C   UNL     1       5.257   0.491   2.032  1.00  0.00     0.303 C 
ATOM      3  O   UNL     1       5.669  -0.631   2.367  1.00  0.00    -0.252 OA
BRANCH   2   4
ATOM      4  O   UNL     1       3.999   0.903   2.428  1.00  0.00    -0.481 OA
ATOM      5  H   UNL     1       3.645   1.834   2.229  1.00  0.00     0.296 HD
ENDBRANCH   2   4
ENDBRANCH   1   2
BRANCH   1   6
ATOM      6  C   UNL     1       5.770   1.237  -0.254  1.00  0.00     0.047 C 
BRANCH   6   7
ATOM      7  C   UNL     1       6.825   0.529  -1.004  1.00  0.00    -0.047 A 
ATOM      8  C   UNL     1       6.609  -0.582  -1.779  1.00  0.00     0.004 A 
ATOM      9  C   UNL     1       8.107   1.019  -0.916  1.00  0.00     0.004 A 
ATOM     10  C   UNL     1       7.658  -1.182  -2.447  1.00  0.00     0.000 A 
ATOM     11  C   UNL     1       9.156   0.440  -1.568  1.00  0.00     0.000 A 
ATOM     12  C   UNL     1       8.939  -0.676  -2.347  1.00  0.00     0.000 A 
ENDBRANCH   6   7
ENDBRANCH   1   6
TORSDOF 4
ENDMDL
MODEL 5
REMARK VINA RESULT:      -6.5      1.427      2.334
REMARK SMILES O=C(O)CCc1ccccc1
REMARK SMILES IDX 4 1 2 2 1 3 3 4 5 6 6 7 7 8 11 9 8 10 10 11 9 12
REMARK H PARENT 3 5
REMARK Flexibility Score: inf
ROOT
ATOM      1  C   UNL     1       8.149   0.935  -1.868  1.00  0.00     0.127 C 
ENDROOT
BRANCH   1   2
ATOM      2  C   UNL     1       9.388   0.125  -1.797  1.00  0.00     0.303 C 
ATOM      3  O   UNL     1       9.431  -1.015  -2.284  1.00  0.00    -0.252 OA
BRANCH   2   4
ATOM      4  O   UNL     1      10.509   0.646  -1.179  1.00  0.00    -0.481 OA
ATOM      5  H   UNL     1      11.425   0.215  -1.262  1.00  0.00     0.296 HD
ENDBRANCH   2   4
ENDBRANCH   1   2
BRANCH   1   6
ATOM      6  C   UNL     1       6.931   0.051  -1.765  1.00  0.00     0.047 C 
BRANCH   6   7
ATOM      7  C   UNL     1       6.446  -0.096  -0.379  1.00  0.00    -0.047 A 
ATOM      8  C   UNL     1       6.641  -1.212   0.393  1.00  0.00     0.004 A 
ATOM      9  C   UNL     1       5.753   0.958   0.168  1.00  0.00     0.004 A 
ATOM     10  C   UNL     1       6.150  -1.264   1.683  1.00  0.00     0.000 A 
ATOM     11  C   UNL     1       5.260   0.927   1.439  1.00  0.00     0.000 A 
ATOM     12  C   UNL     1       5.456  -0.195   2.216  1.00  0.00     0.000 A 
ENDBRANCH   6   7
ENDBRANCH   1   6
TORSDOF 4
ENDMDL
