@<TRIPOS>MOLECULE
/home/cewinharhar/GITHUB/reincatalyze/data/processed/docking_pred/2023-Apr-25-1630_maxeplen5_maxtrainstep200_exh32_gamma099_lrac3e-4_lrcr1e-3/404021d27c656f8fbd9408a440432f577c9906d0_ligand_2.pdbqt
 12 12 0 0 0
SMALL
GASTEIGER

@<TRIPOS>ATOM
      1  C          8.4170   -0.5530   -2.2830 C.3     1  UNL1        0.1270
      2  C          8.4590   -1.8680   -2.9640 C.2     1  UNL1        0.3030
      3  O          9.5340   -2.4680   -3.1210 O.2     1  UNL1       -0.2520
      4  O          7.2870   -2.4330   -3.4310 O.3     1  UNL1       -0.4810
      5  H          7.1830   -2.7520   -4.3900 H       1  UNL1        0.2960
      6  C          6.9900   -0.1170   -2.0600 C.3     1  UNL1        0.0470
      7  C          6.5870   -0.1800   -0.6420 C.2     1  UNL1       -0.0470
      8  C          6.8680   -1.2290    0.1950 C.2     1  UNL1        0.0040
      9  C          5.8820    0.8850   -0.1310 C.2     1  UNL1        0.0040
     10  C          6.4500   -1.2050    1.5110 C.2     1  UNL1        0.0000
     11  C          5.4610    0.9280    1.1650 C.2     1  UNL1        0.0000
     12  C          5.7440   -0.1270    2.0060 C.2     1  UNL1        0.0000
@<TRIPOS>BOND
     1     5     4    1
     2     4     2    1
     3     3     2    2
     4     2     1    1
     5     1     6    1
     6     6     7    1
     7     7     9    2
     8     7     8    1
     9     9    11    1
    10     8    10    2
    11    11    12    2
    12    10    12    1
