@<TRIPOS>MOLECULE
/home/cewinharhar/GITHUB/reincatalyze/data/processed/docking_pred/2023-Apr-25-1630_maxeplen5_maxtrainstep200_exh32_gamma099_lrac3e-4_lrcr1e-3/404021d27c656f8fbd9408a440432f577c9906d0_ligand_2.pdbqt
 12 12 0 0 0
SMALL
GASTEIGER

@<TRIPOS>ATOM
      1  C          5.9260   -0.7300    1.6980 C.3     1  UNL1        0.1270
      2  C          5.2600    0.5640    1.9760 C.2     1  UNL1        0.3030
      3  O          4.1180    0.6000    2.4600 O.2     1  UNL1       -0.2520
      4  O          5.9180    1.7450    1.6910 O.3     1  UNL1       -0.4810
      5  H          5.6700    2.6260    2.1340 H       1  UNL1        0.2960
      6  C          7.3970   -0.5230    1.4320 C.3     1  UNL1        0.0470
      7  C          7.7060   -0.3890   -0.0040 C.2     1  UNL1       -0.0470
      8  C          8.6610    0.4520   -0.5130 C.2     1  UNL1        0.0040
      9  C          6.9850   -1.1600   -0.8850 C.2     1  UNL1        0.0040
     10  C          8.8840    0.5150   -1.8750 C.2     1  UNL1        0.0000
     11  C          7.1890   -1.1130   -2.2330 C.2     1  UNL1        0.0000
     12  C          8.1500   -0.2670   -2.7450 C.2     1  UNL1        0.0000
@<TRIPOS>BOND
     1    12    11    2
     2    12    10    1
     3    11     9    1
     4    10     8    2
     5     9     7    2
     6     8     7    1
     7     7     6    1
     8     6     1    1
     9     4     2    1
    10     4     5    1
    11     1     2    1
    12     2     3    2
