@<TRIPOS>MOLECULE
/home/cewinharhar/GITHUB/reincatalyze/data/processed/docking_pred/2023-Apr-25-1630_maxeplen5_maxtrainstep200_exh32_gamma099_lrac3e-4_lrcr1e-3/404021d27c656f8fbd9408a440432f577c9906d0_ligand_2.pdbqt
 12 12 0 0 0
SMALL
GASTEIGER

@<TRIPOS>ATOM
      1  C          6.0980    1.3930    1.2100 C.3     1  UNL1        0.1270
      2  C          5.2570    0.4910    2.0320 C.2     1  UNL1        0.3030
      3  O          5.6690   -0.6310    2.3670 O.2     1  UNL1       -0.2520
      4  O          3.9990    0.9030    2.4280 O.3     1  UNL1       -0.4810
      5  H          3.6450    1.8340    2.2290 H       1  UNL1        0.2960
      6  C          5.7700    1.2370   -0.2540 C.3     1  UNL1        0.0470
      7  C          6.8250    0.5290   -1.0040 C.2     1  UNL1       -0.0470
      8  C          6.6090   -0.5820   -1.7790 C.2     1  UNL1        0.0040
      9  C          8.1070    1.0190   -0.9160 C.2     1  UNL1        0.0040
     10  C          7.6580   -1.1820   -2.4470 C.2     1  UNL1        0.0000
     11  C          9.1560    0.4400   -1.5680 C.2     1  UNL1        0.0000
     12  C          8.9390   -0.6760   -2.3470 C.2     1  UNL1        0.0000
@<TRIPOS>BOND
     1    10    12    2
     2    10     8    1
     3    12    11    1
     4     8     7    2
     5    11     9    2
     6     7     9    1
     7     7     6    1
     8     6     1    1
     9     1     2    1
    10     2     3    2
    11     2     4    1
    12     5     4    1
