@<TRIPOS>MOLECULE
/home/cewinharhar/GITHUB/reincatalyze/data/processed/docking_pred/2023-Apr-25-1630_maxeplen5_maxtrainstep200_exh32_gamma099_lrac3e-4_lrcr1e-3/404021d27c656f8fbd9408a440432f577c9906d0_ligand_2.pdbqt
 12 12 0 0 0
SMALL
GASTEIGER

@<TRIPOS>ATOM
      1  C          8.5110   -0.7130   -2.0850 C.3     1  UNL1        0.1270
      2  C          8.5330   -1.9480   -2.9030 C.2     1  UNL1        0.3030
      3  O          9.6010   -2.5300   -3.1480 O.2     1  UNL1       -0.2520
      4  O          7.3490   -2.4590   -3.4000 O.3     1  UNL1       -0.4810
      5  H          6.7810   -1.9550   -4.0750 H       1  UNL1        0.2960
      6  C          7.1200   -0.1330   -2.0380 C.3     1  UNL1        0.0470
      7  C          6.5710   -0.0720   -0.6700 C.2     1  UNL1       -0.0470
      8  C          5.8850    1.0010   -0.1600 C.2     1  UNL1        0.0040
      9  C          6.7640   -1.1630    0.1430 C.2     1  UNL1        0.0040
     10  C          5.4060    0.9730    1.1350 C.2     1  UNL1        0.0000
     11  C          6.3000   -1.2110    1.4250 C.2     1  UNL1        0.0000
     12  C          5.6100   -0.1330    1.9370 C.2     1  UNL1        0.0000
@<TRIPOS>BOND
     1     5     4    1
     2     4     2    1
     3     3     2    2
     4     2     1    1
     5     1     6    1
     6     6     7    1
     7     7     8    2
     8     7     9    1
     9     8    10    1
    10     9    11    2
    11    10    12    2
    12    11    12    1
