@<TRIPOS>MOLECULE
/home/cewinharhar/GITHUB/reincatalyze/data/processed/docking_pred/2023-Apr-25-1630_maxeplen5_maxtrainstep200_exh32_gamma099_lrac3e-4_lrcr1e-3/404021d27c656f8fbd9408a440432f577c9906d0_ligand_2.pdbqt
 12 12 0 0 0
SMALL
GASTEIGER

@<TRIPOS>ATOM
      1  C          8.1490    0.9350   -1.8680 C.3     1  UNL1        0.1270
      2  C          9.3880    0.1250   -1.7970 C.2     1  UNL1        0.3030
      3  O          9.4310   -1.0150   -2.2840 O.2     1  UNL1       -0.2520
      4  O         10.5090    0.6460   -1.1790 O.3     1  UNL1       -0.4810
      5  H         11.4250    0.2150   -1.2620 H       1  UNL1        0.2960
      6  C          6.9310    0.0510   -1.7650 C.3     1  UNL1        0.0470
      7  C          6.4460   -0.0960   -0.3790 C.2     1  UNL1       -0.0470
      8  C          6.6410   -1.2120    0.3930 C.2     1  UNL1        0.0040
      9  C          5.7530    0.9580    0.1680 C.2     1  UNL1        0.0040
     10  C          6.1500   -1.2640    1.6830 C.2     1  UNL1        0.0000
     11  C          5.2600    0.9270    1.4390 C.2     1  UNL1        0.0000
     12  C          5.4560   -0.1950    2.2160 C.2     1  UNL1        0.0000
@<TRIPOS>BOND
     1     3     2    2
     2     1     2    1
     3     1     6    1
     4     2     4    1
     5     6     7    1
     6     5     4    1
     7     7     9    2
     8     7     8    1
     9     9    11    1
    10     8    10    2
    11    11    12    2
    12    10    12    1
