@<TRIPOS>MOLECULE
/home/cewinharhar/GITHUB/reincatalyze/data/processed/docking_pred/2023-Apr-25-1630_maxeplen5_maxtrainstep200_exh32_gamma099_lrac3e-4_lrcr1e-3/41d0b72e0d67d5e9a3b384f9954b5fa92cfe5642_ligand_2.pdbqt
 12 12 0 0 0
SMALL
GASTEIGER

@<TRIPOS>ATOM
      1  C          8.4300   -0.5720   -2.2550 C.3     1  UNL1        0.1270
      2  C          8.4850   -1.8890   -2.9330 C.2     1  UNL1        0.3030
      3  O          9.5640   -2.4860   -3.0730 O.2     1  UNL1       -0.2520
      4  O          7.3220   -2.4570   -3.4150 O.3     1  UNL1       -0.4810
      5  H          6.9770   -2.2750   -4.3530 H       1  UNL1        0.2960
      6  C          7.0110   -0.0630   -2.2000 C.3     1  UNL1        0.0470
      7  C          6.4930    0.0400   -0.8220 C.2     1  UNL1       -0.0470
      8  C          6.6100   -0.9470    0.1230 C.2     1  UNL1        0.0040
      9  C          5.8490    1.2020   -0.4690 C.2     1  UNL1        0.0040
     10  C          6.0930   -0.7660    1.3910 C.2     1  UNL1        0.0000
     11  C          5.3310    1.4000    0.7770 C.2     1  UNL1        0.0000
     12  C          5.4500    0.4090    1.7280 C.2     1  UNL1        0.0000
@<TRIPOS>BOND
     1     5     4    1
     2     4     2    1
     3     3     2    2
     4     2     1    1
     5     1     6    1
     6     6     7    1
     7     7     9    2
     8     7     8    1
     9     9    11    1
    10     8    10    2
    11    11    12    2
    12    10    12    1
