@<TRIPOS>MOLECULE
/home/cewinharhar/GITHUB/reincatalyze/data/processed/docking_pred/2023-Apr-25-1630_maxeplen5_maxtrainstep200_exh32_gamma099_lrac3e-4_lrcr1e-3/41d0b72e0d67d5e9a3b384f9954b5fa92cfe5642_ligand_2.pdbqt
 12 12 0 0 0
SMALL
GASTEIGER

@<TRIPOS>ATOM
      1  C          8.3090   -0.9890   -1.7860 C.3     1  UNL1        0.1270
      2  C          8.4500   -2.0290   -2.8330 C.2     1  UNL1        0.3030
      3  O          9.5670   -2.4760   -3.1380 O.2     1  UNL1       -0.2520
      4  O          7.3250   -2.5060   -3.4770 O.3     1  UNL1       -0.4810
      5  H          6.7600   -1.9220   -4.0880 H       1  UNL1        0.2960
      6  C          7.3160   -1.4240   -0.7380 C.3     1  UNL1        0.0470
      7  C          6.5240   -0.3010   -0.2000 C.2     1  UNL1       -0.0470
      8  C          6.1770    0.8140   -0.9190 C.2     1  UNL1        0.0040
      9  C          6.1110   -0.3830    1.1090 C.2     1  UNL1        0.0040
     10  C          5.4320    1.8190   -0.3330 C.2     1  UNL1        0.0000
     11  C          5.3760    0.5990    1.7060 C.2     1  UNL1        0.0000
     12  C          5.0260    1.7200    0.9820 C.2     1  UNL1        0.0000
@<TRIPOS>BOND
     1     5     4    1
     2     4     2    1
     3     3     2    2
     4     2     1    1
     5     1     6    1
     6     8    10    1
     7     8     7    2
     8     6     7    1
     9    10    12    2
    10     7     9    1
    11    12    11    1
    12     9    11    2
