MODEL 1
REMARK VINA RESULT:      -7.3      0.000      0.000
REMARK SMILES O=C(O)CCc1ccccc1
REMARK SMILES IDX 4 1 2 2 1 3 3 4 5 6 6 7 7 8 11 9 8 10 10 11 9 12
REMARK H PARENT 3 5
REMARK Flexibility Score: inf
ROOT
ATOM      1  C   UNL     1       8.421  -0.647  -2.131  1.00  0.00     0.127 C 
ENDROOT
BRANCH   1   2
ATOM      2  C   UNL     1       8.471  -1.915  -2.896  1.00  0.00     0.303 C 
ATOM      3  O   UNL     1       9.547  -2.504  -3.082  1.00  0.00    -0.252 OA
BRANCH   2   4
ATOM      4  O   UNL     1       7.304  -2.448  -3.409  1.00  0.00    -0.481 OA
ATOM      5  H   UNL     1       6.570  -1.868  -3.806  1.00  0.00     0.296 HD
ENDBRANCH   2   4
ENDBRANCH   1   2
BRANCH   1   6
ATOM      6  C   UNL     1       7.030  -0.065  -2.159  1.00  0.00     0.047 C 
BRANCH   6   7
ATOM      7  C   UNL     1       6.469   0.140  -0.809  1.00  0.00    -0.047 A 
ATOM      8  C   UNL     1       5.831   1.285  -0.404  1.00  0.00     0.004 A 
ATOM      9  C   UNL     1       6.597  -0.886   0.097  1.00  0.00     0.004 A 
ATOM     10  C   UNL     1       5.336   1.391   0.881  1.00  0.00     0.000 A 
ATOM     11  C   UNL     1       6.116  -0.800   1.370  1.00  0.00     0.000 A 
ATOM     12  C   UNL     1       5.475   0.350   1.777  1.00  0.00     0.000 A 
ENDBRANCH   6   7
ENDBRANCH   1   6
TORSDOF 4
ENDMDL
MODEL 2
REMARK VINA RESULT:      -7.3      0.081      1.428
REMARK SMILES O=C(O)CCc1ccccc1
REMARK SMILES IDX 4 1 2 2 1 3 3 4 5 6 6 7 7 8 11 9 8 10 10 11 9 12
REMARK H PARENT 3 5
REMARK Flexibility Score: inf
ROOT
ATOM      1  C   UNL     1       8.430  -0.572  -2.255  1.00  0.00     0.127 C 
ENDROOT
BRANCH   1   2
ATOM      2  C   UNL     1       8.485  -1.889  -2.933  1.00  0.00     0.303 C 
ATOM      3  O   UNL     1       9.564  -2.486  -3.073  1.00  0.00    -0.252 OA
BRANCH   2   4
ATOM      4  O   UNL     1       7.322  -2.457  -3.415  1.00  0.00    -0.481 OA
ATOM      5  H   UNL     1       6.977  -2.275  -4.353  1.00  0.00     0.296 HD
ENDBRANCH   2   4
ENDBRANCH   1   2
BRANCH   1   6
ATOM      6  C   UNL     1       7.011  -0.063  -2.200  1.00  0.00     0.047 C 
BRANCH   6   7
ATOM      7  C   UNL     1       6.493   0.040  -0.822  1.00  0.00    -0.047 A 
ATOM      8  C   UNL     1       6.610  -0.947   0.123  1.00  0.00     0.004 A 
ATOM      9  C   UNL     1       5.849   1.202  -0.469  1.00  0.00     0.004 A 
ATOM     10  C   UNL     1       6.093  -0.766   1.391  1.00  0.00     0.000 A 
ATOM     11  C   UNL     1       5.331   1.400   0.777  1.00  0.00     0.000 A 
ATOM     12  C   UNL     1       5.450   0.409   1.728  1.00  0.00     0.000 A 
ENDBRANCH   6   7
ENDBRANCH   1   6
TORSDOF 4
ENDMDL
MODEL 3
REMARK VINA RESULT:      -7.2      0.666      1.124
REMARK SMILES O=C(O)CCc1ccccc1
REMARK SMILES IDX 4 1 2 2 1 3 3 4 5 6 6 7 7 8 11 9 8 10 10 11 9 12
REMARK H PARENT 3 5
REMARK Flexibility Score: inf
ROOT
ATOM      1  C   UNL     1       8.309  -0.989  -1.786  1.00  0.00     0.127 C 
ENDROOT
BRANCH   1   2
ATOM      2  C   UNL     1       8.450  -2.029  -2.833  1.00  0.00     0.303 C 
ATOM      3  O   UNL     1       9.567  -2.476  -3.138  1.00  0.00    -0.252 OA
BRANCH   2   4
ATOM      4  O   UNL     1       7.325  -2.506  -3.477  1.00  0.00    -0.481 OA
ATOM      5  H   UNL     1       6.760  -1.922  -4.088  1.00  0.00     0.296 HD
ENDBRANCH   2   4
ENDBRANCH   1   2
BRANCH   1   6
ATOM      6  C   UNL     1       7.316  -1.424  -0.738  1.00  0.00     0.047 C 
BRANCH   6   7
ATOM      7  C   UNL     1       6.524  -0.301  -0.200  1.00  0.00    -0.047 A 
ATOM      8  C   UNL     1       6.177   0.814  -0.919  1.00  0.00     0.004 A 
ATOM      9  C   UNL     1       6.111  -0.383   1.109  1.00  0.00     0.004 A 
ATOM     10  C   UNL     1       5.432   1.819  -0.333  1.00  0.00     0.000 A 
ATOM     11  C   UNL     1       5.376   0.599   1.706  1.00  0.00     0.000 A 
ATOM     12  C   UNL     1       5.026   1.720   0.982  1.00  0.00     0.000 A 
ENDBRANCH   6   7
ENDBRANCH   1   6
TORSDOF 4
ENDMDL
MODEL 4
REMARK VINA RESULT:      -7.1      0.858      1.756
REMARK SMILES O=C(O)CCc1ccccc1
REMARK SMILES IDX 4 1 2 2 1 3 3 4 5 6 6 7 7 8 11 9 8 10 10 11 9 12
REMARK H PARENT 3 5
REMARK Flexibility Score: inf
ROOT
ATOM      1  C   UNL     1       7.284  -1.284  -2.269  1.00  0.00     0.127 C 
ENDROOT
BRANCH   1   2
ATOM      2  C   UNL     1       8.737  -1.421  -2.525  1.00  0.00     0.303 C 
ATOM      3  O   UNL     1       9.543  -0.596  -2.067  1.00  0.00    -0.252 OA
BRANCH   2   4
ATOM      4  O   UNL     1       9.200  -2.480  -3.282  1.00  0.00    -0.481 OA
ATOM      5  H   UNL     1       8.577  -3.183  -3.670  1.00  0.00     0.296 HD
ENDBRANCH   2   4
ENDBRANCH   1   2
BRANCH   1   6
ATOM      6  C   UNL     1       6.935   0.148  -1.948  1.00  0.00     0.047 C 
BRANCH   6   7
ATOM      7  C   UNL     1       6.328   0.304  -0.612  1.00  0.00    -0.047 A 
ATOM      8  C   UNL     1       6.422  -0.626   0.392  1.00  0.00     0.004 A 
ATOM      9  C   UNL     1       5.623   1.457  -0.363  1.00  0.00     0.004 A 
ATOM     10  C   UNL     1       5.820  -0.398   1.614  1.00  0.00     0.000 A 
ATOM     11  C   UNL     1       5.021   1.702   0.836  1.00  0.00     0.000 A 
ATOM     12  C   UNL     1       5.116   0.767   1.845  1.00  0.00     0.000 A 
ENDBRANCH   6   7
ENDBRANCH   1   6
TORSDOF 4
ENDMDL
MODEL 5
REMARK VINA RESULT:      -6.8      3.369      5.074
REMARK SMILES O=C(O)CCc1ccccc1
REMARK SMILES IDX 4 1 2 2 1 3 3 4 5 6 6 7 7 8 11 9 8 10 10 11 9 12
REMARK H PARENT 3 5
REMARK Flexibility Score: inf
ROOT
ATOM      1  C   UNL     1       4.995   1.806   0.710  1.00  0.00     0.127 C 
ENDROOT
BRANCH   1   2
ATOM      2  C   UNL     1       4.500   1.114   1.923  1.00  0.00     0.303 C 
ATOM      3  O   UNL     1       5.180   0.233   2.473  1.00  0.00    -0.252 OA
BRANCH   2   4
ATOM      4  O   UNL     1       3.268   1.454   2.449  1.00  0.00    -0.481 OA
ATOM      5  H   UNL     1       3.126   1.611   3.443  1.00  0.00     0.296 HD
ENDBRANCH   2   4
ENDBRANCH   1   2
BRANCH   1   6
ATOM      6  C   UNL     1       6.502   1.863   0.708  1.00  0.00     0.047 C 
BRANCH   6   7
ATOM      7  C   UNL     1       7.104   1.055  -0.370  1.00  0.00    -0.047 A 
ATOM      8  C   UNL     1       6.419   0.133  -1.119  1.00  0.00     0.004 A 
ATOM      9  C   UNL     1       8.440   1.242  -0.636  1.00  0.00     0.004 A 
ATOM     10  C   UNL     1       7.064  -0.581  -2.110  1.00  0.00     0.000 A 
ATOM     11  C   UNL     1       9.095   0.547  -1.609  1.00  0.00     0.000 A 
ATOM     12  C   UNL     1       8.406  -0.379  -2.362  1.00  0.00     0.000 A 
ENDBRANCH   6   7
ENDBRANCH   1   6
TORSDOF 4
ENDMDL
