@<TRIPOS>MOLECULE
/home/cewinharhar/GITHUB/reincatalyze/data/processed/docking_pred/2023-Apr-25-1630_maxeplen5_maxtrainstep200_exh32_gamma099_lrac3e-4_lrcr1e-3/41d0b72e0d67d5e9a3b384f9954b5fa92cfe5642_ligand_2.pdbqt
 12 12 0 0 0
SMALL
GASTEIGER

@<TRIPOS>ATOM
      1  C          7.2840   -1.2840   -2.2690 C.3     1  UNL1        0.1270
      2  C          8.7370   -1.4210   -2.5250 C.2     1  UNL1        0.3030
      3  O          9.5430   -0.5960   -2.0670 O.2     1  UNL1       -0.2520
      4  O          9.2000   -2.4800   -3.2820 O.3     1  UNL1       -0.4810
      5  H          8.5770   -3.1830   -3.6700 H       1  UNL1        0.2960
      6  C          6.9350    0.1480   -1.9480 C.3     1  UNL1        0.0470
      7  C          6.3280    0.3040   -0.6120 C.2     1  UNL1       -0.0470
      8  C          6.4220   -0.6260    0.3920 C.2     1  UNL1        0.0040
      9  C          5.6230    1.4570   -0.3630 C.2     1  UNL1        0.0040
     10  C          5.8200   -0.3980    1.6140 C.2     1  UNL1        0.0000
     11  C          5.0210    1.7020    0.8360 C.2     1  UNL1        0.0000
     12  C          5.1160    0.7670    1.8450 C.2     1  UNL1        0.0000
@<TRIPOS>BOND
     1     5     4    1
     2     4     2    1
     3     2     1    1
     4     2     3    2
     5     1     6    1
     6     6     7    1
     7     7     9    2
     8     7     8    1
     9     9    11    1
    10     8    10    2
    11    11    12    2
    12    10    12    1
