@<TRIPOS>MOLECULE
/home/cewinharhar/GITHUB/reincatalyze/data/processed/docking_pred/2023-Apr-25-1630_maxeplen5_maxtrainstep200_exh32_gamma099_lrac3e-4_lrcr1e-3/42234a6127519c7502e2f6bf4b16ee47cf11c698_ligand_2.pdbqt
 12 12 0 0 0
SMALL
GASTEIGER

@<TRIPOS>ATOM
      1  C          5.4360    2.9200    0.0590 C.3     1  UNL1        0.1270
      2  C          6.2480    3.8970    0.8220 C.2     1  UNL1        0.3030
      3  O          6.9020    4.7750    0.2360 O.2     1  UNL1       -0.2520
      4  O          6.2790    3.8300    2.2010 O.3     1  UNL1       -0.4810
      5  H          5.9370    4.5850    2.7900 H       1  UNL1        0.2960
      6  C          4.8670    1.8700    0.9800 C.3     1  UNL1        0.0470
      7  C          5.6510    0.6210    0.9790 C.2     1  UNL1       -0.0470
      8  C          5.7600   -0.2240    2.0540 C.2     1  UNL1        0.0040
      9  C          6.3170    0.2870   -0.1770 C.2     1  UNL1        0.0040
     10  C          6.5180   -1.3750    1.9650 C.2     1  UNL1        0.0000
     11  C          7.0710   -0.8440   -0.2850 C.2     1  UNL1        0.0000
     12  C          7.1790   -1.6940    0.7950 C.2     1  UNL1        0.0000
@<TRIPOS>BOND
     1    11     9    1
     2    11    12    2
     3     9     7    2
     4     1     2    1
     5     1     6    1
     6     3     2    2
     7    12    10    1
     8     2     4    1
     9     7     6    1
    10     7     8    1
    11    10     8    2
    12     4     5    1
