MODEL 1
REMARK VINA RESULT:      -7.3      0.000      0.000
REMARK SMILES O=C(O)CCc1ccccc1
REMARK SMILES IDX 4 1 2 2 1 3 3 4 5 6 6 7 7 8 11 9 8 10 10 11 9 12
REMARK H PARENT 3 5
REMARK Flexibility Score: inf
ROOT
ATOM      1  C   UNL     1       8.423  -0.636  -2.133  1.00  0.00     0.127 C 
ENDROOT
BRANCH   1   2
ATOM      2  C   UNL     1       8.488  -1.902  -2.901  1.00  0.00     0.303 C 
ATOM      3  O   UNL     1       9.571  -2.480  -3.083  1.00  0.00    -0.252 OA
BRANCH   2   4
ATOM      4  O   UNL     1       7.329  -2.445  -3.422  1.00  0.00    -0.481 OA
ATOM      5  H   UNL     1       6.534  -1.872  -3.691  1.00  0.00     0.296 HD
ENDBRANCH   2   4
ENDBRANCH   1   2
BRANCH   1   6
ATOM      6  C   UNL     1       7.020  -0.081  -2.144  1.00  0.00     0.047 C 
BRANCH   6   7
ATOM      7  C   UNL     1       6.467   0.102  -0.788  1.00  0.00    -0.047 A 
ATOM      8  C   UNL     1       5.826   1.238  -0.363  1.00  0.00     0.004 A 
ATOM      9  C   UNL     1       6.606  -0.935   0.103  1.00  0.00     0.004 A 
ATOM     10  C   UNL     1       5.339   1.324   0.927  1.00  0.00     0.000 A 
ATOM     11  C   UNL     1       6.133  -0.870   1.380  1.00  0.00     0.000 A 
ATOM     12  C   UNL     1       5.489   0.271   1.808  1.00  0.00     0.000 A 
ENDBRANCH   6   7
ENDBRANCH   1   6
TORSDOF 4
ENDMDL
MODEL 2
REMARK VINA RESULT:      -7.3      0.115      1.723
REMARK SMILES O=C(O)CCc1ccccc1
REMARK SMILES IDX 4 1 2 2 1 3 3 4 5 6 6 7 7 8 11 9 8 10 10 11 9 12
REMARK H PARENT 3 5
REMARK Flexibility Score: inf
ROOT
ATOM      1  C   UNL     1       8.436  -0.638  -2.167  1.00  0.00     0.127 C 
ENDROOT
BRANCH   1   2
ATOM      2  C   UNL     1       8.399  -1.917  -2.914  1.00  0.00     0.303 C 
ATOM      3  O   UNL     1       7.317  -2.436  -3.230  1.00  0.00    -0.252 OA
BRANCH   2   4
ATOM      4  O   UNL     1       9.582  -2.539  -3.262  1.00  0.00    -0.481 OA
ATOM      5  H   UNL     1      10.484  -2.079  -3.176  1.00  0.00     0.296 HD
ENDBRANCH   2   4
ENDBRANCH   1   2
BRANCH   1   6
ATOM      6  C   UNL     1       7.066  -0.010  -2.121  1.00  0.00     0.047 C 
BRANCH   6   7
ATOM      7  C   UNL     1       6.515   0.064  -0.754  1.00  0.00    -0.047 A 
ATOM      8  C   UNL     1       6.611  -0.943   0.172  1.00  0.00     0.004 A 
ATOM      9  C   UNL     1       5.863   1.218  -0.392  1.00  0.00     0.004 A 
ATOM     10  C   UNL     1       6.064  -0.788   1.431  1.00  0.00     0.000 A 
ATOM     11  C   UNL     1       5.315   1.390   0.845  1.00  0.00     0.000 A 
ATOM     12  C   UNL     1       5.413   0.379   1.777  1.00  0.00     0.000 A 
ENDBRANCH   6   7
ENDBRANCH   1   6
TORSDOF 4
ENDMDL
MODEL 3
REMARK VINA RESULT:      -6.7      3.349      5.023
REMARK SMILES O=C(O)CCc1ccccc1
REMARK SMILES IDX 4 1 2 2 1 3 3 4 5 6 6 7 7 8 11 9 8 10 10 11 9 12
REMARK H PARENT 3 5
REMARK Flexibility Score: inf
ROOT
ATOM      1  C   UNL     1       5.045   1.694   0.694  1.00  0.00     0.127 C 
ENDROOT
BRANCH   1   2
ATOM      2  C   UNL     1       4.595   1.018   1.933  1.00  0.00     0.303 C 
ATOM      3  O   UNL     1       5.310   0.172   2.491  1.00  0.00    -0.252 OA
BRANCH   2   4
ATOM      4  O   UNL     1       3.363   1.334   2.474  1.00  0.00    -0.481 OA
ATOM      5  H   UNL     1       2.501   1.261   1.941  1.00  0.00     0.296 HD
ENDBRANCH   2   4
ENDBRANCH   1   2
BRANCH   1   6
ATOM      6  C   UNL     1       6.545   1.861   0.696  1.00  0.00     0.047 C 
BRANCH   6   7
ATOM      7  C   UNL     1       7.209   1.081  -0.366  1.00  0.00    -0.047 A 
ATOM      8  C   UNL     1       8.541   1.178  -0.676  1.00  0.00     0.004 A 
ATOM      9  C   UNL     1       6.437   0.203  -1.089  1.00  0.00     0.004 A 
ATOM     10  C   UNL     1       9.080   0.409  -1.689  1.00  0.00     0.000 A 
ATOM     11  C   UNL     1       6.950  -0.565  -2.093  1.00  0.00     0.000 A 
ATOM     12  C   UNL     1       8.290  -0.468  -2.404  1.00  0.00     0.000 A 
ENDBRANCH   6   7
ENDBRANCH   1   6
TORSDOF 4
ENDMDL
MODEL 4
REMARK VINA RESULT:      -6.7      1.937      2.656
REMARK SMILES O=C(O)CCc1ccccc1
REMARK SMILES IDX 4 1 2 2 1 3 3 4 5 6 6 7 7 8 11 9 8 10 10 11 9 12
REMARK H PARENT 3 5
REMARK Flexibility Score: inf
ROOT
ATOM      1  C   UNL     1       8.261   0.233  -2.178  1.00  0.00     0.127 C 
ENDROOT
BRANCH   1   2
ATOM      2  C   UNL     1       9.392   0.352  -1.228  1.00  0.00     0.303 C 
ATOM      3  O   UNL     1       9.467  -0.387  -0.234  1.00  0.00    -0.252 OA
BRANCH   2   4
ATOM      4  O   UNL     1      10.375   1.297  -1.452  1.00  0.00    -0.481 OA
ATOM      5  H   UNL     1      10.292   2.005  -2.176  1.00  0.00     0.296 HD
ENDBRANCH   2   4
ENDBRANCH   1   2
BRANCH   1   6
ATOM      6  C   UNL     1       7.134  -0.559  -1.563  1.00  0.00     0.047 C 
BRANCH   6   7
ATOM      7  C   UNL     1       6.356   0.221  -0.581  1.00  0.00    -0.047 A 
ATOM      8  C   UNL     1       6.117  -0.181   0.708  1.00  0.00     0.004 A 
ATOM      9  C   UNL     1       5.839   1.427  -0.990  1.00  0.00     0.004 A 
ATOM     10  C   UNL     1       5.376   0.613   1.562  1.00  0.00     0.000 A 
ATOM     11  C   UNL     1       5.104   2.225  -0.164  1.00  0.00     0.000 A 
ATOM     12  C   UNL     1       4.864   1.822   1.133  1.00  0.00     0.000 A 
ENDBRANCH   6   7
ENDBRANCH   1   6
TORSDOF 4
ENDMDL
MODEL 5
REMARK VINA RESULT:      -6.7      3.807      4.998
REMARK SMILES O=C(O)CCc1ccccc1
REMARK SMILES IDX 4 1 2 2 1 3 3 4 5 6 6 7 7 8 11 9 8 10 10 11 9 12
REMARK H PARENT 3 5
REMARK Flexibility Score: inf
ROOT
ATOM      1  C   UNL     1       5.436   2.920   0.059  1.00  0.00     0.127 C 
ENDROOT
BRANCH   1   2
ATOM      2  C   UNL     1       6.248   3.897   0.822  1.00  0.00     0.303 C 
ATOM      3  O   UNL     1       6.902   4.775   0.236  1.00  0.00    -0.252 OA
BRANCH   2   4
ATOM      4  O   UNL     1       6.279   3.830   2.201  1.00  0.00    -0.481 OA
ATOM      5  H   UNL     1       5.937   4.585   2.790  1.00  0.00     0.296 HD
ENDBRANCH   2   4
ENDBRANCH   1   2
BRANCH   1   6
ATOM      6  C   UNL     1       4.867   1.870   0.980  1.00  0.00     0.047 C 
BRANCH   6   7
ATOM      7  C   UNL     1       5.651   0.621   0.979  1.00  0.00    -0.047 A 
ATOM      8  C   UNL     1       5.760  -0.224   2.054  1.00  0.00     0.004 A 
ATOM      9  C   UNL     1       6.317   0.287  -0.177  1.00  0.00     0.004 A 
ATOM     10  C   UNL     1       6.518  -1.375   1.965  1.00  0.00     0.000 A 
ATOM     11  C   UNL     1       7.071  -0.844  -0.285  1.00  0.00     0.000 A 
ATOM     12  C   UNL     1       7.179  -1.694   0.795  1.00  0.00     0.000 A 
ENDBRANCH   6   7
ENDBRANCH   1   6
TORSDOF 4
ENDMDL
