@<TRIPOS>MOLECULE
/home/cewinharhar/GITHUB/reincatalyze/data/processed/docking_pred/2023-Apr-25-1630_maxeplen5_maxtrainstep200_exh32_gamma099_lrac3e-4_lrcr1e-3/42234a6127519c7502e2f6bf4b16ee47cf11c698_ligand_2.pdbqt
 12 12 0 0 0
SMALL
GASTEIGER

@<TRIPOS>ATOM
      1  C          8.4360   -0.6380   -2.1670 C.3     1  UNL1        0.1270
      2  C          8.3990   -1.9170   -2.9140 C.2     1  UNL1        0.3030
      3  O          7.3170   -2.4360   -3.2300 O.2     1  UNL1       -0.2520
      4  O          9.5820   -2.5390   -3.2620 O.3     1  UNL1       -0.4810
      5  H         10.4840   -2.0790   -3.1760 H       1  UNL1        0.2960
      6  C          7.0660   -0.0100   -2.1210 C.3     1  UNL1        0.0470
      7  C          6.5150    0.0640   -0.7540 C.2     1  UNL1       -0.0470
      8  C          6.6110   -0.9430    0.1720 C.2     1  UNL1        0.0040
      9  C          5.8630    1.2180   -0.3920 C.2     1  UNL1        0.0040
     10  C          6.0640   -0.7880    1.4310 C.2     1  UNL1        0.0000
     11  C          5.3150    1.3900    0.8450 C.2     1  UNL1        0.0000
     12  C          5.4130    0.3790    1.7770 C.2     1  UNL1        0.0000
@<TRIPOS>BOND
     1     4     5    1
     2     4     2    1
     3     3     2    2
     4     2     1    1
     5     1     6    1
     6     6     7    1
     7     7     9    2
     8     7     8    1
     9     9    11    1
    10     8    10    2
    11    11    12    2
    12    10    12    1
