@<TRIPOS>MOLECULE
/home/cewinharhar/GITHUB/reincatalyze/data/processed/docking_pred/2023-Apr-25-1630_maxeplen5_maxtrainstep200_exh32_gamma099_lrac3e-4_lrcr1e-3/42234a6127519c7502e2f6bf4b16ee47cf11c698_ligand_2.pdbqt
 12 12 0 0 0
SMALL
GASTEIGER

@<TRIPOS>ATOM
      1  C          8.2610    0.2330   -2.1780 C.3     1  UNL1        0.1270
      2  C          9.3920    0.3520   -1.2280 C.2     1  UNL1        0.3030
      3  O          9.4670   -0.3870   -0.2340 O.2     1  UNL1       -0.2520
      4  O         10.3750    1.2970   -1.4520 O.3     1  UNL1       -0.4810
      5  H         10.2920    2.0050   -2.1760 H       1  UNL1        0.2960
      6  C          7.1340   -0.5590   -1.5630 C.3     1  UNL1        0.0470
      7  C          6.3560    0.2210   -0.5810 C.2     1  UNL1       -0.0470
      8  C          6.1170   -0.1810    0.7080 C.2     1  UNL1        0.0040
      9  C          5.8390    1.4270   -0.9900 C.2     1  UNL1        0.0040
     10  C          5.3760    0.6130    1.5620 C.2     1  UNL1        0.0000
     11  C          5.1040    2.2250   -0.1640 C.2     1  UNL1        0.0000
     12  C          4.8640    1.8220    1.1330 C.2     1  UNL1        0.0000
@<TRIPOS>BOND
     1     1     6    1
     2     1     2    1
     3     5     4    1
     4     6     7    1
     5     4     2    1
     6     2     3    2
     7     9     7    2
     8     9    11    1
     9     7     8    1
    10    11    12    2
    11     8    10    2
    12    12    10    1
