@<TRIPOS>MOLECULE
/home/cewinharhar/GITHUB/reincatalyze/data/processed/docking_pred/2023-Apr-25-1630_maxeplen5_maxtrainstep200_exh32_gamma099_lrac3e-4_lrcr1e-3/42234a6127519c7502e2f6bf4b16ee47cf11c698_ligand_2.pdbqt
 12 12 0 0 0
SMALL
GASTEIGER

@<TRIPOS>ATOM
      1  C          8.4230   -0.6360   -2.1330 C.3     1  UNL1        0.1270
      2  C          8.4880   -1.9020   -2.9010 C.2     1  UNL1        0.3030
      3  O          9.5710   -2.4800   -3.0830 O.2     1  UNL1       -0.2520
      4  O          7.3290   -2.4450   -3.4220 O.3     1  UNL1       -0.4810
      5  H          6.5340   -1.8720   -3.6910 H       1  UNL1        0.2960
      6  C          7.0200   -0.0810   -2.1440 C.3     1  UNL1        0.0470
      7  C          6.4670    0.1020   -0.7880 C.2     1  UNL1       -0.0470
      8  C          5.8260    1.2380   -0.3630 C.2     1  UNL1        0.0040
      9  C          6.6060   -0.9350    0.1030 C.2     1  UNL1        0.0040
     10  C          5.3390    1.3240    0.9270 C.2     1  UNL1        0.0000
     11  C          6.1330   -0.8700    1.3800 C.2     1  UNL1        0.0000
     12  C          5.4890    0.2710    1.8080 C.2     1  UNL1        0.0000
@<TRIPOS>BOND
     1     5     4    1
     2     4     2    1
     3     3     2    2
     4     2     1    1
     5     6     1    1
     6     6     7    1
     7     7     8    2
     8     7     9    1
     9     8    10    1
    10     9    11    2
    11    10    12    2
    12    11    12    1
