@<TRIPOS>MOLECULE
/home/cewinharhar/GITHUB/reincatalyze/data/processed/docking_pred/2023-Apr-25-1630_maxeplen5_maxtrainstep200_exh32_gamma099_lrac3e-4_lrcr1e-3/42234a6127519c7502e2f6bf4b16ee47cf11c698_ligand_2.pdbqt
 12 12 0 0 0
SMALL
GASTEIGER

@<TRIPOS>ATOM
      1  C          5.0450    1.6940    0.6940 C.3     1  UNL1        0.1270
      2  C          4.5950    1.0180    1.9330 C.2     1  UNL1        0.3030
      3  O          5.3100    0.1720    2.4910 O.2     1  UNL1       -0.2520
      4  O          3.3630    1.3340    2.4740 O.3     1  UNL1       -0.4810
      5  H          2.5010    1.2610    1.9410 H       1  UNL1        0.2960
      6  C          6.5450    1.8610    0.6960 C.3     1  UNL1        0.0470
      7  C          7.2090    1.0810   -0.3660 C.2     1  UNL1       -0.0470
      8  C          8.5410    1.1780   -0.6760 C.2     1  UNL1        0.0040
      9  C          6.4370    0.2030   -1.0890 C.2     1  UNL1        0.0040
     10  C          9.0800    0.4090   -1.6890 C.2     1  UNL1        0.0000
     11  C          6.9500   -0.5650   -2.0930 C.2     1  UNL1        0.0000
     12  C          8.2900   -0.4680   -2.4040 C.2     1  UNL1        0.0000
@<TRIPOS>BOND
     1    12    11    2
     2    12    10    1
     3    11     9    1
     4    10     8    2
     5     9     7    2
     6     8     7    1
     7     7     6    1
     8     1     6    1
     9     1     2    1
    10     2     4    1
    11     2     3    2
    12     5     4    1
