@<TRIPOS>MOLECULE
/home/cewinharhar/GITHUB/reincatalyze/data/processed/docking_pred/2023-Apr-25-1630_maxeplen5_maxtrainstep200_exh32_gamma099_lrac3e-4_lrcr1e-3/4295960a5818388fac6ce93a10a8a6662c8ec52f_ligand_2.pdbqt
 12 12 0 0 0
SMALL
GASTEIGER

@<TRIPOS>ATOM
      1  C          8.4390   -0.6200   -2.1960 C.3     1  UNL1        0.1270
      2  C          8.4770   -1.9090   -2.9270 C.2     1  UNL1        0.3030
      3  O          9.5440   -2.5260   -3.0700 O.2     1  UNL1       -0.2520
      4  O          7.3110   -2.4290   -3.4550 O.3     1  UNL1       -0.4810
      5  H          6.6880   -3.0230   -2.9150 H       1  UNL1        0.2960
      6  C          7.0320   -0.0770   -2.1540 C.3     1  UNL1        0.0470
      7  C          6.5010    0.0300   -0.7820 C.2     1  UNL1       -0.0470
      8  C          6.6050   -0.9550    0.1660 C.2     1  UNL1        0.0040
      9  C          5.8590    1.1960   -0.4360 C.2     1  UNL1        0.0040
     10  C          6.0760   -0.7700    1.4280 C.2     1  UNL1        0.0000
     11  C          5.3290    1.3980    0.8040 C.2     1  UNL1        0.0000
     12  C          5.4350    0.4080    1.7570 C.2     1  UNL1        0.0000
@<TRIPOS>BOND
     1     4     2    1
     2     4     5    1
     3     3     2    2
     4     2     1    1
     5     1     6    1
     6     6     7    1
     7     7     9    2
     8     7     8    1
     9     9    11    1
    10     8    10    2
    11    11    12    2
    12    10    12    1
