@<TRIPOS>MOLECULE
/home/cewinharhar/GITHUB/reincatalyze/data/processed/docking_pred/2023-Apr-25-1630_maxeplen5_maxtrainstep200_exh32_gamma099_lrac3e-4_lrcr1e-3/4295960a5818388fac6ce93a10a8a6662c8ec52f_ligand_2.pdbqt
 12 12 0 0 0
SMALL
GASTEIGER

@<TRIPOS>ATOM
      1  C          8.2750   -0.9850   -1.8310 C.3     1  UNL1        0.1270
      2  C          8.4150   -2.0600   -2.8410 C.2     1  UNL1        0.3030
      3  O          9.5300   -2.5300   -3.1170 O.2     1  UNL1       -0.2520
      4  O          7.2920   -2.5450   -3.4820 O.3     1  UNL1       -0.4810
      5  H          6.8790   -3.4440   -3.2490 H       1  UNL1        0.2960
      6  C          7.3460   -1.4150   -0.7230 C.3     1  UNL1        0.0470
      7  C          6.5390   -0.3020   -0.1880 C.2     1  UNL1       -0.0470
      8  C          6.1940    0.8150   -0.9040 C.2     1  UNL1        0.0040
      9  C          6.1070   -0.3970    1.1140 C.2     1  UNL1        0.0040
     10  C          5.4340    1.8110   -0.3220 C.2     1  UNL1        0.0000
     11  C          5.3570    0.5750    1.7070 C.2     1  UNL1        0.0000
     12  C          5.0100    1.6990    0.9870 C.2     1  UNL1        0.0000
@<TRIPOS>BOND
     1     4     5    1
     2     4     2    1
     3     3     2    2
     4     2     1    1
     5     1     6    1
     6     8    10    1
     7     8     7    2
     8     6     7    1
     9    10    12    2
    10     7     9    1
    11    12    11    1
    12     9    11    2
