@<TRIPOS>MOLECULE
/home/cewinharhar/GITHUB/reincatalyze/data/processed/docking_pred/2023-Apr-25-1630_maxeplen5_maxtrainstep200_exh32_gamma099_lrac3e-4_lrcr1e-3/4295960a5818388fac6ce93a10a8a6662c8ec52f_ligand_2.pdbqt
 12 12 0 0 0
SMALL
GASTEIGER

@<TRIPOS>ATOM
      1  C          5.0090    1.8060    0.7320 C.3     1  UNL1        0.1270
      2  C          4.4880    1.1030    1.9290 C.2     1  UNL1        0.3030
      3  O          5.1420    0.1960    2.4680 O.2     1  UNL1       -0.2520
      4  O          3.2600    1.4620    2.4500 O.3     1  UNL1       -0.4810
      5  H          2.6970    2.2070    2.0500 H       1  UNL1        0.2960
      6  C          6.5140    1.8910    0.7810 C.3     1  UNL1        0.0470
      7  C          7.1660    1.1380   -0.3070 C.2     1  UNL1       -0.0470
      8  C          8.4940    1.2420   -0.6310 C.2     1  UNL1        0.0040
      9  C          6.3860    0.2770   -1.0420 C.2     1  UNL1        0.0040
     10  C          9.0220    0.4980   -1.6680 C.2     1  UNL1        0.0000
     11  C          6.8870   -0.4660   -2.0700 C.2     1  UNL1        0.0000
     12  C          8.2230   -0.3620   -2.3950 C.2     1  UNL1        0.0000
@<TRIPOS>BOND
     1    12    11    2
     2    12    10    1
     3    11     9    1
     4    10     8    2
     5     9     7    2
     6     8     7    1
     7     7     6    1
     8     1     6    1
     9     1     2    1
    10     2     4    1
    11     2     3    2
    12     5     4    1
