@<TRIPOS>MOLECULE
/home/cewinharhar/GITHUB/reincatalyze/data/processed/docking_pred/2023-Apr-25-1630_maxeplen5_maxtrainstep200_exh32_gamma099_lrac3e-4_lrcr1e-3/4295960a5818388fac6ce93a10a8a6662c8ec52f_ligand_2.pdbqt
 12 12 0 0 0
SMALL
GASTEIGER

@<TRIPOS>ATOM
      1  C          5.4950    2.9000    0.0170 C.3     1  UNL1        0.1270
      2  C          6.2460    3.9250    0.7800 C.2     1  UNL1        0.3030
      3  O          6.9360    4.7750    0.1940 O.2     1  UNL1       -0.2520
      4  O          6.1790    3.9340    2.1600 O.3     1  UNL1       -0.4810
      5  H          5.3040    4.0660    2.6600 H       1  UNL1        0.2960
      6  C          4.9090    1.8700    0.9490 C.3     1  UNL1        0.0470
      7  C          5.6960    0.6220    0.9900 C.2     1  UNL1       -0.0470
      8  C          5.7360   -0.2300    2.0640 C.2     1  UNL1        0.0040
      9  C          6.4350    0.2980   -0.1220 C.2     1  UNL1        0.0040
     10  C          6.5020   -1.3790    2.0170 C.2     1  UNL1        0.0000
     11  C          7.1980   -0.8300   -0.1890 C.2     1  UNL1        0.0000
     12  C          7.2380   -1.6870    0.8900 C.2     1  UNL1        0.0000
@<TRIPOS>BOND
     1    11     9    1
     2    11    12    2
     3     9     7    2
     4     1     2    1
     5     1     6    1
     6     3     2    2
     7     2     4    1
     8    12    10    1
     9     6     7    1
    10     7     8    1
    11    10     8    2
    12     4     5    1
