MODEL 1
REMARK VINA RESULT:      -7.3      0.000      0.000
REMARK SMILES O=C(O)CCc1ccccc1
REMARK SMILES IDX 4 1 2 2 1 3 3 4 5 6 6 7 7 8 11 9 8 10 10 11 9 12
REMARK H PARENT 3 5
REMARK Flexibility Score: inf
ROOT
ATOM      1  C   UNL     1       8.417  -0.675  -2.112  1.00  0.00     0.127 C 
ENDROOT
BRANCH   1   2
ATOM      2  C   UNL     1       8.465  -1.925  -2.906  1.00  0.00     0.303 C 
ATOM      3  O   UNL     1       9.537  -2.521  -3.088  1.00  0.00    -0.252 OA
BRANCH   2   4
ATOM      4  O   UNL     1       7.301  -2.433  -3.450  1.00  0.00    -0.481 OA
ATOM      5  H   UNL     1       6.512  -2.718  -2.877  1.00  0.00     0.296 HD
ENDBRANCH   2   4
ENDBRANCH   1   2
BRANCH   1   6
ATOM      6  C   UNL     1       7.026  -0.089  -2.129  1.00  0.00     0.047 C 
BRANCH   6   7
ATOM      7  C   UNL     1       6.470   0.103  -0.776  1.00  0.00    -0.047 A 
ATOM      8  C   UNL     1       5.820   1.238  -0.363  1.00  0.00     0.004 A 
ATOM      9  C   UNL     1       6.618  -0.924   0.126  1.00  0.00     0.004 A 
ATOM     10  C   UNL     1       5.331   1.333   0.926  1.00  0.00     0.000 A 
ATOM     11  C   UNL     1       6.143  -0.849   1.402  1.00  0.00     0.000 A 
ATOM     12  C   UNL     1       5.488   0.291   1.817  1.00  0.00     0.000 A 
ENDBRANCH   6   7
ENDBRANCH   1   6
TORSDOF 4
ENDMDL
MODEL 2
REMARK VINA RESULT:      -7.3      0.086      1.428
REMARK SMILES O=C(O)CCc1ccccc1
REMARK SMILES IDX 4 1 2 2 1 3 3 4 5 6 6 7 7 8 11 9 8 10 10 11 9 12
REMARK H PARENT 3 5
REMARK Flexibility Score: inf
ROOT
ATOM      1  C   UNL     1       8.439  -0.620  -2.196  1.00  0.00     0.127 C 
ENDROOT
BRANCH   1   2
ATOM      2  C   UNL     1       8.477  -1.909  -2.927  1.00  0.00     0.303 C 
ATOM      3  O   UNL     1       9.544  -2.526  -3.070  1.00  0.00    -0.252 OA
BRANCH   2   4
ATOM      4  O   UNL     1       7.311  -2.429  -3.455  1.00  0.00    -0.481 OA
ATOM      5  H   UNL     1       6.688  -3.023  -2.915  1.00  0.00     0.296 HD
ENDBRANCH   2   4
ENDBRANCH   1   2
BRANCH   1   6
ATOM      6  C   UNL     1       7.032  -0.077  -2.154  1.00  0.00     0.047 C 
BRANCH   6   7
ATOM      7  C   UNL     1       6.501   0.030  -0.782  1.00  0.00    -0.047 A 
ATOM      8  C   UNL     1       6.605  -0.955   0.166  1.00  0.00     0.004 A 
ATOM      9  C   UNL     1       5.859   1.196  -0.436  1.00  0.00     0.004 A 
ATOM     10  C   UNL     1       6.076  -0.770   1.428  1.00  0.00     0.000 A 
ATOM     11  C   UNL     1       5.329   1.398   0.804  1.00  0.00     0.000 A 
ATOM     12  C   UNL     1       5.435   0.408   1.757  1.00  0.00     0.000 A 
ENDBRANCH   6   7
ENDBRANCH   1   6
TORSDOF 4
ENDMDL
MODEL 3
REMARK VINA RESULT:      -7.2      0.661      1.134
REMARK SMILES O=C(O)CCc1ccccc1
REMARK SMILES IDX 4 1 2 2 1 3 3 4 5 6 6 7 7 8 11 9 8 10 10 11 9 12
REMARK H PARENT 3 5
REMARK Flexibility Score: inf
ROOT
ATOM      1  C   UNL     1       8.275  -0.985  -1.831  1.00  0.00     0.127 C 
ENDROOT
BRANCH   1   2
ATOM      2  C   UNL     1       8.415  -2.060  -2.841  1.00  0.00     0.303 C 
ATOM      3  O   UNL     1       9.530  -2.530  -3.117  1.00  0.00    -0.252 OA
BRANCH   2   4
ATOM      4  O   UNL     1       7.292  -2.545  -3.482  1.00  0.00    -0.481 OA
ATOM      5  H   UNL     1       6.879  -3.444  -3.249  1.00  0.00     0.296 HD
ENDBRANCH   2   4
ENDBRANCH   1   2
BRANCH   1   6
ATOM      6  C   UNL     1       7.346  -1.415  -0.723  1.00  0.00     0.047 C 
BRANCH   6   7
ATOM      7  C   UNL     1       6.539  -0.302  -0.188  1.00  0.00    -0.047 A 
ATOM      8  C   UNL     1       6.194   0.815  -0.904  1.00  0.00     0.004 A 
ATOM      9  C   UNL     1       6.107  -0.397   1.114  1.00  0.00     0.004 A 
ATOM     10  C   UNL     1       5.434   1.811  -0.322  1.00  0.00     0.000 A 
ATOM     11  C   UNL     1       5.357   0.575   1.707  1.00  0.00     0.000 A 
ATOM     12  C   UNL     1       5.010   1.699   0.987  1.00  0.00     0.000 A 
ENDBRANCH   6   7
ENDBRANCH   1   6
TORSDOF 4
ENDMDL
MODEL 4
REMARK VINA RESULT:      -6.8      3.388      5.064
REMARK SMILES O=C(O)CCc1ccccc1
REMARK SMILES IDX 4 1 2 2 1 3 3 4 5 6 6 7 7 8 11 9 8 10 10 11 9 12
REMARK H PARENT 3 5
REMARK Flexibility Score: inf
ROOT
ATOM      1  C   UNL     1       5.009   1.806   0.732  1.00  0.00     0.127 C 
ENDROOT
BRANCH   1   2
ATOM      2  C   UNL     1       4.488   1.103   1.929  1.00  0.00     0.303 C 
ATOM      3  O   UNL     1       5.142   0.196   2.468  1.00  0.00    -0.252 OA
BRANCH   2   4
ATOM      4  O   UNL     1       3.260   1.462   2.450  1.00  0.00    -0.481 OA
ATOM      5  H   UNL     1       2.697   2.207   2.050  1.00  0.00     0.296 HD
ENDBRANCH   2   4
ENDBRANCH   1   2
BRANCH   1   6
ATOM      6  C   UNL     1       6.514   1.891   0.781  1.00  0.00     0.047 C 
BRANCH   6   7
ATOM      7  C   UNL     1       7.166   1.138  -0.307  1.00  0.00    -0.047 A 
ATOM      8  C   UNL     1       8.494   1.242  -0.631  1.00  0.00     0.004 A 
ATOM      9  C   UNL     1       6.386   0.277  -1.042  1.00  0.00     0.004 A 
ATOM     10  C   UNL     1       9.022   0.498  -1.668  1.00  0.00     0.000 A 
ATOM     11  C   UNL     1       6.887  -0.466  -2.070  1.00  0.00     0.000 A 
ATOM     12  C   UNL     1       8.223  -0.362  -2.395  1.00  0.00     0.000 A 
ENDBRANCH   6   7
ENDBRANCH   1   6
TORSDOF 4
ENDMDL
MODEL 5
REMARK VINA RESULT:      -6.6      3.811      5.004
REMARK SMILES O=C(O)CCc1ccccc1
REMARK SMILES IDX 4 1 2 2 1 3 3 4 5 6 6 7 7 8 11 9 8 10 10 11 9 12
REMARK H PARENT 3 5
REMARK Flexibility Score: inf
ROOT
ATOM      1  C   UNL     1       5.495   2.900   0.017  1.00  0.00     0.127 C 
ENDROOT
BRANCH   1   2
ATOM      2  C   UNL     1       6.246   3.925   0.780  1.00  0.00     0.303 C 
ATOM      3  O   UNL     1       6.936   4.775   0.194  1.00  0.00    -0.252 OA
BRANCH   2   4
ATOM      4  O   UNL     1       6.179   3.934   2.160  1.00  0.00    -0.481 OA
ATOM      5  H   UNL     1       5.304   4.066   2.660  1.00  0.00     0.296 HD
ENDBRANCH   2   4
ENDBRANCH   1   2
BRANCH   1   6
ATOM      6  C   UNL     1       4.909   1.870   0.949  1.00  0.00     0.047 C 
BRANCH   6   7
ATOM      7  C   UNL     1       5.696   0.622   0.990  1.00  0.00    -0.047 A 
ATOM      8  C   UNL     1       5.736  -0.230   2.064  1.00  0.00     0.004 A 
ATOM      9  C   UNL     1       6.435   0.298  -0.122  1.00  0.00     0.004 A 
ATOM     10  C   UNL     1       6.502  -1.379   2.017  1.00  0.00     0.000 A 
ATOM     11  C   UNL     1       7.198  -0.830  -0.189  1.00  0.00     0.000 A 
ATOM     12  C   UNL     1       7.238  -1.687   0.890  1.00  0.00     0.000 A 
ENDBRANCH   6   7
ENDBRANCH   1   6
TORSDOF 4
ENDMDL
