@<TRIPOS>MOLECULE
/home/cewinharhar/GITHUB/reincatalyze/data/processed/docking_pred/2023-Apr-25-1630_maxeplen5_maxtrainstep200_exh32_gamma099_lrac3e-4_lrcr1e-3/437598aa9d4ddbb457dda5082e5f4820e6dbe55d_ligand_2.pdbqt
 12 12 0 0 0
SMALL
GASTEIGER

@<TRIPOS>ATOM
      1  C          8.3860   -0.6760   -2.0750 C.3     1  UNL1        0.1270
      2  C          8.3590   -1.9160   -2.8850 C.2     1  UNL1        0.3030
      3  O          7.2830   -2.4110   -3.2550 O.2     1  UNL1       -0.2520
      4  O          9.5470   -2.5300   -3.2340 O.3     1  UNL1       -0.4810
      5  H          9.6870   -2.9690   -4.1400 H       1  UNL1        0.2960
      6  C          7.0430    0.0090   -2.1090 C.3     1  UNL1        0.0470
      7  C          6.4550    0.1830   -0.7670 C.2     1  UNL1       -0.0470
      8  C          5.7730    1.3020   -0.3630 C.2     1  UNL1        0.0040
      9  C          6.6040   -0.8450    0.1330 C.2     1  UNL1        0.0040
     10  C          5.2550    1.3810    0.9150 C.2     1  UNL1        0.0000
     11  C          6.1010   -0.7860    1.3990 C.2     1  UNL1        0.0000
     12  C          5.4150    0.3380    1.8050 C.2     1  UNL1        0.0000
@<TRIPOS>BOND
     1     5     4    1
     2     3     2    2
     3     4     2    1
     4     2     1    1
     5     6     1    1
     6     6     7    1
     7     7     8    2
     8     7     9    1
     9     8    10    1
    10     9    11    2
    11    10    12    2
    12    11    12    1
