@<TRIPOS>MOLECULE
/home/cewinharhar/GITHUB/reincatalyze/data/processed/docking_pred/2023-Apr-25-1630_maxeplen5_maxtrainstep200_exh32_gamma099_lrac3e-4_lrcr1e-3/437598aa9d4ddbb457dda5082e5f4820e6dbe55d_ligand_2.pdbqt
 12 12 0 0 0
SMALL
GASTEIGER

@<TRIPOS>ATOM
      1  C          8.4890    0.6680   -1.6730 C.3     1  UNL1        0.1270
      2  C          9.6310    0.2700   -0.8160 C.2     1  UNL1        0.3030
      3  O          9.4740   -0.5270    0.1220 O.2     1  UNL1       -0.2520
      4  O         10.8860    0.7920   -1.0650 O.3     1  UNL1       -0.4810
      5  H         11.7240    0.4300   -0.6190 H       1  UNL1        0.2960
      6  C          7.2870   -0.1980   -1.3900 C.3     1  UNL1        0.0470
      7  C          6.3860    0.3870   -0.3790 C.2     1  UNL1       -0.0470
      8  C          5.7440    1.5900   -0.5210 C.2     1  UNL1        0.0040
      9  C          6.1810   -0.3240    0.7800 C.2     1  UNL1        0.0040
     10  C          4.9170    2.0630    0.4800 C.2     1  UNL1        0.0000
     11  C          5.3690    0.1260    1.7790 C.2     1  UNL1        0.0000
     12  C          4.7230    1.3350    1.6360 C.2     1  UNL1        0.0000
@<TRIPOS>BOND
     1     1     6    1
     2     1     2    1
     3     6     7    1
     4     4     2    1
     5     4     5    1
     6     2     3    2
     7     8     7    2
     8     8    10    1
     9     7     9    1
    10    10    12    2
    11     9    11    2
    12    12    11    1
