@<TRIPOS>MOLECULE
/home/cewinharhar/GITHUB/reincatalyze/data/processed/docking_pred/2023-Apr-25-1630_maxeplen5_maxtrainstep200_exh32_gamma099_lrac3e-4_lrcr1e-3/437598aa9d4ddbb457dda5082e5f4820e6dbe55d_ligand_2.pdbqt
 12 12 0 0 0
SMALL
GASTEIGER

@<TRIPOS>ATOM
      1  C          8.4240   -0.5680   -2.2400 C.3     1  UNL1        0.1270
      2  C          8.4780   -1.8820   -2.9240 C.2     1  UNL1        0.3030
      3  O          9.5570   -2.4760   -3.0720 O.2     1  UNL1       -0.2520
      4  O          7.3130   -2.4510   -3.4010 O.3     1  UNL1       -0.4810
      5  H          6.7520   -2.0130   -4.1260 H       1  UNL1        0.2960
      6  C          7.0060   -0.0550   -2.1910 C.3     1  UNL1        0.0470
      7  C          6.4830    0.0510   -0.8150 C.2     1  UNL1       -0.0470
      8  C          6.5860   -0.9400    0.1280 C.2     1  UNL1        0.0040
      9  C          5.8510    1.2190   -0.4610 C.2     1  UNL1        0.0040
     10  C          6.0650   -0.7550    1.3940 C.2     1  UNL1        0.0000
     11  C          5.3300    1.4210    0.7830 C.2     1  UNL1        0.0000
     12  C          5.4340    0.4250    1.7310 C.2     1  UNL1        0.0000
@<TRIPOS>BOND
     1     5     4    1
     2     4     2    1
     3     3     2    2
     4     2     1    1
     5     1     6    1
     6     6     7    1
     7     7     9    2
     8     7     8    1
     9     9    11    1
    10     8    10    2
    11    11    12    2
    12    10    12    1
