@<TRIPOS>MOLECULE
/home/cewinharhar/GITHUB/reincatalyze/data/processed/docking_pred/2023-Apr-25-1630_maxeplen5_maxtrainstep200_exh32_gamma099_lrac3e-4_lrcr1e-3/437598aa9d4ddbb457dda5082e5f4820e6dbe55d_ligand_2.pdbqt
 12 12 0 0 0
SMALL
GASTEIGER

@<TRIPOS>ATOM
      1  C          5.0580    1.7070    0.7040 C.3     1  UNL1        0.1270
      2  C          4.5930    1.0260    1.9350 C.2     1  UNL1        0.3030
      3  O          5.2970    0.1700    2.4930 O.2     1  UNL1       -0.2520
      4  O          3.3600    1.3480    2.4680 O.3     1  UNL1       -0.4810
      5  H          3.2040    1.4260    3.4690 H       1  UNL1        0.2960
      6  C          6.5600    1.8490    0.7120 C.3     1  UNL1        0.0470
      7  C          7.2150    1.0720   -0.3570 C.2     1  UNL1       -0.0470
      8  C          8.5410    1.1810   -0.6890 C.2     1  UNL1        0.0040
      9  C          6.4410    0.1840   -1.0660 C.2     1  UNL1        0.0040
     10  C          9.0720    0.4140   -1.7080 C.2     1  UNL1        0.0000
     11  C          6.9450   -0.5820   -2.0750 C.2     1  UNL1        0.0000
     12  C          8.2790   -0.4730   -2.4080 C.2     1  UNL1        0.0000
@<TRIPOS>BOND
     1    12    11    2
     2    12    10    1
     3    11     9    1
     4    10     8    2
     5     9     7    2
     6     8     7    1
     7     7     6    1
     8     1     6    1
     9     1     2    1
    10     2     4    1
    11     2     3    2
    12     4     5    1
