@<TRIPOS>MOLECULE
/home/cewinharhar/GITHUB/reincatalyze/data/processed/docking_pred/2023-Apr-25-1630_maxeplen5_maxtrainstep200_exh32_gamma099_lrac3e-4_lrcr1e-3/437598aa9d4ddbb457dda5082e5f4820e6dbe55d_ligand_2.pdbqt
 12 12 0 0 0
SMALL
GASTEIGER

@<TRIPOS>ATOM
      1  C          5.3410    2.9790    0.0720 C.3     1  UNL1        0.1270
      2  C          6.2310    3.8840    0.8350 C.2     1  UNL1        0.3030
      3  O          6.8960    4.7580    0.2570 O.2     1  UNL1       -0.2520
      4  O          6.3220    3.7540    2.2080 O.3     1  UNL1       -0.4810
      5  H          7.1660    3.4220    2.6670 H       1  UNL1        0.2960
      6  C          5.2190    1.6460    0.7670 C.3     1  UNL1        0.0470
      7  C          6.0150    0.5860    0.1170 C.2     1  UNL1       -0.0470
      8  C          6.3600    0.5840   -1.2100 C.2     1  UNL1        0.0040
      9  C          6.4330   -0.4650    0.8980 C.2     1  UNL1        0.0040
     10  C          7.1080   -0.4510   -1.7350 C.2     1  UNL1        0.0000
     11  C          7.1720   -1.4970    0.3980 C.2     1  UNL1        0.0000
     12  C          7.5200   -1.4990   -0.9360 C.2     1  UNL1        0.0000
@<TRIPOS>BOND
     1    10     8    1
     2    10    12    2
     3     8     7    2
     4    12    11    1
     5     1     6    1
     6     1     2    1
     7     7     6    1
     8     7     9    1
     9     3     2    2
    10    11     9    2
    11     2     4    1
    12     4     5    1
