@<TRIPOS>MOLECULE
/home/cewinharhar/GITHUB/reincatalyze/data/processed/docking_pred/2023-Apr-25-1630_maxeplen5_maxtrainstep200_exh32_gamma099_lrac3e-4_lrcr1e-3/43f74fb3996e866f8c2ebaeff785616509de483e_ligand_2.pdbqt
 12 12 0 0 0
SMALL
GASTEIGER

@<TRIPOS>ATOM
      1  C          4.9950    1.7910    0.7350 C.3     1  UNL1        0.1270
      2  C          4.4730    1.0980    1.9360 C.2     1  UNL1        0.3030
      3  O          5.1220    0.1900    2.4780 O.2     1  UNL1       -0.2520
      4  O          3.2470    1.4650    2.4570 O.3     1  UNL1       -0.4810
      5  H          3.0710    1.5020    3.4570 H       1  UNL1        0.2960
      6  C          6.5030    1.8090    0.7470 C.3     1  UNL1        0.0470
      7  C          7.0940    1.0170   -0.3480 C.2     1  UNL1       -0.0470
      8  C          6.4140    0.0680   -1.0680 C.2     1  UNL1        0.0040
      9  C          8.4130    1.2460   -0.6610 C.2     1  UNL1        0.0040
     10  C          7.0480   -0.6290   -2.0790 C.2     1  UNL1        0.0000
     11  C          9.0570    0.5680   -1.6540 C.2     1  UNL1        0.0000
     12  C          8.3730   -0.3840   -2.3790 C.2     1  UNL1        0.0000
@<TRIPOS>BOND
     1    12    10    2
     2    12    11    1
     3    10     8    1
     4    11     9    2
     5     8     7    2
     6     9     7    1
     7     7     6    1
     8     1     6    1
     9     1     2    1
    10     2     4    1
    11     2     3    2
    12     4     5    1
