MODEL 1
REMARK VINA RESULT:      -6.9      0.000      0.000
REMARK SMILES O=C(O)CCc1ccccc1
REMARK SMILES IDX 4 1 2 2 1 3 3 4 5 6 6 7 7 8 11 9 8 10 10 11 9 12
REMARK H PARENT 3 5
REMARK Flexibility Score: inf
ROOT
ATOM      1  C   UNL     1       8.510  -0.415  -2.138  1.00  0.00     0.127 C 
ENDROOT
BRANCH   1   2
ATOM      2  C   UNL     1       8.683  -1.751  -2.755  1.00  0.00     0.303 C 
ATOM      3  O   UNL     1       9.789  -2.313  -2.753  1.00  0.00    -0.252 OA
BRANCH   2   4
ATOM      4  O   UNL     1       7.600  -2.377  -3.340  1.00  0.00    -0.481 OA
ATOM      5  H   UNL     1       7.598  -2.662  -4.316  1.00  0.00     0.296 HD
ENDBRANCH   2   4
ENDBRANCH   1   2
BRANCH   1   6
ATOM      6  C   UNL     1       7.053  -0.026  -2.115  1.00  0.00     0.047 C 
BRANCH   6   7
ATOM      7  C   UNL     1       6.506   0.062  -0.747  1.00  0.00    -0.047 A 
ATOM      8  C   UNL     1       6.604  -0.935   0.189  1.00  0.00     0.004 A 
ATOM      9  C   UNL     1       5.855   1.220  -0.395  1.00  0.00     0.004 A 
ATOM     10  C   UNL     1       6.060  -0.768   1.448  1.00  0.00     0.000 A 
ATOM     11  C   UNL     1       5.311   1.405   0.842  1.00  0.00     0.000 A 
ATOM     12  C   UNL     1       5.410   0.403   1.784  1.00  0.00     0.000 A 
ENDBRANCH   6   7
ENDBRANCH   1   6
TORSDOF 4
ENDMDL
MODEL 2
REMARK VINA RESULT:      -6.9      0.075      1.428
REMARK SMILES O=C(O)CCc1ccccc1
REMARK SMILES IDX 4 1 2 2 1 3 3 4 5 6 6 7 7 8 11 9 8 10 10 11 9 12
REMARK H PARENT 3 5
REMARK Flexibility Score: inf
ROOT
ATOM      1  C   UNL     1       8.487  -0.487  -2.066  1.00  0.00     0.127 C 
ENDROOT
BRANCH   1   2
ATOM      2  C   UNL     1       8.663  -1.784  -2.761  1.00  0.00     0.303 C 
ATOM      3  O   UNL     1       9.775  -2.333  -2.810  1.00  0.00    -0.252 OA
BRANCH   2   4
ATOM      4  O   UNL     1       7.576  -2.389  -3.363  1.00  0.00    -0.481 OA
ATOM      5  H   UNL     1       7.678  -3.147  -4.031  1.00  0.00     0.296 HD
ENDBRANCH   2   4
ENDBRANCH   1   2
BRANCH   1   6
ATOM      6  C   UNL     1       7.046  -0.046  -2.124  1.00  0.00     0.047 C 
BRANCH   6   7
ATOM      7  C   UNL     1       6.458   0.168  -0.788  1.00  0.00    -0.047 A 
ATOM      8  C   UNL     1       5.795   1.307  -0.409  1.00  0.00     0.004 A 
ATOM      9  C   UNL     1       6.587  -0.843   0.134  1.00  0.00     0.004 A 
ATOM     10  C   UNL     1       5.276   1.423   0.866  1.00  0.00     0.000 A 
ATOM     11  C   UNL     1       6.083  -0.749   1.398  1.00  0.00     0.000 A 
ATOM     12  C   UNL     1       5.415   0.396   1.778  1.00  0.00     0.000 A 
ENDBRANCH   6   7
ENDBRANCH   1   6
TORSDOF 4
ENDMDL
MODEL 3
REMARK VINA RESULT:      -6.7      3.764      4.898
REMARK SMILES O=C(O)CCc1ccccc1
REMARK SMILES IDX 4 1 2 2 1 3 3 4 5 6 6 7 7 8 11 9 8 10 10 11 9 12
REMARK H PARENT 3 5
REMARK Flexibility Score: inf
ROOT
ATOM      1  C   UNL     1       5.487   2.906  -0.031  1.00  0.00     0.127 C 
ENDROOT
BRANCH   1   2
ATOM      2  C   UNL     1       6.255   3.882   0.778  1.00  0.00     0.303 C 
ATOM      3  O   UNL     1       6.927   4.770   0.232  1.00  0.00    -0.252 OA
BRANCH   2   4
ATOM      4  O   UNL     1       6.221   3.801   2.157  1.00  0.00    -0.481 OA
ATOM      5  H   UNL     1       5.613   3.152   2.648  1.00  0.00     0.296 HD
ENDBRANCH   2   4
ENDBRANCH   1   2
BRANCH   1   6
ATOM      6  C   UNL     1       4.899   1.832   0.851  1.00  0.00     0.047 C 
BRANCH   6   7
ATOM      7  C   UNL     1       5.707   0.597   0.865  1.00  0.00    -0.047 A 
ATOM      8  C   UNL     1       6.387   0.107  -0.220  1.00  0.00     0.004 A 
ATOM      9  C   UNL     1       5.777  -0.104   2.046  1.00  0.00     0.004 A 
ATOM     10  C   UNL     1       7.119  -1.060  -0.116  1.00  0.00     0.000 A 
ATOM     11  C   UNL     1       6.494  -1.257   2.168  1.00  0.00     0.000 A 
ATOM     12  C   UNL     1       7.178  -1.751   1.078  1.00  0.00     0.000 A 
ENDBRANCH   6   7
ENDBRANCH   1   6
TORSDOF 4
ENDMDL
MODEL 4
REMARK VINA RESULT:      -6.6      3.379      5.043
REMARK SMILES O=C(O)CCc1ccccc1
REMARK SMILES IDX 4 1 2 2 1 3 3 4 5 6 6 7 7 8 11 9 8 10 10 11 9 12
REMARK H PARENT 3 5
REMARK Flexibility Score: inf
ROOT
ATOM      1  C   UNL     1       4.995   1.791   0.735  1.00  0.00     0.127 C 
ENDROOT
BRANCH   1   2
ATOM      2  C   UNL     1       4.473   1.098   1.936  1.00  0.00     0.303 C 
ATOM      3  O   UNL     1       5.122   0.190   2.478  1.00  0.00    -0.252 OA
BRANCH   2   4
ATOM      4  O   UNL     1       3.247   1.465   2.457  1.00  0.00    -0.481 OA
ATOM      5  H   UNL     1       3.071   1.502   3.457  1.00  0.00     0.296 HD
ENDBRANCH   2   4
ENDBRANCH   1   2
BRANCH   1   6
ATOM      6  C   UNL     1       6.503   1.809   0.747  1.00  0.00     0.047 C 
BRANCH   6   7
ATOM      7  C   UNL     1       7.094   1.017  -0.348  1.00  0.00    -0.047 A 
ATOM      8  C   UNL     1       6.414   0.068  -1.068  1.00  0.00     0.004 A 
ATOM      9  C   UNL     1       8.413   1.246  -0.661  1.00  0.00     0.004 A 
ATOM     10  C   UNL     1       7.048  -0.629  -2.079  1.00  0.00     0.000 A 
ATOM     11  C   UNL     1       9.057   0.568  -1.654  1.00  0.00     0.000 A 
ATOM     12  C   UNL     1       8.373  -0.384  -2.379  1.00  0.00     0.000 A 
ENDBRANCH   6   7
ENDBRANCH   1   6
TORSDOF 4
ENDMDL
MODEL 5
REMARK VINA RESULT:      -6.6      1.386      2.283
REMARK SMILES O=C(O)CCc1ccccc1
REMARK SMILES IDX 4 1 2 2 1 3 3 4 5 6 6 7 7 8 11 9 8 10 10 11 9 12
REMARK H PARENT 3 5
REMARK Flexibility Score: inf
ROOT
ATOM      1  C   UNL     1       8.398   0.292  -2.182  1.00  0.00     0.127 C 
ENDROOT
BRANCH   1   2
ATOM      2  C   UNL     1       9.607  -0.076  -1.407  1.00  0.00     0.303 C 
ATOM      3  O   UNL     1       9.815  -1.253  -1.075  1.00  0.00    -0.252 OA
BRANCH   2   4
ATOM      4  O   UNL     1      10.513   0.904  -1.050  1.00  0.00    -0.481 OA
ATOM      5  H   UNL     1      11.268   0.732  -0.392  1.00  0.00     0.296 HD
ENDBRANCH   2   4
ENDBRANCH   1   2
BRANCH   1   6
ATOM      6  C   UNL     1       7.232  -0.580  -1.790  1.00  0.00     0.047 C 
BRANCH   6   7
ATOM      7  C   UNL     1       6.520  -0.082  -0.597  1.00  0.00    -0.047 A 
ATOM      8  C   UNL     1       5.898   1.137  -0.522  1.00  0.00     0.004 A 
ATOM      9  C   UNL     1       6.484  -0.897   0.510  1.00  0.00     0.004 A 
ATOM     10  C   UNL     1       5.255   1.524   0.638  1.00  0.00     0.000 A 
ATOM     11  C   UNL     1       5.855  -0.534   1.664  1.00  0.00     0.000 A 
ATOM     12  C   UNL     1       5.228   0.692   1.739  1.00  0.00     0.000 A 
ENDBRANCH   6   7
ENDBRANCH   1   6
TORSDOF 4
ENDMDL
