@<TRIPOS>MOLECULE
/home/cewinharhar/GITHUB/reincatalyze/data/processed/docking_pred/2023-Apr-25-1630_maxeplen5_maxtrainstep200_exh32_gamma099_lrac3e-4_lrcr1e-3/43f74fb3996e866f8c2ebaeff785616509de483e_ligand_2.pdbqt
 12 12 0 0 0
SMALL
GASTEIGER

@<TRIPOS>ATOM
      1  C          8.5100   -0.4150   -2.1380 C.3     1  UNL1        0.1270
      2  C          8.6830   -1.7510   -2.7550 C.2     1  UNL1        0.3030
      3  O          9.7890   -2.3130   -2.7530 O.2     1  UNL1       -0.2520
      4  O          7.6000   -2.3770   -3.3400 O.3     1  UNL1       -0.4810
      5  H          7.5980   -2.6620   -4.3160 H       1  UNL1        0.2960
      6  C          7.0530   -0.0260   -2.1150 C.3     1  UNL1        0.0470
      7  C          6.5060    0.0620   -0.7470 C.2     1  UNL1       -0.0470
      8  C          6.6040   -0.9350    0.1890 C.2     1  UNL1        0.0040
      9  C          5.8550    1.2200   -0.3950 C.2     1  UNL1        0.0040
     10  C          6.0600   -0.7680    1.4480 C.2     1  UNL1        0.0000
     11  C          5.3110    1.4050    0.8420 C.2     1  UNL1        0.0000
     12  C          5.4100    0.4030    1.7840 C.2     1  UNL1        0.0000
@<TRIPOS>BOND
     1     5     4    1
     2     4     2    1
     3     2     3    2
     4     2     1    1
     5     1     6    1
     6     6     7    1
     7     7     9    2
     8     7     8    1
     9     9    11    1
    10     8    10    2
    11    11    12    2
    12    10    12    1
