@<TRIPOS>MOLECULE
/home/cewinharhar/GITHUB/reincatalyze/data/processed/docking_pred/2023-Apr-25-1630_maxeplen5_maxtrainstep200_exh32_gamma099_lrac3e-4_lrcr1e-3/43f74fb3996e866f8c2ebaeff785616509de483e_ligand_2.pdbqt
 12 12 0 0 0
SMALL
GASTEIGER

@<TRIPOS>ATOM
      1  C          8.3980    0.2920   -2.1820 C.3     1  UNL1        0.1270
      2  C          9.6070   -0.0760   -1.4070 C.2     1  UNL1        0.3030
      3  O          9.8150   -1.2530   -1.0750 O.2     1  UNL1       -0.2520
      4  O         10.5130    0.9040   -1.0500 O.3     1  UNL1       -0.4810
      5  H         11.2680    0.7320   -0.3920 H       1  UNL1        0.2960
      6  C          7.2320   -0.5800   -1.7900 C.3     1  UNL1        0.0470
      7  C          6.5200   -0.0820   -0.5970 C.2     1  UNL1       -0.0470
      8  C          5.8980    1.1370   -0.5220 C.2     1  UNL1        0.0040
      9  C          6.4840   -0.8970    0.5100 C.2     1  UNL1        0.0040
     10  C          5.2550    1.5240    0.6380 C.2     1  UNL1        0.0000
     11  C          5.8550   -0.5340    1.6640 C.2     1  UNL1        0.0000
     12  C          5.2280    0.6920    1.7390 C.2     1  UNL1        0.0000
@<TRIPOS>BOND
     1     1     6    1
     2     1     2    1
     3     6     7    1
     4     2     3    2
     5     2     4    1
     6     4     5    1
     7     7     8    2
     8     7     9    1
     9     8    10    1
    10     9    11    2
    11    10    12    2
    12    11    12    1
