@<TRIPOS>MOLECULE
/home/cewinharhar/GITHUB/reincatalyze/data/processed/docking_pred/2023-Apr-25-1630_maxeplen5_maxtrainstep200_exh32_gamma099_lrac3e-4_lrcr1e-3/43f74fb3996e866f8c2ebaeff785616509de483e_ligand_2.pdbqt
 12 12 0 0 0
SMALL
GASTEIGER

@<TRIPOS>ATOM
      1  C          8.4870   -0.4870   -2.0660 C.3     1  UNL1        0.1270
      2  C          8.6630   -1.7840   -2.7610 C.2     1  UNL1        0.3030
      3  O          9.7750   -2.3330   -2.8100 O.2     1  UNL1       -0.2520
      4  O          7.5760   -2.3890   -3.3630 O.3     1  UNL1       -0.4810
      5  H          7.6780   -3.1470   -4.0310 H       1  UNL1        0.2960
      6  C          7.0460   -0.0460   -2.1240 C.3     1  UNL1        0.0470
      7  C          6.4580    0.1680   -0.7880 C.2     1  UNL1       -0.0470
      8  C          5.7950    1.3070   -0.4090 C.2     1  UNL1        0.0040
      9  C          6.5870   -0.8430    0.1340 C.2     1  UNL1        0.0040
     10  C          5.2760    1.4230    0.8660 C.2     1  UNL1        0.0000
     11  C          6.0830   -0.7490    1.3980 C.2     1  UNL1        0.0000
     12  C          5.4150    0.3960    1.7780 C.2     1  UNL1        0.0000
@<TRIPOS>BOND
     1     5     4    1
     2     4     2    1
     3     3     2    2
     4     2     1    1
     5     6     1    1
     6     6     7    1
     7     7     8    2
     8     7     9    1
     9     8    10    1
    10     9    11    2
    11    10    12    2
    12    11    12    1
