@<TRIPOS>MOLECULE
/home/cewinharhar/GITHUB/reincatalyze/data/processed/docking_pred/2023-Apr-25-1630_maxeplen5_maxtrainstep200_exh32_gamma099_lrac3e-4_lrcr1e-3/43f74fb3996e866f8c2ebaeff785616509de483e_ligand_2.pdbqt
 12 12 0 0 0
SMALL
GASTEIGER

@<TRIPOS>ATOM
      1  C          5.4870    2.9060   -0.0310 C.3     1  UNL1        0.1270
      2  C          6.2550    3.8820    0.7780 C.2     1  UNL1        0.3030
      3  O          6.9270    4.7700    0.2320 O.2     1  UNL1       -0.2520
      4  O          6.2210    3.8010    2.1570 O.3     1  UNL1       -0.4810
      5  H          5.6130    3.1520    2.6480 H       1  UNL1        0.2960
      6  C          4.8990    1.8320    0.8510 C.3     1  UNL1        0.0470
      7  C          5.7070    0.5970    0.8650 C.2     1  UNL1       -0.0470
      8  C          6.3870    0.1070   -0.2200 C.2     1  UNL1        0.0040
      9  C          5.7770   -0.1040    2.0460 C.2     1  UNL1        0.0040
     10  C          7.1190   -1.0600   -0.1160 C.2     1  UNL1        0.0000
     11  C          6.4940   -1.2570    2.1680 C.2     1  UNL1        0.0000
     12  C          7.1780   -1.7510    1.0780 C.2     1  UNL1        0.0000
@<TRIPOS>BOND
     1     8    10    1
     2     8     7    2
     3    10    12    2
     4     1     2    1
     5     1     6    1
     6     3     2    2
     7     2     4    1
     8     6     7    1
     9     7     9    1
    10    12    11    1
    11     9    11    2
    12     4     5    1
