MODEL 1
REMARK VINA RESULT:      -7.3      0.000      0.000
REMARK SMILES O=C(O)CCc1ccccc1
REMARK SMILES IDX 4 1 2 2 1 3 3 4 5 6 6 7 7 8 11 9 8 10 10 11 9 12
REMARK H PARENT 3 5
REMARK Flexibility Score: inf
ROOT
ATOM      1  C   UNL     1       8.434  -0.569  -2.237  1.00  0.00     0.127 C 
ENDROOT
BRANCH   1   2
ATOM      2  C   UNL     1       8.494  -1.872  -2.940  1.00  0.00     0.303 C 
ATOM      3  O   UNL     1       9.575  -2.462  -3.094  1.00  0.00    -0.252 OA
BRANCH   2   4
ATOM      4  O   UNL     1       7.332  -2.438  -3.429  1.00  0.00    -0.481 OA
ATOM      5  H   UNL     1       6.678  -2.936  -2.832  1.00  0.00     0.296 HD
ENDBRANCH   2   4
ENDBRANCH   1   2
BRANCH   1   6
ATOM      6  C   UNL     1       7.015  -0.060  -2.185  1.00  0.00     0.047 C 
BRANCH   6   7
ATOM      7  C   UNL     1       6.496   0.047  -0.807  1.00  0.00    -0.047 A 
ATOM      8  C   UNL     1       6.613  -0.937   0.140  1.00  0.00     0.004 A 
ATOM      9  C   UNL     1       5.854   1.211  -0.458  1.00  0.00     0.004 A 
ATOM     10  C   UNL     1       6.095  -0.752   1.408  1.00  0.00     0.000 A 
ATOM     11  C   UNL     1       5.335   1.413   0.788  1.00  0.00     0.000 A 
ATOM     12  C   UNL     1       5.453   0.424   1.741  1.00  0.00     0.000 A 
ENDBRANCH   6   7
ENDBRANCH   1   6
TORSDOF 4
ENDMDL
MODEL 2
REMARK VINA RESULT:      -7.3      0.107      1.429
REMARK SMILES O=C(O)CCc1ccccc1
REMARK SMILES IDX 4 1 2 2 1 3 3 4 5 6 6 7 7 8 11 9 8 10 10 11 9 12
REMARK H PARENT 3 5
REMARK Flexibility Score: inf
ROOT
ATOM      1  C   UNL     1       8.414  -0.585  -2.200  1.00  0.00     0.127 C 
ENDROOT
BRANCH   1   2
ATOM      2  C   UNL     1       8.498  -1.876  -2.923  1.00  0.00     0.303 C 
ATOM      3  O   UNL     1       9.587  -2.455  -3.064  1.00  0.00    -0.252 OA
BRANCH   2   4
ATOM      4  O   UNL     1       7.351  -2.441  -3.446  1.00  0.00    -0.481 OA
ATOM      5  H   UNL     1       7.062  -2.292  -4.408  1.00  0.00     0.296 HD
ENDBRANCH   2   4
ENDBRANCH   1   2
BRANCH   1   6
ATOM      6  C   UNL     1       6.994  -0.076  -2.188  1.00  0.00     0.047 C 
BRANCH   6   7
ATOM      7  C   UNL     1       6.457   0.093  -0.824  1.00  0.00    -0.047 A 
ATOM      8  C   UNL     1       5.823   1.225  -0.379  1.00  0.00     0.004 A 
ATOM      9  C   UNL     1       6.607  -0.954   0.054  1.00  0.00     0.004 A 
ATOM     10  C   UNL     1       5.352   1.297   0.918  1.00  0.00     0.000 A 
ATOM     11  C   UNL     1       6.150  -0.902   1.337  1.00  0.00     0.000 A 
ATOM     12  C   UNL     1       5.511   0.235   1.785  1.00  0.00     0.000 A 
ENDBRANCH   6   7
ENDBRANCH   1   6
TORSDOF 4
ENDMDL
MODEL 3
REMARK VINA RESULT:      -6.8      3.376      5.063
REMARK SMILES O=C(O)CCc1ccccc1
REMARK SMILES IDX 4 1 2 2 1 3 3 4 5 6 6 7 7 8 11 9 8 10 10 11 9 12
REMARK H PARENT 3 5
REMARK Flexibility Score: inf
ROOT
ATOM      1  C   UNL     1       4.992   1.793   0.722  1.00  0.00     0.127 C 
ENDROOT
BRANCH   1   2
ATOM      2  C   UNL     1       4.479   1.100   1.928  1.00  0.00     0.303 C 
ATOM      3  O   UNL     1       5.136   0.196   2.469  1.00  0.00    -0.252 OA
BRANCH   2   4
ATOM      4  O   UNL     1       3.255   1.464   2.456  1.00  0.00    -0.481 OA
ATOM      5  H   UNL     1       2.539   1.922   1.900  1.00  0.00     0.296 HD
ENDBRANCH   2   4
ENDBRANCH   1   2
BRANCH   1   6
ATOM      6  C   UNL     1       6.500   1.825   0.730  1.00  0.00     0.047 C 
BRANCH   6   7
ATOM      7  C   UNL     1       7.095   1.023  -0.355  1.00  0.00    -0.047 A 
ATOM      8  C   UNL     1       6.410   0.093  -1.093  1.00  0.00     0.004 A 
ATOM      9  C   UNL     1       8.425   1.223  -0.639  1.00  0.00     0.004 A 
ATOM     10  C   UNL     1       7.049  -0.616  -2.092  1.00  0.00     0.000 A 
ATOM     11  C   UNL     1       9.075   0.534  -1.620  1.00  0.00     0.000 A 
ATOM     12  C   UNL     1       8.385  -0.401  -2.363  1.00  0.00     0.000 A 
ENDBRANCH   6   7
ENDBRANCH   1   6
TORSDOF 4
ENDMDL
MODEL 4
REMARK VINA RESULT:      -6.8      3.377      5.066
REMARK SMILES O=C(O)CCc1ccccc1
REMARK SMILES IDX 4 1 2 2 1 3 3 4 5 6 6 7 7 8 11 9 8 10 10 11 9 12
REMARK H PARENT 3 5
REMARK Flexibility Score: inf
ROOT
ATOM      1  C   UNL     1       4.978   1.781   0.700  1.00  0.00     0.127 C 
ENDROOT
BRANCH   1   2
ATOM      2  C   UNL     1       4.483   1.096   1.917  1.00  0.00     0.303 C 
ATOM      3  O   UNL     1       5.151   0.202   2.460  1.00  0.00    -0.252 OA
BRANCH   2   4
ATOM      4  O   UNL     1       3.263   1.458   2.455  1.00  0.00    -0.481 OA
ATOM      5  H   UNL     1       3.178   1.882   3.374  1.00  0.00     0.296 HD
ENDBRANCH   2   4
ENDBRANCH   1   2
BRANCH   1   6
ATOM      6  C   UNL     1       6.479   1.919   0.743  1.00  0.00     0.047 C 
BRANCH   6   7
ATOM      7  C   UNL     1       7.156   1.152  -0.321  1.00  0.00    -0.047 A 
ATOM      8  C   UNL     1       8.497   1.229  -0.594  1.00  0.00     0.004 A 
ATOM      9  C   UNL     1       6.386   0.309  -1.086  1.00  0.00     0.004 A 
ATOM     10  C   UNL     1       9.048   0.474  -1.611  1.00  0.00     0.000 A 
ATOM     11  C   UNL     1       6.910  -0.444  -2.095  1.00  0.00     0.000 A 
ATOM     12  C   UNL     1       8.259  -0.368  -2.369  1.00  0.00     0.000 A 
ENDBRANCH   6   7
ENDBRANCH   1   6
TORSDOF 4
ENDMDL
MODEL 5
REMARK VINA RESULT:      -6.7      1.008      1.965
REMARK SMILES O=C(O)CCc1ccccc1
REMARK SMILES IDX 4 1 2 2 1 3 3 4 5 6 6 7 7 8 11 9 8 10 10 11 9 12
REMARK H PARENT 3 5
REMARK Flexibility Score: inf
ROOT
ATOM      1  C   UNL     1       7.325  -1.476  -2.056  1.00  0.00     0.127 C 
ENDROOT
BRANCH   1   2
ATOM      2  C   UNL     1       8.745  -1.453  -2.480  1.00  0.00     0.303 C 
ATOM      3  O   UNL     1       9.222  -2.380  -3.153  1.00  0.00    -0.252 OA
BRANCH   2   4
ATOM      4  O   UNL     1       9.547  -0.386  -2.123  1.00  0.00    -0.481 OA
ATOM      5  H   UNL     1       9.250   0.316  -1.451  1.00  0.00     0.296 HD
ENDBRANCH   2   4
ENDBRANCH   1   2
BRANCH   1   6
ATOM      6  C   UNL     1       7.221  -1.445  -0.551  1.00  0.00     0.047 C 
BRANCH   6   7
ATOM      7  C   UNL     1       6.437  -0.299  -0.054  1.00  0.00    -0.047 A 
ATOM      8  C   UNL     1       6.196   0.842  -0.776  1.00  0.00     0.004 A 
ATOM      9  C   UNL     1       5.918  -0.384   1.216  1.00  0.00     0.004 A 
ATOM     10  C   UNL     1       5.450   1.870  -0.230  1.00  0.00     0.000 A 
ATOM     11  C   UNL     1       5.180   0.619   1.772  1.00  0.00     0.000 A 
ATOM     12  C   UNL     1       4.937   1.766   1.047  1.00  0.00     0.000 A 
ENDBRANCH   6   7
ENDBRANCH   1   6
TORSDOF 4
ENDMDL
