@<TRIPOS>MOLECULE
/home/cewinharhar/GITHUB/reincatalyze/data/processed/docking_pred/2023-Apr-25-1630_maxeplen5_maxtrainstep200_exh32_gamma099_lrac3e-4_lrcr1e-3/44bf36be1ccee3462d679cf400989bbed31f99fd_ligand_2.pdbqt
 12 12 0 0 0
SMALL
GASTEIGER

@<TRIPOS>ATOM
      1  C          4.9920    1.7930    0.7220 C.3     1  UNL1        0.1270
      2  C          4.4790    1.1000    1.9280 C.2     1  UNL1        0.3030
      3  O          5.1360    0.1960    2.4690 O.2     1  UNL1       -0.2520
      4  O          3.2550    1.4640    2.4560 O.3     1  UNL1       -0.4810
      5  H          2.5390    1.9220    1.9000 H       1  UNL1        0.2960
      6  C          6.5000    1.8250    0.7300 C.3     1  UNL1        0.0470
      7  C          7.0950    1.0230   -0.3550 C.2     1  UNL1       -0.0470
      8  C          6.4100    0.0930   -1.0930 C.2     1  UNL1        0.0040
      9  C          8.4250    1.2230   -0.6390 C.2     1  UNL1        0.0040
     10  C          7.0490   -0.6160   -2.0920 C.2     1  UNL1        0.0000
     11  C          9.0750    0.5340   -1.6200 C.2     1  UNL1        0.0000
     12  C          8.3850   -0.4010   -2.3630 C.2     1  UNL1        0.0000
@<TRIPOS>BOND
     1    12    10    2
     2    12    11    1
     3    10     8    1
     4    11     9    2
     5     8     7    2
     6     9     7    1
     7     7     6    1
     8     1     6    1
     9     1     2    1
    10     5     4    1
    11     2     4    1
    12     2     3    2
