@<TRIPOS>MOLECULE
/home/cewinharhar/GITHUB/reincatalyze/data/processed/docking_pred/2023-Apr-25-1630_maxeplen5_maxtrainstep200_exh32_gamma099_lrac3e-4_lrcr1e-3/44bf36be1ccee3462d679cf400989bbed31f99fd_ligand_2.pdbqt
 12 12 0 0 0
SMALL
GASTEIGER

@<TRIPOS>ATOM
      1  C          7.3250   -1.4760   -2.0560 C.3     1  UNL1        0.1270
      2  C          8.7450   -1.4530   -2.4800 C.2     1  UNL1        0.3030
      3  O          9.2220   -2.3800   -3.1530 O.2     1  UNL1       -0.2520
      4  O          9.5470   -0.3860   -2.1230 O.3     1  UNL1       -0.4810
      5  H          9.2500    0.3160   -1.4510 H       1  UNL1        0.2960
      6  C          7.2210   -1.4450   -0.5510 C.3     1  UNL1        0.0470
      7  C          6.4370   -0.2990   -0.0540 C.2     1  UNL1       -0.0470
      8  C          6.1960    0.8420   -0.7760 C.2     1  UNL1        0.0040
      9  C          5.9180   -0.3840    1.2160 C.2     1  UNL1        0.0040
     10  C          5.4500    1.8700   -0.2300 C.2     1  UNL1        0.0000
     11  C          5.1800    0.6190    1.7720 C.2     1  UNL1        0.0000
     12  C          4.9370    1.7660    1.0470 C.2     1  UNL1        0.0000
@<TRIPOS>BOND
     1     3     2    2
     2     2     4    1
     3     2     1    1
     4     4     5    1
     5     1     6    1
     6     8    10    1
     7     8     7    2
     8     6     7    1
     9    10    12    2
    10     7     9    1
    11    12    11    1
    12     9    11    2
