@<TRIPOS>MOLECULE
/home/cewinharhar/GITHUB/reincatalyze/data/processed/docking_pred/2023-Apr-25-1630_maxeplen5_maxtrainstep200_exh32_gamma099_lrac3e-4_lrcr1e-3/44bf36be1ccee3462d679cf400989bbed31f99fd_ligand_2.pdbqt
 12 12 0 0 0
SMALL
GASTEIGER

@<TRIPOS>ATOM
      1  C          8.4140   -0.5850   -2.2000 C.3     1  UNL1        0.1270
      2  C          8.4980   -1.8760   -2.9230 C.2     1  UNL1        0.3030
      3  O          9.5870   -2.4550   -3.0640 O.2     1  UNL1       -0.2520
      4  O          7.3510   -2.4410   -3.4460 O.3     1  UNL1       -0.4810
      5  H          7.0620   -2.2920   -4.4080 H       1  UNL1        0.2960
      6  C          6.9940   -0.0760   -2.1880 C.3     1  UNL1        0.0470
      7  C          6.4570    0.0930   -0.8240 C.2     1  UNL1       -0.0470
      8  C          5.8230    1.2250   -0.3790 C.2     1  UNL1        0.0040
      9  C          6.6070   -0.9540    0.0540 C.2     1  UNL1        0.0040
     10  C          5.3520    1.2970    0.9180 C.2     1  UNL1        0.0000
     11  C          6.1500   -0.9020    1.3370 C.2     1  UNL1        0.0000
     12  C          5.5110    0.2350    1.7850 C.2     1  UNL1        0.0000
@<TRIPOS>BOND
     1     5     4    1
     2     4     2    1
     3     3     2    2
     4     2     1    1
     5     1     6    1
     6     6     7    1
     7     7     8    2
     8     7     9    1
     9     8    10    1
    10     9    11    2
    11    10    12    2
    12    11    12    1
