@<TRIPOS>MOLECULE
/home/cewinharhar/GITHUB/reincatalyze/data/processed/docking_pred/2023-Apr-25-1630_maxeplen5_maxtrainstep200_exh32_gamma099_lrac3e-4_lrcr1e-3/44bf36be1ccee3462d679cf400989bbed31f99fd_ligand_2.pdbqt
 12 12 0 0 0
SMALL
GASTEIGER

@<TRIPOS>ATOM
      1  C          4.9780    1.7810    0.7000 C.3     1  UNL1        0.1270
      2  C          4.4830    1.0960    1.9170 C.2     1  UNL1        0.3030
      3  O          5.1510    0.2020    2.4600 O.2     1  UNL1       -0.2520
      4  O          3.2630    1.4580    2.4550 O.3     1  UNL1       -0.4810
      5  H          3.1780    1.8820    3.3740 H       1  UNL1        0.2960
      6  C          6.4790    1.9190    0.7430 C.3     1  UNL1        0.0470
      7  C          7.1560    1.1520   -0.3210 C.2     1  UNL1       -0.0470
      8  C          8.4970    1.2290   -0.5940 C.2     1  UNL1        0.0040
      9  C          6.3860    0.3090   -1.0860 C.2     1  UNL1        0.0040
     10  C          9.0480    0.4740   -1.6110 C.2     1  UNL1        0.0000
     11  C          6.9100   -0.4440   -2.0950 C.2     1  UNL1        0.0000
     12  C          8.2590   -0.3680   -2.3690 C.2     1  UNL1        0.0000
@<TRIPOS>BOND
     1    12    11    2
     2    12    10    1
     3    11     9    1
     4    10     8    2
     5     9     7    2
     6     8     7    1
     7     7     6    1
     8     1     6    1
     9     1     2    1
    10     2     4    1
    11     2     3    2
    12     4     5    1
