@<TRIPOS>MOLECULE
/home/cewinharhar/GITHUB/reincatalyze/data/processed/docking_pred/2023-Apr-25-1630_maxeplen5_maxtrainstep200_exh32_gamma099_lrac3e-4_lrcr1e-3/44bf36be1ccee3462d679cf400989bbed31f99fd_ligand_2.pdbqt
 12 12 0 0 0
SMALL
GASTEIGER

@<TRIPOS>ATOM
      1  C          8.4340   -0.5690   -2.2370 C.3     1  UNL1        0.1270
      2  C          8.4940   -1.8720   -2.9400 C.2     1  UNL1        0.3030
      3  O          9.5750   -2.4620   -3.0940 O.2     1  UNL1       -0.2520
      4  O          7.3320   -2.4380   -3.4290 O.3     1  UNL1       -0.4810
      5  H          6.6780   -2.9360   -2.8320 H       1  UNL1        0.2960
      6  C          7.0150   -0.0600   -2.1850 C.3     1  UNL1        0.0470
      7  C          6.4960    0.0470   -0.8070 C.2     1  UNL1       -0.0470
      8  C          6.6130   -0.9370    0.1400 C.2     1  UNL1        0.0040
      9  C          5.8540    1.2110   -0.4580 C.2     1  UNL1        0.0040
     10  C          6.0950   -0.7520    1.4080 C.2     1  UNL1        0.0000
     11  C          5.3350    1.4130    0.7880 C.2     1  UNL1        0.0000
     12  C          5.4530    0.4240    1.7410 C.2     1  UNL1        0.0000
@<TRIPOS>BOND
     1     4     2    1
     2     4     5    1
     3     3     2    2
     4     2     1    1
     5     1     6    1
     6     6     7    1
     7     7     9    2
     8     7     8    1
     9     9    11    1
    10     8    10    2
    11    11    12    2
    12    10    12    1
