@<TRIPOS>MOLECULE
/home/cewinharhar/GITHUB/reincatalyze/data/processed/docking_pred/2023-Apr-25-1630_maxeplen5_maxtrainstep200_exh32_gamma099_lrac3e-4_lrcr1e-3/46861e00ed193d15618049a480e2ca269f83ce14_ligand_2.pdbqt
 12 12 0 0 0
SMALL
GASTEIGER

@<TRIPOS>ATOM
      1  C          8.3170    0.3410   -1.9460 C.3     1  UNL1        0.1270
      2  C          9.4870    0.3930   -1.0370 C.2     1  UNL1        0.3030
      3  O          9.5620   -0.3620   -0.0560 O.2     1  UNL1       -0.2520
      4  O         10.5050    1.2920   -1.2870 O.3     1  UNL1       -0.4810
      5  H         10.3270    2.2360   -1.6170 H       1  UNL1        0.2960
      6  C          7.2340   -0.5360   -1.3670 C.3     1  UNL1        0.0470
      7  C          6.3990    0.1660   -0.3730 C.2     1  UNL1       -0.0470
      8  C          5.8130    1.3880   -0.5830 C.2     1  UNL1        0.0040
      9  C          6.2010   -0.4490    0.8400 C.2     1  UNL1        0.0040
     10  C          5.0460    1.9730    0.4060 C.2     1  UNL1        0.0000
     11  C          5.4480    0.1120    1.8290 C.2     1  UNL1        0.0000
     12  C          4.8570    1.3400    1.6190 C.2     1  UNL1        0.0000
@<TRIPOS>BOND
     1     1     6    1
     2     1     2    1
     3     5     4    1
     4     6     7    1
     5     4     2    1
     6     2     3    2
     7     8     7    2
     8     8    10    1
     9     7     9    1
    10    10    12    2
    11     9    11    2
    12    12    11    1
