MODEL 1
REMARK VINA RESULT:      -7.3      0.000      0.000
REMARK SMILES O=C(O)CCc1ccccc1
REMARK SMILES IDX 4 1 2 2 1 3 3 4 5 6 6 7 7 8 11 9 8 10 10 11 9 12
REMARK H PARENT 3 5
REMARK Flexibility Score: inf
ROOT
ATOM      1  C   UNL     1       8.401  -0.671  -2.100  1.00  0.00     0.127 C 
ENDROOT
BRANCH   1   2
ATOM      2  C   UNL     1       8.463  -1.922  -2.891  1.00  0.00     0.303 C 
ATOM      3  O   UNL     1       9.546  -2.493  -3.092  1.00  0.00    -0.252 OA
BRANCH   2   4
ATOM      4  O   UNL     1       7.301  -2.459  -3.411  1.00  0.00    -0.481 OA
ATOM      5  H   UNL     1       6.905  -3.331  -3.071  1.00  0.00     0.296 HD
ENDBRANCH   2   4
ENDBRANCH   1   2
BRANCH   1   6
ATOM      6  C   UNL     1       7.004  -0.101  -2.118  1.00  0.00     0.047 C 
BRANCH   6   7
ATOM      7  C   UNL     1       6.447   0.091  -0.765  1.00  0.00    -0.047 A 
ATOM      8  C   UNL     1       5.804   1.229  -0.349  1.00  0.00     0.004 A 
ATOM      9  C   UNL     1       6.584  -0.941   0.132  1.00  0.00     0.004 A 
ATOM     10  C   UNL     1       5.313   1.322   0.939  1.00  0.00     0.000 A 
ATOM     11  C   UNL     1       6.107  -0.868   1.408  1.00  0.00     0.000 A 
ATOM     12  C   UNL     1       5.460   0.275   1.827  1.00  0.00     0.000 A 
ENDBRANCH   6   7
ENDBRANCH   1   6
TORSDOF 4
ENDMDL
MODEL 2
REMARK VINA RESULT:      -7.3      0.095      1.429
REMARK SMILES O=C(O)CCc1ccccc1
REMARK SMILES IDX 4 1 2 2 1 3 3 4 5 6 6 7 7 8 11 9 8 10 10 11 9 12
REMARK H PARENT 3 5
REMARK Flexibility Score: inf
ROOT
ATOM      1  C   UNL     1       8.405  -0.554  -2.225  1.00  0.00     0.127 C 
ENDROOT
BRANCH   1   2
ATOM      2  C   UNL     1       8.466  -1.862  -2.920  1.00  0.00     0.303 C 
ATOM      3  O   UNL     1       9.550  -2.443  -3.085  1.00  0.00    -0.252 OA
BRANCH   2   4
ATOM      4  O   UNL     1       7.303  -2.440  -3.391  1.00  0.00    -0.481 OA
ATOM      5  H   UNL     1       6.723  -1.996  -4.098  1.00  0.00     0.296 HD
ENDBRANCH   2   4
ENDBRANCH   1   2
BRANCH   1   6
ATOM      6  C   UNL     1       6.983  -0.053  -2.163  1.00  0.00     0.047 C 
BRANCH   6   7
ATOM      7  C   UNL     1       6.470   0.043  -0.783  1.00  0.00    -0.047 A 
ATOM      8  C   UNL     1       6.581  -0.953   0.153  1.00  0.00     0.004 A 
ATOM      9  C   UNL     1       5.838   1.208  -0.418  1.00  0.00     0.004 A 
ATOM     10  C   UNL     1       6.070  -0.777   1.424  1.00  0.00     0.000 A 
ATOM     11  C   UNL     1       5.326   1.401   0.831  1.00  0.00     0.000 A 
ATOM     12  C   UNL     1       5.438   0.400   1.773  1.00  0.00     0.000 A 
ENDBRANCH   6   7
ENDBRANCH   1   6
TORSDOF 4
ENDMDL
MODEL 3
REMARK VINA RESULT:      -6.8      3.372      5.077
REMARK SMILES O=C(O)CCc1ccccc1
REMARK SMILES IDX 4 1 2 2 1 3 3 4 5 6 6 7 7 8 11 9 8 10 10 11 9 12
REMARK H PARENT 3 5
REMARK Flexibility Score: inf
ROOT
ATOM      1  C   UNL     1       5.000   1.793   0.686  1.00  0.00     0.127 C 
ENDROOT
BRANCH   1   2
ATOM      2  C   UNL     1       4.502   1.111   1.903  1.00  0.00     0.303 C 
ATOM      3  O   UNL     1       5.172   0.222   2.453  1.00  0.00    -0.252 OA
BRANCH   2   4
ATOM      4  O   UNL     1       3.277   1.468   2.433  1.00  0.00    -0.481 OA
ATOM      5  H   UNL     1       2.398   1.163   2.024  1.00  0.00     0.296 HD
ENDBRANCH   2   4
ENDBRANCH   1   2
BRANCH   1   6
ATOM      6  C   UNL     1       6.508   1.848   0.688  1.00  0.00     0.047 C 
BRANCH   6   7
ATOM      7  C   UNL     1       7.111   1.035  -0.385  1.00  0.00    -0.047 A 
ATOM      8  C   UNL     1       6.423   0.123  -1.144  1.00  0.00     0.004 A 
ATOM      9  C   UNL     1       8.452   1.205  -0.636  1.00  0.00     0.004 A 
ATOM     10  C   UNL     1       7.070  -0.597  -2.129  1.00  0.00     0.000 A 
ATOM     11  C   UNL     1       9.110   0.504  -1.603  1.00  0.00     0.000 A 
ATOM     12  C   UNL     1       8.417  -0.412  -2.366  1.00  0.00     0.000 A 
ENDBRANCH   6   7
ENDBRANCH   1   6
TORSDOF 4
ENDMDL
MODEL 4
REMARK VINA RESULT:      -6.6      2.011      2.323
REMARK SMILES O=C(O)CCc1ccccc1
REMARK SMILES IDX 4 1 2 2 1 3 3 4 5 6 6 7 7 8 11 9 8 10 10 11 9 12
REMARK H PARENT 3 5
REMARK Flexibility Score: inf
ROOT
ATOM      1  C   UNL     1       8.317   0.341  -1.946  1.00  0.00     0.127 C 
ENDROOT
BRANCH   1   2
ATOM      2  C   UNL     1       9.487   0.393  -1.037  1.00  0.00     0.303 C 
ATOM      3  O   UNL     1       9.562  -0.362  -0.056  1.00  0.00    -0.252 OA
BRANCH   2   4
ATOM      4  O   UNL     1      10.505   1.292  -1.287  1.00  0.00    -0.481 OA
ATOM      5  H   UNL     1      10.327   2.236  -1.617  1.00  0.00     0.296 HD
ENDBRANCH   2   4
ENDBRANCH   1   2
BRANCH   1   6
ATOM      6  C   UNL     1       7.234  -0.536  -1.367  1.00  0.00     0.047 C 
BRANCH   6   7
ATOM      7  C   UNL     1       6.399   0.166  -0.373  1.00  0.00    -0.047 A 
ATOM      8  C   UNL     1       5.813   1.388  -0.583  1.00  0.00     0.004 A 
ATOM      9  C   UNL     1       6.201  -0.449   0.840  1.00  0.00     0.004 A 
ATOM     10  C   UNL     1       5.046   1.973   0.406  1.00  0.00     0.000 A 
ATOM     11  C   UNL     1       5.448   0.112   1.829  1.00  0.00     0.000 A 
ATOM     12  C   UNL     1       4.857   1.340   1.619  1.00  0.00     0.000 A 
ENDBRANCH   6   7
ENDBRANCH   1   6
TORSDOF 4
ENDMDL
MODEL 5
REMARK VINA RESULT:      -6.6      1.890      2.823
REMARK SMILES O=C(O)CCc1ccccc1
REMARK SMILES IDX 4 1 2 2 1 3 3 4 5 6 6 7 7 8 11 9 8 10 10 11 9 12
REMARK H PARENT 3 5
REMARK Flexibility Score: inf
ROOT
ATOM      1  C   UNL     1       8.224  -1.619   1.101  1.00  0.00     0.127 C 
ENDROOT
BRANCH   1   2
ATOM      2  C   UNL     1       8.533  -2.843   0.326  1.00  0.00     0.303 C 
ATOM      3  O   UNL     1       9.174  -3.774   0.837  1.00  0.00    -0.252 OA
BRANCH   2   4
ATOM      4  O   UNL     1       8.102  -2.949  -0.983  1.00  0.00    -0.481 OA
ATOM      5  H   UNL     1       8.725  -3.213  -1.740  1.00  0.00     0.296 HD
ENDBRANCH   2   4
ENDBRANCH   1   2
BRANCH   1   6
ATOM      6  C   UNL     1       6.740  -1.508   1.347  1.00  0.00     0.047 C 
BRANCH   6   7
ATOM      7  C   UNL     1       6.171  -0.237   0.858  1.00  0.00    -0.047 A 
ATOM      8  C   UNL     1       5.393   0.602   1.613  1.00  0.00     0.004 A 
ATOM      9  C   UNL     1       6.442   0.124  -0.440  1.00  0.00     0.004 A 
ATOM     10  C   UNL     1       4.901   1.774   1.073  1.00  0.00     0.000 A 
ATOM     11  C   UNL     1       5.966   1.276  -0.993  1.00  0.00     0.000 A 
ATOM     12  C   UNL     1       5.184   2.120  -0.234  1.00  0.00     0.000 A 
ENDBRANCH   6   7
ENDBRANCH   1   6
TORSDOF 4
ENDMDL
