@<TRIPOS>MOLECULE
/home/cewinharhar/GITHUB/reincatalyze/data/processed/docking_pred/2023-Apr-25-1630_maxeplen5_maxtrainstep200_exh32_gamma099_lrac3e-4_lrcr1e-3/46861e00ed193d15618049a480e2ca269f83ce14_ligand_2.pdbqt
 12 12 0 0 0
SMALL
GASTEIGER

@<TRIPOS>ATOM
      1  C          8.2240   -1.6190    1.1010 C.3     1  UNL1        0.1270
      2  C          8.5330   -2.8430    0.3260 C.2     1  UNL1        0.3030
      3  O          9.1740   -3.7740    0.8370 O.2     1  UNL1       -0.2520
      4  O          8.1020   -2.9490   -0.9830 O.3     1  UNL1       -0.4810
      5  H          8.7250   -3.2130   -1.7400 H       1  UNL1        0.2960
      6  C          6.7400   -1.5080    1.3470 C.3     1  UNL1        0.0470
      7  C          6.1710   -0.2370    0.8580 C.2     1  UNL1       -0.0470
      8  C          5.3930    0.6020    1.6130 C.2     1  UNL1        0.0040
      9  C          6.4420    0.1240   -0.4400 C.2     1  UNL1        0.0040
     10  C          4.9010    1.7740    1.0730 C.2     1  UNL1        0.0000
     11  C          5.9660    1.2760   -0.9930 C.2     1  UNL1        0.0000
     12  C          5.1840    2.1200   -0.2340 C.2     1  UNL1        0.0000
@<TRIPOS>BOND
     1     5     4    1
     2    11     9    1
     3    11    12    2
     4     4     2    1
     5     9     7    2
     6    12    10    1
     7     2     3    2
     8     2     1    1
     9     7     6    1
    10     7     8    1
    11    10     8    2
    12     1     6    1
