@<TRIPOS>MOLECULE
/home/cewinharhar/GITHUB/reincatalyze/data/processed/docking_pred/2023-Apr-25-1630_maxeplen5_maxtrainstep200_exh32_gamma099_lrac3e-4_lrcr1e-3/46861e00ed193d15618049a480e2ca269f83ce14_ligand_2.pdbqt
 12 12 0 0 0
SMALL
GASTEIGER

@<TRIPOS>ATOM
      1  C          5.0000    1.7930    0.6860 C.3     1  UNL1        0.1270
      2  C          4.5020    1.1110    1.9030 C.2     1  UNL1        0.3030
      3  O          5.1720    0.2220    2.4530 O.2     1  UNL1       -0.2520
      4  O          3.2770    1.4680    2.4330 O.3     1  UNL1       -0.4810
      5  H          2.3980    1.1630    2.0240 H       1  UNL1        0.2960
      6  C          6.5080    1.8480    0.6880 C.3     1  UNL1        0.0470
      7  C          7.1110    1.0350   -0.3850 C.2     1  UNL1       -0.0470
      8  C          6.4230    0.1230   -1.1440 C.2     1  UNL1        0.0040
      9  C          8.4520    1.2050   -0.6360 C.2     1  UNL1        0.0040
     10  C          7.0700   -0.5970   -2.1290 C.2     1  UNL1        0.0000
     11  C          9.1100    0.5040   -1.6030 C.2     1  UNL1        0.0000
     12  C          8.4170   -0.4120   -2.3660 C.2     1  UNL1        0.0000
@<TRIPOS>BOND
     1    12    10    2
     2    12    11    1
     3    10     8    1
     4    11     9    2
     5     8     7    2
     6     9     7    1
     7     7     6    1
     8     1     6    1
     9     1     2    1
    10     2     4    1
    11     2     3    2
    12     5     4    1
