@<TRIPOS>MOLECULE
/home/cewinharhar/GITHUB/reincatalyze/data/processed/docking_pred/2023-Apr-25-1630_maxeplen5_maxtrainstep200_exh32_gamma099_lrac3e-4_lrcr1e-3/49b3117837231080fe644fe44c00424f4b8d2b91_ligand_2.pdbqt
 12 12 0 0 0
SMALL
GASTEIGER

@<TRIPOS>ATOM
      1  C          8.4320   -0.5800   -2.2490 C.3     1  UNL1        0.1270
      2  C          8.4880   -1.8890   -2.9420 C.2     1  UNL1        0.3030
      3  O          9.5650   -2.4870   -3.0860 O.2     1  UNL1       -0.2520
      4  O          7.3250   -2.4500   -3.4350 O.3     1  UNL1       -0.4810
      5  H          7.1990   -2.6630   -4.4200 H       1  UNL1        0.2960
      6  C          7.0120   -0.0760   -2.1820 C.3     1  UNL1        0.0470
      7  C          6.5000    0.0070   -0.8010 C.2     1  UNL1       -0.0470
      8  C          6.6170   -0.9950    0.1280 C.2     1  UNL1        0.0040
      9  C          5.8620    1.1660   -0.4260 C.2     1  UNL1        0.0040
     10  C          6.1060   -0.8320    1.4010 C.2     1  UNL1        0.0000
     11  C          5.3490    1.3460    0.8250 C.2     1  UNL1        0.0000
     12  C          5.4680    0.3390    1.7590 C.2     1  UNL1        0.0000
@<TRIPOS>BOND
     1     5     4    1
     2     4     2    1
     3     3     2    2
     4     2     1    1
     5     1     6    1
     6     6     7    1
     7     7     9    2
     8     7     8    1
     9     9    11    1
    10     8    10    2
    11    11    12    2
    12    10    12    1
