@<TRIPOS>MOLECULE
/home/cewinharhar/GITHUB/reincatalyze/data/processed/docking_pred/2023-Apr-25-1630_maxeplen5_maxtrainstep200_exh32_gamma099_lrac3e-4_lrcr1e-3/49b3117837231080fe644fe44c00424f4b8d2b91_ligand_2.pdbqt
 12 12 0 0 0
SMALL
GASTEIGER

@<TRIPOS>ATOM
      1  C          8.2630    0.2430   -2.1890 C.3     1  UNL1        0.1270
      2  C          9.3920    0.3500   -1.2350 C.2     1  UNL1        0.3030
      3  O          9.4590   -0.3930   -0.2440 O.2     1  UNL1       -0.2520
      4  O         10.3820    1.2900   -1.4520 O.3     1  UNL1       -0.4810
      5  H         11.0750    1.1890   -2.1880 H       1  UNL1        0.2960
      6  C          7.1290   -0.5450   -1.5820 C.3     1  UNL1        0.0470
      7  C          6.3580    0.2320   -0.5920 C.2     1  UNL1       -0.0470
      8  C          6.1260   -0.1750    0.6970 C.2     1  UNL1        0.0040
      9  C          5.8400    1.4400   -0.9940 C.2     1  UNL1        0.0040
     10  C          5.3910    0.6170    1.5580 C.2     1  UNL1        0.0000
     11  C          5.1110    2.2360   -0.1600 C.2     1  UNL1        0.0000
     12  C          4.8780    1.8280    1.1370 C.2     1  UNL1        0.0000
@<TRIPOS>BOND
     1     1     6    1
     2     1     2    1
     3     5     4    1
     4     6     7    1
     5     4     2    1
     6     2     3    2
     7     9     7    2
     8     9    11    1
     9     7     8    1
    10    11    12    2
    11     8    10    2
    12    12    10    1
