MODEL 1
REMARK VINA RESULT:      -7.3      0.000      0.000
REMARK SMILES O=C(O)CCc1ccccc1
REMARK SMILES IDX 4 1 2 2 1 3 3 4 5 6 6 7 7 8 11 9 8 10 10 11 9 12
REMARK H PARENT 3 5
REMARK Flexibility Score: inf
ROOT
ATOM      1  C   UNL     1       8.438  -0.647  -2.133  1.00  0.00     0.127 C 
ENDROOT
BRANCH   1   2
ATOM      2  C   UNL     1       8.489  -1.916  -2.896  1.00  0.00     0.303 C 
ATOM      3  O   UNL     1       9.566  -2.502  -3.084  1.00  0.00    -0.252 OA
BRANCH   2   4
ATOM      4  O   UNL     1       7.322  -2.453  -3.404  1.00  0.00    -0.481 OA
ATOM      5  H   UNL     1       7.323  -3.184  -4.111  1.00  0.00     0.296 HD
ENDBRANCH   2   4
ENDBRANCH   1   2
BRANCH   1   6
ATOM      6  C   UNL     1       7.051  -0.056  -2.177  1.00  0.00     0.047 C 
BRANCH   6   7
ATOM      7  C   UNL     1       6.475   0.153  -0.835  1.00  0.00    -0.047 A 
ATOM      8  C   UNL     1       5.807   1.288  -0.450  1.00  0.00     0.004 A 
ATOM      9  C   UNL     1       6.620  -0.857   0.085  1.00  0.00     0.004 A 
ATOM     10  C   UNL     1       5.300   1.399   0.830  1.00  0.00     0.000 A 
ATOM     11  C   UNL     1       6.127  -0.766   1.354  1.00  0.00     0.000 A 
ATOM     12  C   UNL     1       5.456   0.374   1.741  1.00  0.00     0.000 A 
ENDBRANCH   6   7
ENDBRANCH   1   6
TORSDOF 4
ENDMDL
MODEL 2
REMARK VINA RESULT:      -7.3      0.096      1.430
REMARK SMILES O=C(O)CCc1ccccc1
REMARK SMILES IDX 4 1 2 2 1 3 3 4 5 6 6 7 7 8 11 9 8 10 10 11 9 12
REMARK H PARENT 3 5
REMARK Flexibility Score: inf
ROOT
ATOM      1  C   UNL     1       8.432  -0.580  -2.249  1.00  0.00     0.127 C 
ENDROOT
BRANCH   1   2
ATOM      2  C   UNL     1       8.488  -1.889  -2.942  1.00  0.00     0.303 C 
ATOM      3  O   UNL     1       9.565  -2.487  -3.086  1.00  0.00    -0.252 OA
BRANCH   2   4
ATOM      4  O   UNL     1       7.325  -2.450  -3.435  1.00  0.00    -0.481 OA
ATOM      5  H   UNL     1       7.199  -2.663  -4.420  1.00  0.00     0.296 HD
ENDBRANCH   2   4
ENDBRANCH   1   2
BRANCH   1   6
ATOM      6  C   UNL     1       7.012  -0.076  -2.182  1.00  0.00     0.047 C 
BRANCH   6   7
ATOM      7  C   UNL     1       6.500   0.007  -0.801  1.00  0.00    -0.047 A 
ATOM      8  C   UNL     1       6.617  -0.995   0.128  1.00  0.00     0.004 A 
ATOM      9  C   UNL     1       5.862   1.166  -0.426  1.00  0.00     0.004 A 
ATOM     10  C   UNL     1       6.106  -0.832   1.401  1.00  0.00     0.000 A 
ATOM     11  C   UNL     1       5.349   1.346   0.825  1.00  0.00     0.000 A 
ATOM     12  C   UNL     1       5.468   0.339   1.759  1.00  0.00     0.000 A 
ENDBRANCH   6   7
ENDBRANCH   1   6
TORSDOF 4
ENDMDL
MODEL 3
REMARK VINA RESULT:      -7.2      0.580      1.607
REMARK SMILES O=C(O)CCc1ccccc1
REMARK SMILES IDX 4 1 2 2 1 3 3 4 5 6 6 7 7 8 11 9 8 10 10 11 9 12
REMARK H PARENT 3 5
REMARK Flexibility Score: inf
ROOT
ATOM      1  C   UNL     1       8.216  -0.918  -1.892  1.00  0.00     0.127 C 
ENDROOT
BRANCH   1   2
ATOM      2  C   UNL     1       8.367  -2.037  -2.853  1.00  0.00     0.303 C 
ATOM      3  O   UNL     1       9.477  -2.551  -3.060  1.00  0.00    -0.252 OA
BRANCH   2   4
ATOM      4  O   UNL     1       7.259  -2.512  -3.527  1.00  0.00    -0.481 OA
ATOM      5  H   UNL     1       7.329  -3.199  -4.273  1.00  0.00     0.296 HD
ENDBRANCH   2   4
ENDBRANCH   1   2
BRANCH   1   6
ATOM      6  C   UNL     1       7.526  -1.388  -0.636  1.00  0.00     0.047 C 
BRANCH   6   7
ATOM      7  C   UNL     1       6.644  -0.360  -0.050  1.00  0.00    -0.047 A 
ATOM      8  C   UNL     1       6.142  -0.411   1.225  1.00  0.00     0.004 A 
ATOM      9  C   UNL     1       6.305   0.714  -0.838  1.00  0.00     0.004 A 
ATOM     10  C   UNL     1       5.321   0.597   1.693  1.00  0.00     0.000 A 
ATOM     11  C   UNL     1       5.496   1.718  -0.395  1.00  0.00     0.000 A 
ATOM     12  C   UNL     1       4.992   1.669   0.887  1.00  0.00     0.000 A 
ENDBRANCH   6   7
ENDBRANCH   1   6
TORSDOF 4
ENDMDL
MODEL 4
REMARK VINA RESULT:      -6.7      3.344      5.022
REMARK SMILES O=C(O)CCc1ccccc1
REMARK SMILES IDX 4 1 2 2 1 3 3 4 5 6 6 7 7 8 11 9 8 10 10 11 9 12
REMARK H PARENT 3 5
REMARK Flexibility Score: inf
ROOT
ATOM      1  C   UNL     1       5.066   1.747   0.740  1.00  0.00     0.127 C 
ENDROOT
BRANCH   1   2
ATOM      2  C   UNL     1       4.587   1.036   1.948  1.00  0.00     0.303 C 
ATOM      3  O   UNL     1       5.286   0.168   2.494  1.00  0.00    -0.252 OA
BRANCH   2   4
ATOM      4  O   UNL     1       3.346   1.343   2.473  1.00  0.00    -0.481 OA
ATOM      5  H   UNL     1       2.482   1.147   1.976  1.00  0.00     0.296 HD
ENDBRANCH   2   4
ENDBRANCH   1   2
BRANCH   1   6
ATOM      6  C   UNL     1       6.571   1.856   0.751  1.00  0.00     0.047 C 
BRANCH   6   7
ATOM      7  C   UNL     1       7.209   1.086  -0.334  1.00  0.00    -0.047 A 
ATOM      8  C   UNL     1       8.528   1.202  -0.690  1.00  0.00     0.004 A 
ATOM      9  C   UNL     1       6.425   0.196  -1.030  1.00  0.00     0.004 A 
ATOM     10  C   UNL     1       9.042   0.440  -1.722  1.00  0.00     0.000 A 
ATOM     11  C   UNL     1       6.914  -0.564  -2.051  1.00  0.00     0.000 A 
ATOM     12  C   UNL     1       8.240  -0.448  -2.409  1.00  0.00     0.000 A 
ENDBRANCH   6   7
ENDBRANCH   1   6
TORSDOF 4
ENDMDL
MODEL 5
REMARK VINA RESULT:      -6.7      1.925      2.643
REMARK SMILES O=C(O)CCc1ccccc1
REMARK SMILES IDX 4 1 2 2 1 3 3 4 5 6 6 7 7 8 11 9 8 10 10 11 9 12
REMARK H PARENT 3 5
REMARK Flexibility Score: inf
ROOT
ATOM      1  C   UNL     1       8.263   0.243  -2.189  1.00  0.00     0.127 C 
ENDROOT
BRANCH   1   2
ATOM      2  C   UNL     1       9.392   0.350  -1.235  1.00  0.00     0.303 C 
ATOM      3  O   UNL     1       9.459  -0.393  -0.244  1.00  0.00    -0.252 OA
BRANCH   2   4
ATOM      4  O   UNL     1      10.382   1.290  -1.452  1.00  0.00    -0.481 OA
ATOM      5  H   UNL     1      11.075   1.189  -2.188  1.00  0.00     0.296 HD
ENDBRANCH   2   4
ENDBRANCH   1   2
BRANCH   1   6
ATOM      6  C   UNL     1       7.129  -0.545  -1.582  1.00  0.00     0.047 C 
BRANCH   6   7
ATOM      7  C   UNL     1       6.358   0.232  -0.592  1.00  0.00    -0.047 A 
ATOM      8  C   UNL     1       6.126  -0.175   0.697  1.00  0.00     0.004 A 
ATOM      9  C   UNL     1       5.840   1.440  -0.994  1.00  0.00     0.004 A 
ATOM     10  C   UNL     1       5.391   0.617   1.558  1.00  0.00     0.000 A 
ATOM     11  C   UNL     1       5.111   2.236  -0.160  1.00  0.00     0.000 A 
ATOM     12  C   UNL     1       4.878   1.828   1.137  1.00  0.00     0.000 A 
ENDBRANCH   6   7
ENDBRANCH   1   6
TORSDOF 4
ENDMDL
