@<TRIPOS>MOLECULE
/home/cewinharhar/GITHUB/reincatalyze/data/processed/docking_pred/2023-Apr-25-1630_maxeplen5_maxtrainstep200_exh32_gamma099_lrac3e-4_lrcr1e-3/49b3117837231080fe644fe44c00424f4b8d2b91_ligand_2.pdbqt
 12 12 0 0 0
SMALL
GASTEIGER

@<TRIPOS>ATOM
      1  C          5.0660    1.7470    0.7400 C.3     1  UNL1        0.1270
      2  C          4.5870    1.0360    1.9480 C.2     1  UNL1        0.3030
      3  O          5.2860    0.1680    2.4940 O.2     1  UNL1       -0.2520
      4  O          3.3460    1.3430    2.4730 O.3     1  UNL1       -0.4810
      5  H          2.4820    1.1470    1.9760 H       1  UNL1        0.2960
      6  C          6.5710    1.8560    0.7510 C.3     1  UNL1        0.0470
      7  C          7.2090    1.0860   -0.3340 C.2     1  UNL1       -0.0470
      8  C          8.5280    1.2020   -0.6900 C.2     1  UNL1        0.0040
      9  C          6.4250    0.1960   -1.0300 C.2     1  UNL1        0.0040
     10  C          9.0420    0.4400   -1.7220 C.2     1  UNL1        0.0000
     11  C          6.9140   -0.5640   -2.0510 C.2     1  UNL1        0.0000
     12  C          8.2400   -0.4480   -2.4090 C.2     1  UNL1        0.0000
@<TRIPOS>BOND
     1    12    11    2
     2    12    10    1
     3    11     9    1
     4    10     8    2
     5     9     7    2
     6     8     7    1
     7     7     6    1
     8     1     6    1
     9     1     2    1
    10     2     4    1
    11     2     3    2
    12     5     4    1
