@<TRIPOS>MOLECULE
/home/cewinharhar/GITHUB/reincatalyze/data/processed/docking_pred/2023-Apr-25-1630_maxeplen5_maxtrainstep200_exh32_gamma099_lrac3e-4_lrcr1e-3/49b3117837231080fe644fe44c00424f4b8d2b91_ligand_2.pdbqt
 12 12 0 0 0
SMALL
GASTEIGER

@<TRIPOS>ATOM
      1  C          8.2160   -0.9180   -1.8920 C.3     1  UNL1        0.1270
      2  C          8.3670   -2.0370   -2.8530 C.2     1  UNL1        0.3030
      3  O          9.4770   -2.5510   -3.0600 O.2     1  UNL1       -0.2520
      4  O          7.2590   -2.5120   -3.5270 O.3     1  UNL1       -0.4810
      5  H          7.3290   -3.1990   -4.2730 H       1  UNL1        0.2960
      6  C          7.5260   -1.3880   -0.6360 C.3     1  UNL1        0.0470
      7  C          6.6440   -0.3600   -0.0500 C.2     1  UNL1       -0.0470
      8  C          6.1420   -0.4110    1.2250 C.2     1  UNL1        0.0040
      9  C          6.3050    0.7140   -0.8380 C.2     1  UNL1        0.0040
     10  C          5.3210    0.5970    1.6930 C.2     1  UNL1        0.0000
     11  C          5.4960    1.7180   -0.3950 C.2     1  UNL1        0.0000
     12  C          4.9920    1.6690    0.8870 C.2     1  UNL1        0.0000
@<TRIPOS>BOND
     1     5     4    1
     2     4     2    1
     3     3     2    2
     4     2     1    1
     5     1     6    1
     6     9    11    1
     7     9     7    2
     8     6     7    1
     9    11    12    2
    10     7     8    1
    11    12    10    1
    12     8    10    2
