@<TRIPOS>MOLECULE
/home/cewinharhar/GITHUB/reincatalyze/data/processed/docking_pred/2023-Apr-25-1630_maxeplen5_maxtrainstep200_exh32_gamma099_lrac3e-4_lrcr1e-3/49b3117837231080fe644fe44c00424f4b8d2b91_ligand_2.pdbqt
 12 12 0 0 0
SMALL
GASTEIGER

@<TRIPOS>ATOM
      1  C          8.4380   -0.6470   -2.1330 C.3     1  UNL1        0.1270
      2  C          8.4890   -1.9160   -2.8960 C.2     1  UNL1        0.3030
      3  O          9.5660   -2.5020   -3.0840 O.2     1  UNL1       -0.2520
      4  O          7.3220   -2.4530   -3.4040 O.3     1  UNL1       -0.4810
      5  H          7.3230   -3.1840   -4.1110 H       1  UNL1        0.2960
      6  C          7.0510   -0.0560   -2.1770 C.3     1  UNL1        0.0470
      7  C          6.4750    0.1530   -0.8350 C.2     1  UNL1       -0.0470
      8  C          5.8070    1.2880   -0.4500 C.2     1  UNL1        0.0040
      9  C          6.6200   -0.8570    0.0850 C.2     1  UNL1        0.0040
     10  C          5.3000    1.3990    0.8300 C.2     1  UNL1        0.0000
     11  C          6.1270   -0.7660    1.3540 C.2     1  UNL1        0.0000
     12  C          5.4560    0.3740    1.7410 C.2     1  UNL1        0.0000
@<TRIPOS>BOND
     1     5     4    1
     2     4     2    1
     3     3     2    2
     4     2     1    1
     5     6     1    1
     6     6     7    1
     7     7     8    2
     8     7     9    1
     9     8    10    1
    10     9    11    2
    11    10    12    2
    12    11    12    1
