@<TRIPOS>MOLECULE
/home/cewinharhar/GITHUB/reincatalyze/data/processed/docking_pred/2023-Apr-25-1630_maxeplen5_maxtrainstep200_exh32_gamma099_lrac3e-4_lrcr1e-3/4a3a178b6a4326eb13634b12f3ce9c4ec26f8538_ligand_2.pdbqt
 12 12 0 0 0
SMALL
GASTEIGER

@<TRIPOS>ATOM
      1  C          8.4130   -0.5550   -2.2600 C.3     1  UNL1        0.1270
      2  C          8.4620   -1.8770   -2.9270 C.2     1  UNL1        0.3030
      3  O          9.5360   -2.4870   -3.0510 O.2     1  UNL1       -0.2520
      4  O          7.2980   -2.4380   -3.4160 O.3     1  UNL1       -0.4810
      5  H          6.7340   -3.0830   -2.8700 H       1  UNL1        0.2960
      6  C          6.9950   -0.0440   -2.1990 C.3     1  UNL1        0.0470
      7  C          6.4830    0.0630   -0.8200 C.2     1  UNL1       -0.0470
      8  C          6.5790   -0.9320    0.1190 C.2     1  UNL1        0.0040
      9  C          5.8700    1.2390   -0.4570 C.2     1  UNL1        0.0040
     10  C          6.0700   -0.7460    1.3900 C.2     1  UNL1        0.0000
     11  C          5.3610    1.4430    0.7920 C.2     1  UNL1        0.0000
     12  C          5.4580    0.4430    1.7360 C.2     1  UNL1        0.0000
@<TRIPOS>BOND
     1     4     2    1
     2     4     5    1
     3     3     2    2
     4     2     1    1
     5     1     6    1
     6     6     7    1
     7     7     9    2
     8     7     8    1
     9     9    11    1
    10     8    10    2
    11    11    12    2
    12    10    12    1
