@<TRIPOS>MOLECULE
/home/cewinharhar/GITHUB/reincatalyze/data/processed/docking_pred/2023-Apr-25-1630_maxeplen5_maxtrainstep200_exh32_gamma099_lrac3e-4_lrcr1e-3/4a3a178b6a4326eb13634b12f3ce9c4ec26f8538_ligand_2.pdbqt
 12 12 0 0 0
SMALL
GASTEIGER

@<TRIPOS>ATOM
      1  C          5.0530    1.7350    0.7400 C.3     1  UNL1        0.1270
      2  C          4.5980    1.0140    1.9520 C.2     1  UNL1        0.3030
      3  O          5.3140    0.1520    2.4850 O.2     1  UNL1       -0.2520
      4  O          3.3620    1.3060    2.4960 O.3     1  UNL1       -0.4810
      5  H          3.1070    2.2440    2.7930 H       1  UNL1        0.2960
      6  C          6.5590    1.8090    0.7010 C.3     1  UNL1        0.0470
      7  C          7.1450    1.0000   -0.3850 C.2     1  UNL1       -0.0470
      8  C          6.4460    0.0810   -1.1250 C.2     1  UNL1        0.0040
      9  C          8.4780    1.1820   -0.6680 C.2     1  UNL1        0.0040
     10  C          7.0760   -0.6360   -2.1250 C.2     1  UNL1        0.0000
     11  C          9.1180    0.4850   -1.6500 C.2     1  UNL1        0.0000
     12  C          8.4160   -0.4390   -2.3950 C.2     1  UNL1        0.0000
@<TRIPOS>BOND
     1    12    10    2
     2    12    11    1
     3    10     8    1
     4    11     9    2
     5     8     7    2
     6     9     7    1
     7     7     6    1
     8     6     1    1
     9     1     2    1
    10     2     3    2
    11     2     4    1
    12     4     5    1
