@<TRIPOS>MOLECULE
/home/cewinharhar/GITHUB/reincatalyze/data/processed/docking_pred/2023-Apr-25-1630_maxeplen5_maxtrainstep200_exh32_gamma099_lrac3e-4_lrcr1e-3/4a3a178b6a4326eb13634b12f3ce9c4ec26f8538_ligand_2.pdbqt
 12 12 0 0 0
SMALL
GASTEIGER

@<TRIPOS>ATOM
      1  C          8.2180    0.2980   -2.1960 C.3     1  UNL1        0.1270
      2  C          9.3520    0.3730   -1.2450 C.2     1  UNL1        0.3030
      3  O          9.4340   -0.4170   -0.2910 O.2     1  UNL1       -0.2520
      4  O         10.3290    1.3330   -1.4220 O.3     1  UNL1       -0.4810
      5  H         10.2100    2.2930   -1.1100 H       1  UNL1        0.2960
      6  C          7.0910   -0.5200   -1.6150 C.3     1  UNL1        0.0470
      7  C          6.3420    0.2020   -0.5680 C.2     1  UNL1       -0.0470
      8  C          6.1490   -0.2680    0.7060 C.2     1  UNL1        0.0040
      9  C          5.8030    1.4230   -0.8970 C.2     1  UNL1        0.0040
     10  C          5.4320    0.4750    1.6230 C.2     1  UNL1        0.0000
     11  C          5.0910    2.1710   -0.0060 C.2     1  UNL1        0.0000
     12  C          4.8980    1.6990    1.2750 C.2     1  UNL1        0.0000
@<TRIPOS>BOND
     1     1     6    1
     2     1     2    1
     3     6     7    1
     4     4     2    1
     5     4     5    1
     6     2     3    2
     7     9     7    2
     8     9    11    1
     9     7     8    1
    10    11    12    2
    11     8    10    2
    12    12    10    1
