@<TRIPOS>MOLECULE
/home/cewinharhar/GITHUB/reincatalyze/data/processed/docking_pred/2023-Apr-25-1630_maxeplen5_maxtrainstep200_exh32_gamma099_lrac3e-4_lrcr1e-3/4a3a178b6a4326eb13634b12f3ce9c4ec26f8538_ligand_2.pdbqt
 12 12 0 0 0
SMALL
GASTEIGER

@<TRIPOS>ATOM
      1  C          5.0220    1.7070    0.7050 C.3     1  UNL1        0.1270
      2  C          4.5560    1.0290    1.9380 C.2     1  UNL1        0.3030
      3  O          3.4520    1.3040    2.4350 O.2     1  UNL1       -0.2520
      4  O          5.3590    0.0810    2.5410 O.3     1  UNL1       -0.4810
      5  H          5.5610   -0.8160    2.1060 H       1  UNL1        0.2960
      6  C          6.5220    1.8680    0.7240 C.3     1  UNL1        0.0470
      7  C          7.1930    1.1060   -0.3460 C.2     1  UNL1       -0.0470
      8  C          8.5300    1.1980   -0.6380 C.2     1  UNL1        0.0040
      9  C          6.4230    0.2500   -1.0980 C.2     1  UNL1        0.0040
     10  C          9.0750    0.4470   -1.6610 C.2     1  UNL1        0.0000
     11  C          6.9420   -0.5000   -2.1110 C.2     1  UNL1        0.0000
     12  C          8.2860   -0.4080   -2.4050 C.2     1  UNL1        0.0000
@<TRIPOS>BOND
     1    12    11    2
     2    12    10    1
     3    11     9    1
     4    10     8    2
     5     9     7    2
     6     8     7    1
     7     7     6    1
     8     1     6    1
     9     1     2    1
    10     2     3    2
    11     2     4    1
    12     5     4    1
