@<TRIPOS>MOLECULE
/home/cewinharhar/GITHUB/reincatalyze/data/processed/docking_pred/2023-Apr-25-1630_maxeplen5_maxtrainstep200_exh32_gamma099_lrac3e-4_lrcr1e-3/4c3a486d5bbb1ad3c8ce5b6da142191fd088767a_ligand_2.pdbqt
 12 12 0 0 0
SMALL
GASTEIGER

@<TRIPOS>ATOM
      1  C          8.4290   -0.6070   -2.1920 C.3     1  UNL1        0.1270
      2  C          8.4870   -1.9040   -2.9070 C.2     1  UNL1        0.3030
      3  O          9.5670   -2.4960   -3.0630 O.2     1  UNL1       -0.2520
      4  O          7.3250   -2.4610   -3.4050 O.3     1  UNL1       -0.4810
      5  H          7.2770   -2.8820   -4.3280 H       1  UNL1        0.2960
      6  C          7.0090   -0.1040   -2.1200 C.3     1  UNL1        0.0470
      7  C          6.4980   -0.0290   -0.7380 C.2     1  UNL1       -0.0470
      8  C          6.6320   -1.0300    0.1900 C.2     1  UNL1        0.0040
      9  C          5.8440    1.1200   -0.3620 C.2     1  UNL1        0.0040
     10  C          6.1200   -0.8740    1.4640 C.2     1  UNL1        0.0000
     11  C          5.3310    1.2930    0.8900 C.2     1  UNL1        0.0000
     12  C          5.4670    0.2870    1.8230 C.2     1  UNL1        0.0000
@<TRIPOS>BOND
     1     5     4    1
     2     4     2    1
     3     3     2    2
     4     2     1    1
     5     1     6    1
     6     6     7    1
     7     7     9    2
     8     7     8    1
     9     9    11    1
    10     8    10    2
    11    11    12    2
    12    10    12    1
