@<TRIPOS>MOLECULE
/home/cewinharhar/GITHUB/reincatalyze/data/processed/docking_pred/2023-Apr-25-1630_maxeplen5_maxtrainstep200_exh32_gamma099_lrac3e-4_lrcr1e-3/4c3a486d5bbb1ad3c8ce5b6da142191fd088767a_ligand_2.pdbqt
 12 12 0 0 0
SMALL
GASTEIGER

@<TRIPOS>ATOM
      1  C          5.0100    1.7950    0.7250 C.3     1  UNL1        0.1270
      2  C          4.4990    1.0960    1.9280 C.2     1  UNL1        0.3030
      3  O          5.1620    0.1970    2.4700 O.2     1  UNL1       -0.2520
      4  O          3.2700    1.4480    2.4520 O.3     1  UNL1       -0.4810
      5  H          2.4090    0.9830    2.1780 H       1  UNL1        0.2960
      6  C          6.5180    1.8210    0.7280 C.3     1  UNL1        0.0470
      7  C          7.1060    1.0260   -0.3670 C.2     1  UNL1       -0.0470
      8  C          6.4080    0.1210   -1.1260 C.2     1  UNL1        0.0040
      9  C          8.4410    1.2070   -0.6400 C.2     1  UNL1        0.0040
     10  C          7.0410   -0.5820   -2.1330 C.2     1  UNL1        0.0000
     11  C          9.0840    0.5220   -1.6290 C.2     1  UNL1        0.0000
     12  C          8.3830   -0.3870   -2.3920 C.2     1  UNL1        0.0000
@<TRIPOS>BOND
     1    12    10    2
     2    12    11    1
     3    10     8    1
     4    11     9    2
     5     8     7    2
     6     9     7    1
     7     7     6    1
     8     1     6    1
     9     1     2    1
    10     2     4    1
    11     2     3    2
    12     5     4    1
