@<TRIPOS>MOLECULE
/home/cewinharhar/GITHUB/reincatalyze/data/processed/docking_pred/2023-Apr-25-1630_maxeplen5_maxtrainstep200_exh32_gamma099_lrac3e-4_lrcr1e-3/4c3a486d5bbb1ad3c8ce5b6da142191fd088767a_ligand_2.pdbqt
 12 12 0 0 0
SMALL
GASTEIGER

@<TRIPOS>ATOM
      1  C          8.1240   -2.0380    0.8720 C.3     1  UNL1        0.1270
      2  C          8.4240   -3.4660    1.1270 C.2     1  UNL1        0.3030
      3  O          9.5700   -3.9140    0.9610 O.2     1  UNL1       -0.2520
      4  O          7.4170   -4.3100    1.5530 O.3     1  UNL1       -0.4810
      5  H          6.8330   -4.8310    0.9040 H       1  UNL1        0.2960
      6  C          6.8180   -1.6480    1.5190 C.3     1  UNL1        0.0470
      7  C          6.2570   -0.3980    0.9690 C.2     1  UNL1       -0.0470
      8  C          5.4680    0.4710    1.6770 C.2     1  UNL1        0.0040
      9  C          6.5470   -0.0920   -0.3400 C.2     1  UNL1        0.0040
     10  C          4.9850    1.6200    1.0810 C.2     1  UNL1        0.0000
     11  C          6.0790    1.0360   -0.9460 C.2     1  UNL1        0.0000
     12  C          5.2870    1.9110   -0.2340 C.2     1  UNL1        0.0000
@<TRIPOS>BOND
     1    11     9    1
     2    11    12    2
     3     9     7    2
     4    12    10    1
     5     1     2    1
     6     1     6    1
     7     5     4    1
     8     3     2    2
     9     7     6    1
    10     7     8    1
    11    10     8    2
    12     2     4    1
