@<TRIPOS>MOLECULE
/home/cewinharhar/GITHUB/reincatalyze/data/processed/docking_pred/2023-Apr-25-1630_maxeplen5_maxtrainstep200_exh32_gamma099_lrac3e-4_lrcr1e-3/4c3a486d5bbb1ad3c8ce5b6da142191fd088767a_ligand_2.pdbqt
 12 12 0 0 0
SMALL
GASTEIGER

@<TRIPOS>ATOM
      1  C          8.4160   -0.6310   -2.1560 C.3     1  UNL1        0.1270
      2  C          8.4720   -1.9070   -2.9070 C.2     1  UNL1        0.3030
      3  O          9.5530   -2.4900   -3.0890 O.2     1  UNL1       -0.2520
      4  O          7.3080   -2.4550   -3.4110 O.3     1  UNL1       -0.4810
      5  H          7.0100   -2.3080   -4.3710 H       1  UNL1        0.2960
      6  C          7.0150   -0.0730   -2.1640 C.3     1  UNL1        0.0470
      7  C          6.4660    0.1170   -0.8070 C.2     1  UNL1       -0.0470
      8  C          5.8380    1.2590   -0.3810 C.2     1  UNL1        0.0040
      9  C          6.5980   -0.9210    0.0850 C.2     1  UNL1        0.0040
     10  C          5.3540    1.3510    0.9100 C.2     1  UNL1        0.0000
     11  C          6.1290   -0.8500    1.3630 C.2     1  UNL1        0.0000
     12  C          5.4960    0.2970    1.7910 C.2     1  UNL1        0.0000
@<TRIPOS>BOND
     1     5     4    1
     2     4     2    1
     3     3     2    2
     4     2     1    1
     5     6     1    1
     6     6     7    1
     7     7     8    2
     8     7     9    1
     9     8    10    1
    10     9    11    2
    11    10    12    2
    12    11    12    1
