MODEL 1
REMARK VINA RESULT:      -7.2      0.000      0.000
REMARK SMILES O=C(O)CCc1ccccc1
REMARK SMILES IDX 4 1 2 2 1 3 3 4 5 6 6 7 7 8 11 9 8 10 10 11 9 12
REMARK H PARENT 3 5
REMARK Flexibility Score: inf
ROOT
ATOM      1  C   UNL     1       8.429  -0.607  -2.192  1.00  0.00     0.127 C 
ENDROOT
BRANCH   1   2
ATOM      2  C   UNL     1       8.487  -1.904  -2.907  1.00  0.00     0.303 C 
ATOM      3  O   UNL     1       9.567  -2.496  -3.063  1.00  0.00    -0.252 OA
BRANCH   2   4
ATOM      4  O   UNL     1       7.325  -2.461  -3.405  1.00  0.00    -0.481 OA
ATOM      5  H   UNL     1       7.277  -2.882  -4.328  1.00  0.00     0.296 HD
ENDBRANCH   2   4
ENDBRANCH   1   2
BRANCH   1   6
ATOM      6  C   UNL     1       7.009  -0.104  -2.120  1.00  0.00     0.047 C 
BRANCH   6   7
ATOM      7  C   UNL     1       6.498  -0.029  -0.738  1.00  0.00    -0.047 A 
ATOM      8  C   UNL     1       6.632  -1.030   0.190  1.00  0.00     0.004 A 
ATOM      9  C   UNL     1       5.844   1.120  -0.362  1.00  0.00     0.004 A 
ATOM     10  C   UNL     1       6.120  -0.874   1.464  1.00  0.00     0.000 A 
ATOM     11  C   UNL     1       5.331   1.293   0.890  1.00  0.00     0.000 A 
ATOM     12  C   UNL     1       5.467   0.287   1.823  1.00  0.00     0.000 A 
ENDBRANCH   6   7
ENDBRANCH   1   6
TORSDOF 4
ENDMDL
MODEL 2
REMARK VINA RESULT:      -7.2      0.093      1.429
REMARK SMILES O=C(O)CCc1ccccc1
REMARK SMILES IDX 4 1 2 2 1 3 3 4 5 6 6 7 7 8 11 9 8 10 10 11 9 12
REMARK H PARENT 3 5
REMARK Flexibility Score: inf
ROOT
ATOM      1  C   UNL     1       8.416  -0.631  -2.156  1.00  0.00     0.127 C 
ENDROOT
BRANCH   1   2
ATOM      2  C   UNL     1       8.472  -1.907  -2.907  1.00  0.00     0.303 C 
ATOM      3  O   UNL     1       9.553  -2.490  -3.089  1.00  0.00    -0.252 OA
BRANCH   2   4
ATOM      4  O   UNL     1       7.308  -2.455  -3.411  1.00  0.00    -0.481 OA
ATOM      5  H   UNL     1       7.010  -2.308  -4.371  1.00  0.00     0.296 HD
ENDBRANCH   2   4
ENDBRANCH   1   2
BRANCH   1   6
ATOM      6  C   UNL     1       7.015  -0.073  -2.164  1.00  0.00     0.047 C 
BRANCH   6   7
ATOM      7  C   UNL     1       6.466   0.117  -0.807  1.00  0.00    -0.047 A 
ATOM      8  C   UNL     1       5.838   1.259  -0.381  1.00  0.00     0.004 A 
ATOM      9  C   UNL     1       6.598  -0.921   0.085  1.00  0.00     0.004 A 
ATOM     10  C   UNL     1       5.354   1.351   0.910  1.00  0.00     0.000 A 
ATOM     11  C   UNL     1       6.129  -0.850   1.363  1.00  0.00     0.000 A 
ATOM     12  C   UNL     1       5.496   0.297   1.791  1.00  0.00     0.000 A 
ENDBRANCH   6   7
ENDBRANCH   1   6
TORSDOF 4
ENDMDL
MODEL 3
REMARK VINA RESULT:      -7.2      2.544      3.324
REMARK SMILES O=C(O)CCc1ccccc1
REMARK SMILES IDX 4 1 2 2 1 3 3 4 5 6 6 7 7 8 11 9 8 10 10 11 9 12
REMARK H PARENT 3 5
REMARK Flexibility Score: inf
ROOT
ATOM      1  C   UNL     1       8.124  -2.038   0.872  1.00  0.00     0.127 C 
ENDROOT
BRANCH   1   2
ATOM      2  C   UNL     1       8.424  -3.466   1.127  1.00  0.00     0.303 C 
ATOM      3  O   UNL     1       9.570  -3.914   0.961  1.00  0.00    -0.252 OA
BRANCH   2   4
ATOM      4  O   UNL     1       7.417  -4.310   1.553  1.00  0.00    -0.481 OA
ATOM      5  H   UNL     1       6.833  -4.831   0.904  1.00  0.00     0.296 HD
ENDBRANCH   2   4
ENDBRANCH   1   2
BRANCH   1   6
ATOM      6  C   UNL     1       6.818  -1.648   1.519  1.00  0.00     0.047 C 
BRANCH   6   7
ATOM      7  C   UNL     1       6.257  -0.398   0.969  1.00  0.00    -0.047 A 
ATOM      8  C   UNL     1       5.468   0.471   1.677  1.00  0.00     0.004 A 
ATOM      9  C   UNL     1       6.547  -0.092  -0.340  1.00  0.00     0.004 A 
ATOM     10  C   UNL     1       4.985   1.620   1.081  1.00  0.00     0.000 A 
ATOM     11  C   UNL     1       6.079   1.036  -0.946  1.00  0.00     0.000 A 
ATOM     12  C   UNL     1       5.287   1.911  -0.234  1.00  0.00     0.000 A 
ENDBRANCH   6   7
ENDBRANCH   1   6
TORSDOF 4
ENDMDL
MODEL 4
REMARK VINA RESULT:      -7.1      0.666      1.615
REMARK SMILES O=C(O)CCc1ccccc1
REMARK SMILES IDX 4 1 2 2 1 3 3 4 5 6 6 7 7 8 11 9 8 10 10 11 9 12
REMARK H PARENT 3 5
REMARK Flexibility Score: inf
ROOT
ATOM      1  C   UNL     1       8.246  -0.944  -1.877  1.00  0.00     0.127 C 
ENDROOT
BRANCH   1   2
ATOM      2  C   UNL     1       8.401  -2.040  -2.862  1.00  0.00     0.303 C 
ATOM      3  O   UNL     1       9.519  -2.515  -3.113  1.00  0.00    -0.252 OA
BRANCH   2   4
ATOM      4  O   UNL     1       7.287  -2.538  -3.509  1.00  0.00    -0.481 OA
ATOM      5  H   UNL     1       7.356  -3.153  -4.315  1.00  0.00     0.296 HD
ENDBRANCH   2   4
ENDBRANCH   1   2
BRANCH   1   6
ATOM      6  C   UNL     1       7.371  -1.383  -0.729  1.00  0.00     0.047 C 
BRANCH   6   7
ATOM      7  C   UNL     1       6.547  -0.286  -0.185  1.00  0.00    -0.047 A 
ATOM      8  C   UNL     1       6.197   0.838  -0.888  1.00  0.00     0.004 A 
ATOM      9  C   UNL     1       6.107  -0.403   1.112  1.00  0.00     0.004 A 
ATOM     10  C   UNL     1       5.422   1.818  -0.298  1.00  0.00     0.000 A 
ATOM     11  C   UNL     1       5.342   0.553   1.713  1.00  0.00     0.000 A 
ATOM     12  C   UNL     1       4.988   1.682   1.006  1.00  0.00     0.000 A 
ENDBRANCH   6   7
ENDBRANCH   1   6
TORSDOF 4
ENDMDL
MODEL 5
REMARK VINA RESULT:      -6.7      3.377      5.070
REMARK SMILES O=C(O)CCc1ccccc1
REMARK SMILES IDX 4 1 2 2 1 3 3 4 5 6 6 7 7 8 11 9 8 10 10 11 9 12
REMARK H PARENT 3 5
REMARK Flexibility Score: inf
ROOT
ATOM      1  C   UNL     1       5.010   1.795   0.725  1.00  0.00     0.127 C 
ENDROOT
BRANCH   1   2
ATOM      2  C   UNL     1       4.499   1.096   1.928  1.00  0.00     0.303 C 
ATOM      3  O   UNL     1       5.162   0.197   2.470  1.00  0.00    -0.252 OA
BRANCH   2   4
ATOM      4  O   UNL     1       3.270   1.448   2.452  1.00  0.00    -0.481 OA
ATOM      5  H   UNL     1       2.409   0.983   2.178  1.00  0.00     0.296 HD
ENDBRANCH   2   4
ENDBRANCH   1   2
BRANCH   1   6
ATOM      6  C   UNL     1       6.518   1.821   0.728  1.00  0.00     0.047 C 
BRANCH   6   7
ATOM      7  C   UNL     1       7.106   1.026  -0.367  1.00  0.00    -0.047 A 
ATOM      8  C   UNL     1       6.408   0.121  -1.126  1.00  0.00     0.004 A 
ATOM      9  C   UNL     1       8.441   1.207  -0.640  1.00  0.00     0.004 A 
ATOM     10  C   UNL     1       7.041  -0.582  -2.133  1.00  0.00     0.000 A 
ATOM     11  C   UNL     1       9.084   0.522  -1.629  1.00  0.00     0.000 A 
ATOM     12  C   UNL     1       8.383  -0.387  -2.392  1.00  0.00     0.000 A 
ENDBRANCH   6   7
ENDBRANCH   1   6
TORSDOF 4
ENDMDL
