@<TRIPOS>MOLECULE
/home/cewinharhar/GITHUB/reincatalyze/data/processed/docking_pred/2023-Apr-25-1630_maxeplen5_maxtrainstep200_exh32_gamma099_lrac3e-4_lrcr1e-3/4c3a486d5bbb1ad3c8ce5b6da142191fd088767a_ligand_2.pdbqt
 12 12 0 0 0
SMALL
GASTEIGER

@<TRIPOS>ATOM
      1  C          8.2460   -0.9440   -1.8770 C.3     1  UNL1        0.1270
      2  C          8.4010   -2.0400   -2.8620 C.2     1  UNL1        0.3030
      3  O          9.5190   -2.5150   -3.1130 O.2     1  UNL1       -0.2520
      4  O          7.2870   -2.5380   -3.5090 O.3     1  UNL1       -0.4810
      5  H          7.3560   -3.1530   -4.3150 H       1  UNL1        0.2960
      6  C          7.3710   -1.3830   -0.7290 C.3     1  UNL1        0.0470
      7  C          6.5470   -0.2860   -0.1850 C.2     1  UNL1       -0.0470
      8  C          6.1970    0.8380   -0.8880 C.2     1  UNL1        0.0040
      9  C          6.1070   -0.4030    1.1120 C.2     1  UNL1        0.0040
     10  C          5.4220    1.8180   -0.2980 C.2     1  UNL1        0.0000
     11  C          5.3420    0.5530    1.7130 C.2     1  UNL1        0.0000
     12  C          4.9880    1.6820    1.0060 C.2     1  UNL1        0.0000
@<TRIPOS>BOND
     1     5     4    1
     2     4     2    1
     3     3     2    2
     4     2     1    1
     5     1     6    1
     6     8    10    1
     7     8     7    2
     8     6     7    1
     9    10    12    2
    10     7     9    1
    11    12    11    1
    12     9    11    2
