@<TRIPOS>MOLECULE
/home/cewinharhar/GITHUB/reincatalyze/data/processed/docking_pred/2023-Apr-25-1630_maxeplen5_maxtrainstep200_exh32_gamma099_lrac3e-4_lrcr1e-3/4d620996829bdf69d2437cdb6940cc233521eaf3_ligand_2.pdbqt
 12 12 0 0 0
SMALL
GASTEIGER

@<TRIPOS>ATOM
      1  C          5.0500    1.7340    0.7420 C.3     1  UNL1        0.1270
      2  C          4.5760    1.0210    1.9510 C.2     1  UNL1        0.3030
      3  O          5.2730    0.1450    2.4870 O.2     1  UNL1       -0.2520
      4  O          3.3420    1.3330    2.4890 O.3     1  UNL1       -0.4810
      5  H          3.1060    1.1370    3.4570 H       1  UNL1        0.2960
      6  C          6.5530    1.8550    0.7530 C.3     1  UNL1        0.0470
      7  C          7.1970    1.0860   -0.3290 C.2     1  UNL1       -0.0470
      8  C          8.5150    1.2110   -0.6860 C.2     1  UNL1        0.0040
      9  C          6.4200    0.1880   -1.0220 C.2     1  UNL1        0.0040
     10  C          9.0360    0.4500   -1.7150 C.2     1  UNL1        0.0000
     11  C          6.9150   -0.5720   -2.0410 C.2     1  UNL1        0.0000
     12  C          8.2400   -0.4480   -2.3990 C.2     1  UNL1        0.0000
@<TRIPOS>BOND
     1    12    11    2
     2    12    10    1
     3    11     9    1
     4    10     8    2
     5     9     7    2
     6     8     7    1
     7     7     6    1
     8     1     6    1
     9     1     2    1
    10     2     3    2
    11     2     4    1
    12     4     5    1
