@<TRIPOS>MOLECULE
/home/cewinharhar/GITHUB/reincatalyze/data/processed/docking_pred/2023-Apr-25-1630_maxeplen5_maxtrainstep200_exh32_gamma099_lrac3e-4_lrcr1e-3/4d620996829bdf69d2437cdb6940cc233521eaf3_ligand_2.pdbqt
 12 12 0 0 0
SMALL
GASTEIGER

@<TRIPOS>ATOM
      1  C          8.4150   -0.6190   -2.1510 C.3     1  UNL1        0.1270
      2  C          8.4820   -1.8930   -2.9040 C.2     1  UNL1        0.3030
      3  O          9.5650   -2.4710   -3.0800 O.2     1  UNL1       -0.2520
      4  O          7.3230   -2.4440   -3.4180 O.3     1  UNL1       -0.4810
      5  H          6.4210   -1.9820   -3.3390 H       1  UNL1        0.2960
      6  C          7.0070   -0.0760   -2.1510 C.3     1  UNL1        0.0470
      7  C          6.4630    0.1060   -0.7920 C.2     1  UNL1       -0.0470
      8  C          5.8400    1.2470   -0.3560 C.2     1  UNL1        0.0040
      9  C          6.5940   -0.9400    0.0910 C.2     1  UNL1        0.0040
     10  C          5.3610    1.3300    0.9370 C.2     1  UNL1        0.0000
     11  C          6.1280   -0.8770    1.3720 C.2     1  UNL1        0.0000
     12  C          5.5010    0.2700    1.8100 C.2     1  UNL1        0.0000
@<TRIPOS>BOND
     1     4     5    1
     2     4     2    1
     3     3     2    2
     4     2     1    1
     5     1     6    1
     6     6     7    1
     7     7     8    2
     8     7     9    1
     9     8    10    1
    10     9    11    2
    11    10    12    2
    12    11    12    1
