@<TRIPOS>MOLECULE
/home/cewinharhar/GITHUB/reincatalyze/data/processed/docking_pred/2023-Apr-25-1630_maxeplen5_maxtrainstep200_exh32_gamma099_lrac3e-4_lrcr1e-3/4d620996829bdf69d2437cdb6940cc233521eaf3_ligand_2.pdbqt
 12 12 0 0 0
SMALL
GASTEIGER

@<TRIPOS>ATOM
      1  C          8.2640    0.1710   -2.1740 C.3     1  UNL1        0.1270
      2  C          9.3780    0.3500   -1.2120 C.2     1  UNL1        0.3030
      3  O          9.4830   -0.3850   -0.2180 O.2     1  UNL1       -0.2520
      4  O         10.3100    1.3480   -1.4250 O.3     1  UNL1       -0.4810
      5  H         10.0960    2.3310   -1.2810 H       1  UNL1        0.2960
      6  C          7.1220   -0.5740   -1.5290 C.3     1  UNL1        0.0470
      7  C          6.3380    0.2670   -0.6060 C.2     1  UNL1       -0.0470
      8  C          5.7990    1.4830   -0.9390 C.2     1  UNL1        0.0040
      9  C          6.1390   -0.2020    0.6710 C.2     1  UNL1        0.0040
     10  C          5.0770    2.2060   -0.0090 C.2     1  UNL1        0.0000
     11  C          5.4300    0.4960    1.6040 C.2     1  UNL1        0.0000
     12  C          4.8880    1.7190    1.2690 C.2     1  UNL1        0.0000
@<TRIPOS>BOND
     1     1     6    1
     2     1     2    1
     3     6     7    1
     4     4     5    1
     5     4     2    1
     6     2     3    2
     7     8     7    2
     8     8    10    1
     9     7     9    1
    10    10    12    2
    11     9    11    2
    12    12    11    1
