MODEL 1
REMARK VINA RESULT:      -7.3      0.000      0.000
REMARK SMILES O=C(O)CCc1ccccc1
REMARK SMILES IDX 4 1 2 2 1 3 3 4 5 6 6 7 7 8 11 9 8 10 10 11 9 12
REMARK H PARENT 3 5
REMARK Flexibility Score: inf
ROOT
ATOM      1  C   UNL     1       8.422  -0.618  -2.193  1.00  0.00     0.127 C 
ENDROOT
BRANCH   1   2
ATOM      2  C   UNL     1       8.478  -1.908  -2.921  1.00  0.00     0.303 C 
ATOM      3  O   UNL     1       9.560  -2.485  -3.108  1.00  0.00    -0.252 OA
BRANCH   2   4
ATOM      4  O   UNL     1       7.310  -2.473  -3.397  1.00  0.00    -0.481 OA
ATOM      5  H   UNL     1       7.111  -3.465  -3.307  1.00  0.00     0.296 HD
ENDBRANCH   2   4
ENDBRANCH   1   2
BRANCH   1   6
ATOM      6  C   UNL     1       7.009  -0.094  -2.149  1.00  0.00     0.047 C 
BRANCH   6   7
ATOM      7  C   UNL     1       6.483   0.020  -0.775  1.00  0.00    -0.047 A 
ATOM      8  C   UNL     1       6.582  -0.964   0.175  1.00  0.00     0.004 A 
ATOM      9  C   UNL     1       5.853   1.192  -0.429  1.00  0.00     0.004 A 
ATOM     10  C   UNL     1       6.059  -0.772   1.439  1.00  0.00     0.000 A 
ATOM     11  C   UNL     1       5.330   1.402   0.813  1.00  0.00     0.000 A 
ATOM     12  C   UNL     1       5.430   0.413   1.767  1.00  0.00     0.000 A 
ENDBRANCH   6   7
ENDBRANCH   1   6
TORSDOF 4
ENDMDL
MODEL 2
REMARK VINA RESULT:      -7.3      0.095      1.428
REMARK SMILES O=C(O)CCc1ccccc1
REMARK SMILES IDX 4 1 2 2 1 3 3 4 5 6 6 7 7 8 11 9 8 10 10 11 9 12
REMARK H PARENT 3 5
REMARK Flexibility Score: inf
ROOT
ATOM      1  C   UNL     1       8.415  -0.619  -2.151  1.00  0.00     0.127 C 
ENDROOT
BRANCH   1   2
ATOM      2  C   UNL     1       8.482  -1.893  -2.904  1.00  0.00     0.303 C 
ATOM      3  O   UNL     1       9.565  -2.471  -3.080  1.00  0.00    -0.252 OA
BRANCH   2   4
ATOM      4  O   UNL     1       7.323  -2.444  -3.418  1.00  0.00    -0.481 OA
ATOM      5  H   UNL     1       6.421  -1.982  -3.339  1.00  0.00     0.296 HD
ENDBRANCH   2   4
ENDBRANCH   1   2
BRANCH   1   6
ATOM      6  C   UNL     1       7.007  -0.076  -2.151  1.00  0.00     0.047 C 
BRANCH   6   7
ATOM      7  C   UNL     1       6.463   0.106  -0.792  1.00  0.00    -0.047 A 
ATOM      8  C   UNL     1       5.840   1.247  -0.356  1.00  0.00     0.004 A 
ATOM      9  C   UNL     1       6.594  -0.940   0.091  1.00  0.00     0.004 A 
ATOM     10  C   UNL     1       5.361   1.330   0.937  1.00  0.00     0.000 A 
ATOM     11  C   UNL     1       6.128  -0.877   1.372  1.00  0.00     0.000 A 
ATOM     12  C   UNL     1       5.501   0.270   1.810  1.00  0.00     0.000 A 
ENDBRANCH   6   7
ENDBRANCH   1   6
TORSDOF 4
ENDMDL
MODEL 3
REMARK VINA RESULT:      -6.7      3.345      5.050
REMARK SMILES O=C(O)CCc1ccccc1
REMARK SMILES IDX 4 1 2 2 1 3 3 4 5 6 6 7 7 8 11 9 8 10 10 11 9 12
REMARK H PARENT 3 5
REMARK Flexibility Score: inf
ROOT
ATOM      1  C   UNL     1       5.050   1.734   0.742  1.00  0.00     0.127 C 
ENDROOT
BRANCH   1   2
ATOM      2  C   UNL     1       4.576   1.021   1.951  1.00  0.00     0.303 C 
ATOM      3  O   UNL     1       5.273   0.145   2.487  1.00  0.00    -0.252 OA
BRANCH   2   4
ATOM      4  O   UNL     1       3.342   1.333   2.489  1.00  0.00    -0.481 OA
ATOM      5  H   UNL     1       3.106   1.137   3.457  1.00  0.00     0.296 HD
ENDBRANCH   2   4
ENDBRANCH   1   2
BRANCH   1   6
ATOM      6  C   UNL     1       6.553   1.855   0.753  1.00  0.00     0.047 C 
BRANCH   6   7
ATOM      7  C   UNL     1       7.197   1.086  -0.329  1.00  0.00    -0.047 A 
ATOM      8  C   UNL     1       8.515   1.211  -0.686  1.00  0.00     0.004 A 
ATOM      9  C   UNL     1       6.420   0.188  -1.022  1.00  0.00     0.004 A 
ATOM     10  C   UNL     1       9.036   0.450  -1.715  1.00  0.00     0.000 A 
ATOM     11  C   UNL     1       6.915  -0.572  -2.041  1.00  0.00     0.000 A 
ATOM     12  C   UNL     1       8.240  -0.448  -2.399  1.00  0.00     0.000 A 
ENDBRANCH   6   7
ENDBRANCH   1   6
TORSDOF 4
ENDMDL
MODEL 4
REMARK VINA RESULT:      -6.6      3.812      5.006
REMARK SMILES O=C(O)CCc1ccccc1
REMARK SMILES IDX 4 1 2 2 1 3 3 4 5 6 6 7 7 8 11 9 8 10 10 11 9 12
REMARK H PARENT 3 5
REMARK Flexibility Score: inf
ROOT
ATOM      1  C   UNL     1       5.481   2.892   0.076  1.00  0.00     0.127 C 
ENDROOT
BRANCH   1   2
ATOM      2  C   UNL     1       6.287   3.879   0.832  1.00  0.00     0.303 C 
ATOM      3  O   UNL     1       6.911   4.775   0.242  1.00  0.00    -0.252 OA
BRANCH   2   4
ATOM      4  O   UNL     1       6.344   3.801   2.210  1.00  0.00    -0.481 OA
ATOM      5  H   UNL     1       7.217   3.659   2.710  1.00  0.00     0.296 HD
ENDBRANCH   2   4
ENDBRANCH   1   2
BRANCH   1   6
ATOM      6  C   UNL     1       4.993   1.795   0.989  1.00  0.00     0.047 C 
BRANCH   6   7
ATOM      7  C   UNL     1       5.800   0.564   0.886  1.00  0.00    -0.047 A 
ATOM      8  C   UNL     1       6.413   0.137  -0.264  1.00  0.00     0.004 A 
ATOM      9  C   UNL     1       5.941  -0.202   2.018  1.00  0.00     0.004 A 
ATOM     10  C   UNL     1       7.150  -1.032  -0.271  1.00  0.00     0.000 A 
ATOM     11  C   UNL     1       6.663  -1.359   2.033  1.00  0.00     0.000 A 
ATOM     12  C   UNL     1       7.280  -1.788   0.877  1.00  0.00     0.000 A 
ENDBRANCH   6   7
ENDBRANCH   1   6
TORSDOF 4
ENDMDL
MODEL 5
REMARK VINA RESULT:      -6.6      1.933      2.649
REMARK SMILES O=C(O)CCc1ccccc1
REMARK SMILES IDX 4 1 2 2 1 3 3 4 5 6 6 7 7 8 11 9 8 10 10 11 9 12
REMARK H PARENT 3 5
REMARK Flexibility Score: inf
ROOT
ATOM      1  C   UNL     1       8.264   0.171  -2.174  1.00  0.00     0.127 C 
ENDROOT
BRANCH   1   2
ATOM      2  C   UNL     1       9.378   0.350  -1.212  1.00  0.00     0.303 C 
ATOM      3  O   UNL     1       9.483  -0.385  -0.218  1.00  0.00    -0.252 OA
BRANCH   2   4
ATOM      4  O   UNL     1      10.310   1.348  -1.425  1.00  0.00    -0.481 OA
ATOM      5  H   UNL     1      10.096   2.331  -1.281  1.00  0.00     0.296 HD
ENDBRANCH   2   4
ENDBRANCH   1   2
BRANCH   1   6
ATOM      6  C   UNL     1       7.122  -0.574  -1.529  1.00  0.00     0.047 C 
BRANCH   6   7
ATOM      7  C   UNL     1       6.338   0.267  -0.606  1.00  0.00    -0.047 A 
ATOM      8  C   UNL     1       5.799   1.483  -0.939  1.00  0.00     0.004 A 
ATOM      9  C   UNL     1       6.139  -0.202   0.671  1.00  0.00     0.004 A 
ATOM     10  C   UNL     1       5.077   2.206  -0.009  1.00  0.00     0.000 A 
ATOM     11  C   UNL     1       5.430   0.496   1.604  1.00  0.00     0.000 A 
ATOM     12  C   UNL     1       4.888   1.719   1.269  1.00  0.00     0.000 A 
ENDBRANCH   6   7
ENDBRANCH   1   6
TORSDOF 4
ENDMDL
