@<TRIPOS>MOLECULE
/home/cewinharhar/GITHUB/reincatalyze/data/processed/docking_pred/2023-Apr-25-1630_maxeplen5_maxtrainstep200_exh32_gamma099_lrac3e-4_lrcr1e-3/4d620996829bdf69d2437cdb6940cc233521eaf3_ligand_2.pdbqt
 12 12 0 0 0
SMALL
GASTEIGER

@<TRIPOS>ATOM
      1  C          5.4810    2.8920    0.0760 C.3     1  UNL1        0.1270
      2  C          6.2870    3.8790    0.8320 C.2     1  UNL1        0.3030
      3  O          6.9110    4.7750    0.2420 O.2     1  UNL1       -0.2520
      4  O          6.3440    3.8010    2.2100 O.3     1  UNL1       -0.4810
      5  H          7.2170    3.6590    2.7100 H       1  UNL1        0.2960
      6  C          4.9930    1.7950    0.9890 C.3     1  UNL1        0.0470
      7  C          5.8000    0.5640    0.8860 C.2     1  UNL1       -0.0470
      8  C          6.4130    0.1370   -0.2640 C.2     1  UNL1        0.0040
      9  C          5.9410   -0.2020    2.0180 C.2     1  UNL1        0.0040
     10  C          7.1500   -1.0320   -0.2710 C.2     1  UNL1        0.0000
     11  C          6.6630   -1.3590    2.0330 C.2     1  UNL1        0.0000
     12  C          7.2800   -1.7880    0.8770 C.2     1  UNL1        0.0000
@<TRIPOS>BOND
     1    10     8    1
     2    10    12    2
     3     8     7    2
     4     1     2    1
     5     1     6    1
     6     3     2    2
     7     2     4    1
     8    12    11    1
     9     7     6    1
    10     7     9    1
    11     9    11    2
    12     4     5    1
