@<TRIPOS>MOLECULE
/home/cewinharhar/GITHUB/reincatalyze/data/processed/docking_pred/2023-Apr-25-1630_maxeplen5_maxtrainstep200_exh32_gamma099_lrac3e-4_lrcr1e-3/4d620996829bdf69d2437cdb6940cc233521eaf3_ligand_2.pdbqt
 12 12 0 0 0
SMALL
GASTEIGER

@<TRIPOS>ATOM
      1  C          8.4220   -0.6180   -2.1930 C.3     1  UNL1        0.1270
      2  C          8.4780   -1.9080   -2.9210 C.2     1  UNL1        0.3030
      3  O          9.5600   -2.4850   -3.1080 O.2     1  UNL1       -0.2520
      4  O          7.3100   -2.4730   -3.3970 O.3     1  UNL1       -0.4810
      5  H          7.1110   -3.4650   -3.3070 H       1  UNL1        0.2960
      6  C          7.0090   -0.0940   -2.1490 C.3     1  UNL1        0.0470
      7  C          6.4830    0.0200   -0.7750 C.2     1  UNL1       -0.0470
      8  C          6.5820   -0.9640    0.1750 C.2     1  UNL1        0.0040
      9  C          5.8530    1.1920   -0.4290 C.2     1  UNL1        0.0040
     10  C          6.0590   -0.7720    1.4390 C.2     1  UNL1        0.0000
     11  C          5.3300    1.4020    0.8130 C.2     1  UNL1        0.0000
     12  C          5.4300    0.4130    1.7670 C.2     1  UNL1        0.0000
@<TRIPOS>BOND
     1     4     5    1
     2     4     2    1
     3     3     2    2
     4     2     1    1
     5     1     6    1
     6     6     7    1
     7     7     9    2
     8     7     8    1
     9     9    11    1
    10     8    10    2
    11    11    12    2
    12    10    12    1
