@<TRIPOS>MOLECULE
/home/cewinharhar/GITHUB/reincatalyze/data/processed/docking_pred/2023-Apr-25-1630_maxeplen5_maxtrainstep200_exh32_gamma099_lrac3e-4_lrcr1e-3/4f8338f1f65f27d68c3e57a6b5041c9c59ec4c55_ligand_2.pdbqt
 12 12 0 0 0
SMALL
GASTEIGER

@<TRIPOS>ATOM
      1  C          8.0980   -0.8110   -2.0650 C.3     1  UNL1        0.1270
      2  C          8.3260   -1.9950   -2.9260 C.2     1  UNL1        0.3030
      3  O          9.4640   -2.4730   -3.0610 O.2     1  UNL1       -0.2520
      4  O          7.2600   -2.5730   -3.5870 O.3     1  UNL1       -0.4810
      5  H          6.5890   -2.0260   -4.1180 H       1  UNL1        0.2960
      6  C          7.5030   -1.2240   -0.7420 C.3     1  UNL1        0.0470
      7  C          6.6050   -0.2010   -0.1730 C.2     1  UNL1       -0.0470
      8  C          6.1840    0.9170   -0.8470 C.2     1  UNL1        0.0040
      9  C          6.1650   -0.3840    1.1160 C.2     1  UNL1        0.0040
     10  C          5.3420    1.8260   -0.2350 C.2     1  UNL1        0.0000
     11  C          5.3340    0.5010    1.7380 C.2     1  UNL1        0.0000
     12  C          4.9110    1.6240    1.0610 C.2     1  UNL1        0.0000
@<TRIPOS>BOND
     1     5     4    1
     2     4     2    1
     3     3     2    2
     4     2     1    1
     5     1     6    1
     6     8    10    1
     7     8     7    2
     8     6     7    1
     9    10    12    2
    10     7     9    1
    11    12    11    1
    12     9    11    2
