@<TRIPOS>MOLECULE
/home/cewinharhar/GITHUB/reincatalyze/data/processed/docking_pred/2023-Apr-25-1630_maxeplen5_maxtrainstep200_exh32_gamma099_lrac3e-4_lrcr1e-3/4f8338f1f65f27d68c3e57a6b5041c9c59ec4c55_ligand_2.pdbqt
 12 12 0 0 0
SMALL
GASTEIGER

@<TRIPOS>ATOM
      1  C          5.0340    1.7390    0.6830 C.3     1  UNL1        0.1270
      2  C          4.6040    1.0480    1.9220 C.2     1  UNL1        0.3030
      3  O          5.3420    0.2180    2.4750 O.2     1  UNL1       -0.2520
      4  O          3.3670    1.3320    2.4680 O.3     1  UNL1       -0.4810
      5  H          2.8140    2.1320    2.1720 H       1  UNL1        0.2960
      6  C          6.5310    1.9210    0.6700 C.3     1  UNL1        0.0470
      7  C          7.1960    1.1210   -0.3760 C.2     1  UNL1       -0.0470
      8  C          8.5350    1.1890   -0.6660 C.2     1  UNL1        0.0040
      9  C          6.4180    0.2530   -1.1050 C.2     1  UNL1        0.0040
     10  C          9.0740    0.4020   -1.6650 C.2     1  UNL1        0.0000
     11  C          6.9320   -0.5310   -2.0960 C.2     1  UNL1        0.0000
     12  C          8.2770   -0.4640   -2.3870 C.2     1  UNL1        0.0000
@<TRIPOS>BOND
     1    12    11    2
     2    12    10    1
     3    11     9    1
     4    10     8    2
     5     9     7    2
     6     8     7    1
     7     7     6    1
     8     6     1    1
     9     1     2    1
    10     2     4    1
    11     2     3    2
    12     5     4    1
