@<TRIPOS>MOLECULE
/home/cewinharhar/GITHUB/reincatalyze/data/processed/docking_pred/2023-Apr-25-1630_maxeplen5_maxtrainstep200_exh32_gamma099_lrac3e-4_lrcr1e-3/4f8338f1f65f27d68c3e57a6b5041c9c59ec4c55_ligand_2.pdbqt
 12 12 0 0 0
SMALL
GASTEIGER

@<TRIPOS>ATOM
      1  C          8.4390   -0.6130   -2.2080 C.3     1  UNL1        0.1270
      2  C          8.4810   -1.9060   -2.9310 C.2     1  UNL1        0.3030
      3  O          9.5540   -2.5070   -3.0960 O.2     1  UNL1       -0.2520
      4  O          7.3110   -2.4480   -3.4290 O.3     1  UNL1       -0.4810
      5  H          6.6730   -2.9860   -2.8500 H       1  UNL1        0.2960
      6  C          7.0260   -0.0870   -2.1450 C.3     1  UNL1        0.0470
      7  C          6.5070   -0.0040   -0.7660 C.2     1  UNL1       -0.0470
      8  C          6.6200   -1.0060    0.1630 C.2     1  UNL1        0.0040
      9  C          5.8680    1.1550   -0.3940 C.2     1  UNL1        0.0040
     10  C          6.1030   -0.8440    1.4340 C.2     1  UNL1        0.0000
     11  C          5.3500    1.3350    0.8540 C.2     1  UNL1        0.0000
     12  C          5.4640    0.3280    1.7890 C.2     1  UNL1        0.0000
@<TRIPOS>BOND
     1     4     2    1
     2     4     5    1
     3     3     2    2
     4     2     1    1
     5     1     6    1
     6     6     7    1
     7     7     9    2
     8     7     8    1
     9     9    11    1
    10     8    10    2
    11    11    12    2
    12    10    12    1
