@<TRIPOS>MOLECULE
/home/cewinharhar/GITHUB/reincatalyze/data/processed/docking_pred/2023-Apr-25-1630_maxeplen5_maxtrainstep200_exh32_gamma099_lrac3e-4_lrcr1e-3/4f8338f1f65f27d68c3e57a6b5041c9c59ec4c55_ligand_2.pdbqt
 12 12 0 0 0
SMALL
GASTEIGER

@<TRIPOS>ATOM
      1  C          8.3790   -0.6760   -2.0720 C.3     1  UNL1        0.1270
      2  C          8.3550   -1.9130   -2.8890 C.2     1  UNL1        0.3030
      3  O          7.2790   -2.4080   -3.2590 O.2     1  UNL1       -0.2520
      4  O          9.5440   -2.5210   -3.2410 O.3     1  UNL1       -0.4810
      5  H          9.8090   -2.6760   -4.2100 H       1  UNL1        0.2960
      6  C          7.0300   -0.0020   -2.0920 C.3     1  UNL1        0.0470
      7  C          6.4510    0.1620   -0.7440 C.2     1  UNL1       -0.0470
      8  C          5.7880    1.2850   -0.3200 C.2     1  UNL1        0.0040
      9  C          6.5910   -0.8810    0.1400 C.2     1  UNL1        0.0040
     10  C          5.2790    1.3520    0.9620 C.2     1  UNL1        0.0000
     11  C          6.0960   -0.8340    1.4100 C.2     1  UNL1        0.0000
     12  C          5.4280    0.2940    1.8360 C.2     1  UNL1        0.0000
@<TRIPOS>BOND
     1     5     4    1
     2     3     2    2
     3     4     2    1
     4     2     1    1
     5     6     1    1
     6     6     7    1
     7     7     8    2
     8     7     9    1
     9     8    10    1
    10     9    11    2
    11    10    12    2
    12    11    12    1
