MODEL 1
REMARK VINA RESULT:      -7.3      0.000      0.000
REMARK SMILES O=C(O)CCc1ccccc1
REMARK SMILES IDX 4 1 2 2 1 3 3 4 5 6 6 7 7 8 11 9 8 10 10 11 9 12
REMARK H PARENT 3 5
REMARK Flexibility Score: inf
ROOT
ATOM      1  C   UNL     1       8.439  -0.613  -2.208  1.00  0.00     0.127 C 
ENDROOT
BRANCH   1   2
ATOM      2  C   UNL     1       8.481  -1.906  -2.931  1.00  0.00     0.303 C 
ATOM      3  O   UNL     1       9.554  -2.507  -3.096  1.00  0.00    -0.252 OA
BRANCH   2   4
ATOM      4  O   UNL     1       7.311  -2.448  -3.429  1.00  0.00    -0.481 OA
ATOM      5  H   UNL     1       6.673  -2.986  -2.850  1.00  0.00     0.296 HD
ENDBRANCH   2   4
ENDBRANCH   1   2
BRANCH   1   6
ATOM      6  C   UNL     1       7.026  -0.087  -2.145  1.00  0.00     0.047 C 
BRANCH   6   7
ATOM      7  C   UNL     1       6.507  -0.004  -0.766  1.00  0.00    -0.047 A 
ATOM      8  C   UNL     1       6.620  -1.006   0.163  1.00  0.00     0.004 A 
ATOM      9  C   UNL     1       5.868   1.155  -0.394  1.00  0.00     0.004 A 
ATOM     10  C   UNL     1       6.103  -0.844   1.434  1.00  0.00     0.000 A 
ATOM     11  C   UNL     1       5.350   1.335   0.854  1.00  0.00     0.000 A 
ATOM     12  C   UNL     1       5.464   0.328   1.789  1.00  0.00     0.000 A 
ENDBRANCH   6   7
ENDBRANCH   1   6
TORSDOF 4
ENDMDL
MODEL 2
REMARK VINA RESULT:      -7.3      0.137      1.725
REMARK SMILES O=C(O)CCc1ccccc1
REMARK SMILES IDX 4 1 2 2 1 3 3 4 5 6 6 7 7 8 11 9 8 10 10 11 9 12
REMARK H PARENT 3 5
REMARK Flexibility Score: inf
ROOT
ATOM      1  C   UNL     1       8.379  -0.676  -2.072  1.00  0.00     0.127 C 
ENDROOT
BRANCH   1   2
ATOM      2  C   UNL     1       8.355  -1.913  -2.889  1.00  0.00     0.303 C 
ATOM      3  O   UNL     1       7.279  -2.408  -3.259  1.00  0.00    -0.252 OA
BRANCH   2   4
ATOM      4  O   UNL     1       9.544  -2.521  -3.241  1.00  0.00    -0.481 OA
ATOM      5  H   UNL     1       9.809  -2.676  -4.210  1.00  0.00     0.296 HD
ENDBRANCH   2   4
ENDBRANCH   1   2
BRANCH   1   6
ATOM      6  C   UNL     1       7.030  -0.002  -2.092  1.00  0.00     0.047 C 
BRANCH   6   7
ATOM      7  C   UNL     1       6.451   0.162  -0.744  1.00  0.00    -0.047 A 
ATOM      8  C   UNL     1       5.788   1.285  -0.320  1.00  0.00     0.004 A 
ATOM      9  C   UNL     1       6.591  -0.881   0.140  1.00  0.00     0.004 A 
ATOM     10  C   UNL     1       5.279   1.352   0.962  1.00  0.00     0.000 A 
ATOM     11  C   UNL     1       6.096  -0.834   1.410  1.00  0.00     0.000 A 
ATOM     12  C   UNL     1       5.428   0.294   1.836  1.00  0.00     0.000 A 
ENDBRANCH   6   7
ENDBRANCH   1   6
TORSDOF 4
ENDMDL
MODEL 3
REMARK VINA RESULT:      -7.1      0.614      1.603
REMARK SMILES O=C(O)CCc1ccccc1
REMARK SMILES IDX 4 1 2 2 1 3 3 4 5 6 6 7 7 8 11 9 8 10 10 11 9 12
REMARK H PARENT 3 5
REMARK Flexibility Score: inf
ROOT
ATOM      1  C   UNL     1       8.098  -0.811  -2.065  1.00  0.00     0.127 C 
ENDROOT
BRANCH   1   2
ATOM      2  C   UNL     1       8.326  -1.995  -2.926  1.00  0.00     0.303 C 
ATOM      3  O   UNL     1       9.464  -2.473  -3.061  1.00  0.00    -0.252 OA
BRANCH   2   4
ATOM      4  O   UNL     1       7.260  -2.573  -3.587  1.00  0.00    -0.481 OA
ATOM      5  H   UNL     1       6.589  -2.026  -4.118  1.00  0.00     0.296 HD
ENDBRANCH   2   4
ENDBRANCH   1   2
BRANCH   1   6
ATOM      6  C   UNL     1       7.503  -1.224  -0.742  1.00  0.00     0.047 C 
BRANCH   6   7
ATOM      7  C   UNL     1       6.605  -0.201  -0.173  1.00  0.00    -0.047 A 
ATOM      8  C   UNL     1       6.184   0.917  -0.847  1.00  0.00     0.004 A 
ATOM      9  C   UNL     1       6.165  -0.384   1.116  1.00  0.00     0.004 A 
ATOM     10  C   UNL     1       5.342   1.826  -0.235  1.00  0.00     0.000 A 
ATOM     11  C   UNL     1       5.334   0.501   1.738  1.00  0.00     0.000 A 
ATOM     12  C   UNL     1       4.911   1.624   1.061  1.00  0.00     0.000 A 
ENDBRANCH   6   7
ENDBRANCH   1   6
TORSDOF 4
ENDMDL
MODEL 4
REMARK VINA RESULT:      -6.7      3.348      5.037
REMARK SMILES O=C(O)CCc1ccccc1
REMARK SMILES IDX 4 1 2 2 1 3 3 4 5 6 6 7 7 8 11 9 8 10 10 11 9 12
REMARK H PARENT 3 5
REMARK Flexibility Score: inf
ROOT
ATOM      1  C   UNL     1       5.034   1.739   0.683  1.00  0.00     0.127 C 
ENDROOT
BRANCH   1   2
ATOM      2  C   UNL     1       4.604   1.048   1.922  1.00  0.00     0.303 C 
ATOM      3  O   UNL     1       5.342   0.218   2.475  1.00  0.00    -0.252 OA
BRANCH   2   4
ATOM      4  O   UNL     1       3.367   1.332   2.468  1.00  0.00    -0.481 OA
ATOM      5  H   UNL     1       2.814   2.132   2.172  1.00  0.00     0.296 HD
ENDBRANCH   2   4
ENDBRANCH   1   2
BRANCH   1   6
ATOM      6  C   UNL     1       6.531   1.921   0.670  1.00  0.00     0.047 C 
BRANCH   6   7
ATOM      7  C   UNL     1       7.196   1.121  -0.376  1.00  0.00    -0.047 A 
ATOM      8  C   UNL     1       8.535   1.189  -0.666  1.00  0.00     0.004 A 
ATOM      9  C   UNL     1       6.418   0.253  -1.105  1.00  0.00     0.004 A 
ATOM     10  C   UNL     1       9.074   0.402  -1.665  1.00  0.00     0.000 A 
ATOM     11  C   UNL     1       6.932  -0.531  -2.096  1.00  0.00     0.000 A 
ATOM     12  C   UNL     1       8.277  -0.464  -2.387  1.00  0.00     0.000 A 
ENDBRANCH   6   7
ENDBRANCH   1   6
TORSDOF 4
ENDMDL
MODEL 5
REMARK VINA RESULT:      -6.7      3.833      4.977
REMARK SMILES O=C(O)CCc1ccccc1
REMARK SMILES IDX 4 1 2 2 1 3 3 4 5 6 6 7 7 8 11 9 8 10 10 11 9 12
REMARK H PARENT 3 5
REMARK Flexibility Score: inf
ROOT
ATOM      1  C   UNL     1       5.442   2.904   0.003  1.00  0.00     0.127 C 
ENDROOT
BRANCH   1   2
ATOM      2  C   UNL     1       6.241   3.873   0.790  1.00  0.00     0.303 C 
ATOM      3  O   UNL     1       6.881   4.774   0.226  1.00  0.00    -0.252 OA
BRANCH   2   4
ATOM      4  O   UNL     1       6.272   3.772   2.167  1.00  0.00    -0.481 OA
ATOM      5  H   UNL     1       5.916   4.505   2.774  1.00  0.00     0.296 HD
ENDBRANCH   2   4
ENDBRANCH   1   2
BRANCH   1   6
ATOM      6  C   UNL     1       4.895   1.819   0.897  1.00  0.00     0.047 C 
BRANCH   6   7
ATOM      7  C   UNL     1       5.728   0.601   0.895  1.00  0.00    -0.047 A 
ATOM      8  C   UNL     1       6.444   0.158  -0.187  1.00  0.00     0.004 A 
ATOM      9  C   UNL     1       5.786  -0.133   2.055  1.00  0.00     0.004 A 
ATOM     10  C   UNL     1       7.199  -0.996  -0.101  1.00  0.00     0.000 A 
ATOM     11  C   UNL     1       6.524  -1.275   2.161  1.00  0.00     0.000 A 
ATOM     12  C   UNL     1       7.244  -1.721   1.074  1.00  0.00     0.000 A 
ENDBRANCH   6   7
ENDBRANCH   1   6
TORSDOF 4
ENDMDL
