@<TRIPOS>MOLECULE
/home/cewinharhar/GITHUB/reincatalyze/data/processed/docking_pred/2023-Apr-25-1630_maxeplen5_maxtrainstep200_exh32_gamma099_lrac3e-4_lrcr1e-3/4f8338f1f65f27d68c3e57a6b5041c9c59ec4c55_ligand_2.pdbqt
 12 12 0 0 0
SMALL
GASTEIGER

@<TRIPOS>ATOM
      1  C          5.4420    2.9040    0.0030 C.3     1  UNL1        0.1270
      2  C          6.2410    3.8730    0.7900 C.2     1  UNL1        0.3030
      3  O          6.8810    4.7740    0.2260 O.2     1  UNL1       -0.2520
      4  O          6.2720    3.7720    2.1670 O.3     1  UNL1       -0.4810
      5  H          5.9160    4.5050    2.7740 H       1  UNL1        0.2960
      6  C          4.8950    1.8190    0.8970 C.3     1  UNL1        0.0470
      7  C          5.7280    0.6010    0.8950 C.2     1  UNL1       -0.0470
      8  C          6.4440    0.1580   -0.1870 C.2     1  UNL1        0.0040
      9  C          5.7860   -0.1330    2.0550 C.2     1  UNL1        0.0040
     10  C          7.1990   -0.9960   -0.1010 C.2     1  UNL1        0.0000
     11  C          6.5240   -1.2750    2.1610 C.2     1  UNL1        0.0000
     12  C          7.2440   -1.7210    1.0740 C.2     1  UNL1        0.0000
@<TRIPOS>BOND
     1     8    10    1
     2     8     7    2
     3    10    12    2
     4     1     2    1
     5     1     6    1
     6     3     2    2
     7     2     4    1
     8     7     6    1
     9     7     9    1
    10    12    11    1
    11     9    11    2
    12     4     5    1
