@<TRIPOS>MOLECULE
/home/cewinharhar/GITHUB/reincatalyze/data/processed/docking_pred/2023-Apr-25-1630_maxeplen5_maxtrainstep200_exh32_gamma099_lrac3e-4_lrcr1e-3/5131ba4422f83928eab452067adeb3f7f7723c60_ligand_2.pdbqt
 12 12 0 0 0
SMALL
GASTEIGER

@<TRIPOS>ATOM
      1  C          7.3510   -1.3920   -2.0230 C.3     1  UNL1        0.1270
      2  C          8.7700   -1.4190   -2.4500 C.2     1  UNL1        0.3030
      3  O          9.2050   -2.3480   -3.1480 O.2     1  UNL1       -0.2520
      4  O          9.6170   -0.3970   -2.0680 O.3     1  UNL1       -0.4810
      5  H         10.3680   -0.5360   -1.3980 H       1  UNL1        0.2960
      6  C          7.2490   -1.4710   -0.5200 C.3     1  UNL1        0.0470
      7  C          6.4470   -0.3760    0.0580 C.2     1  UNL1       -0.0470
      8  C          5.8840   -0.4080    1.3080 C.2     1  UNL1        0.0040
      9  C          6.2520    0.7460   -0.7120 C.2     1  UNL1        0.0040
     10  C          5.1460    0.6650    1.7700 C.2     1  UNL1        0.0000
     11  C          5.5260    1.8150   -0.2750 C.2     1  UNL1        0.0000
     12  C          4.9610    1.7840    0.9820 C.2     1  UNL1        0.0000
@<TRIPOS>BOND
     1     3     2    2
     2     2     4    1
     3     2     1    1
     4     4     5    1
     5     1     6    1
     6     9    11    1
     7     9     7    2
     8     6     7    1
     9    11    12    2
    10     7     8    1
    11    12    10    1
    12     8    10    2
