@<TRIPOS>MOLECULE
/home/cewinharhar/GITHUB/reincatalyze/data/processed/docking_pred/2023-Apr-25-1630_maxeplen5_maxtrainstep200_exh32_gamma099_lrac3e-4_lrcr1e-3/5131ba4422f83928eab452067adeb3f7f7723c60_ligand_2.pdbqt
 12 12 0 0 0
SMALL
GASTEIGER

@<TRIPOS>ATOM
      1  C          5.0060    1.7960    0.7260 C.3     1  UNL1        0.1270
      2  C          4.4900    1.1020    1.9300 C.2     1  UNL1        0.3030
      3  O          5.1480    0.2010    2.4740 O.2     1  UNL1       -0.2520
      4  O          3.2630    1.4610    2.4510 O.3     1  UNL1       -0.4810
      5  H          2.5210    1.8500    1.8760 H       1  UNL1        0.2960
      6  C          6.5140    1.8210    0.7340 C.3     1  UNL1        0.0470
      7  C          7.1060    1.0200   -0.3550 C.2     1  UNL1       -0.0470
      8  C          6.4170    0.0920   -1.0930 C.2     1  UNL1        0.0040
      9  C          8.4350    1.2210   -0.6440 C.2     1  UNL1        0.0040
     10  C          7.0520   -0.6140   -2.0960 C.2     1  UNL1        0.0000
     11  C          9.0800    0.5340   -1.6290 C.2     1  UNL1        0.0000
     12  C          8.3880   -0.3990   -2.3720 C.2     1  UNL1        0.0000
@<TRIPOS>BOND
     1    12    10    2
     2    12    11    1
     3    10     8    1
     4    11     9    2
     5     8     7    2
     6     9     7    1
     7     7     6    1
     8     1     6    1
     9     1     2    1
    10     5     4    1
    11     2     4    1
    12     2     3    2
