@<TRIPOS>MOLECULE
/home/cewinharhar/GITHUB/reincatalyze/data/processed/docking_pred/2023-Apr-25-1630_maxeplen5_maxtrainstep200_exh32_gamma099_lrac3e-4_lrcr1e-3/5131ba4422f83928eab452067adeb3f7f7723c60_ligand_2.pdbqt
 12 12 0 0 0
SMALL
GASTEIGER

@<TRIPOS>ATOM
      1  C          5.0120    1.7650    0.7210 C.3     1  UNL1        0.1270
      2  C          4.4910    1.0870    1.9320 C.2     1  UNL1        0.3030
      3  O          5.1420    0.1890    2.4870 O.2     1  UNL1       -0.2520
      4  O          3.2640    1.4600    2.4480 O.3     1  UNL1       -0.4810
      5  H          2.6570    2.1250    1.9780 H       1  UNL1        0.2960
      6  C          6.5170    1.8590    0.7730 C.3     1  UNL1        0.0470
      7  C          7.1740    1.1100   -0.3150 C.2     1  UNL1       -0.0470
      8  C          8.5010    1.2300   -0.6430 C.2     1  UNL1        0.0040
      9  C          6.4030    0.2390   -1.0470 C.2     1  UNL1        0.0040
     10  C          9.0340    0.4900   -1.6800 C.2     1  UNL1        0.0000
     11  C          6.9100   -0.5000   -2.0740 C.2     1  UNL1        0.0000
     12  C          8.2430   -0.3800   -2.4030 C.2     1  UNL1        0.0000
@<TRIPOS>BOND
     1    12    11    2
     2    12    10    1
     3    11     9    1
     4    10     8    2
     5     9     7    2
     6     8     7    1
     7     7     6    1
     8     1     6    1
     9     1     2    1
    10     2     4    1
    11     2     3    2
    12     5     4    1
