MODEL 1
REMARK VINA RESULT:      -7.3      0.000      0.000
REMARK SMILES O=C(O)CCc1ccccc1
REMARK SMILES IDX 4 1 2 2 1 3 3 4 5 6 6 7 7 8 11 9 8 10 10 11 9 12
REMARK H PARENT 3 5
REMARK Flexibility Score: inf
ROOT
ATOM      1  C   UNL     1       8.416  -0.657  -2.121  1.00  0.00     0.127 C 
ENDROOT
BRANCH   1   2
ATOM      2  C   UNL     1       8.380  -1.917  -2.900  1.00  0.00     0.303 C 
ATOM      3  O   UNL     1       7.299  -2.422  -3.242  1.00  0.00    -0.252 OA
BRANCH   2   4
ATOM      4  O   UNL     1       9.564  -2.537  -3.250  1.00  0.00    -0.481 OA
ATOM      5  H   UNL     1      10.382  -2.016  -3.552  1.00  0.00     0.296 HD
ENDBRANCH   2   4
ENDBRANCH   1   2
BRANCH   1   6
ATOM      6  C   UNL     1       7.051  -0.018  -2.084  1.00  0.00     0.047 C 
BRANCH   6   7
ATOM      7  C   UNL     1       6.493   0.063  -0.720  1.00  0.00    -0.047 A 
ATOM      8  C   UNL     1       6.586  -0.938   0.213  1.00  0.00     0.004 A 
ATOM      9  C   UNL     1       5.837   1.219  -0.367  1.00  0.00     0.004 A 
ATOM     10  C   UNL     1       6.032  -0.777   1.468  1.00  0.00     0.000 A 
ATOM     11  C   UNL     1       5.284   1.397   0.866  1.00  0.00     0.000 A 
ATOM     12  C   UNL     1       5.378   0.391   1.804  1.00  0.00     0.000 A 
ENDBRANCH   6   7
ENDBRANCH   1   6
TORSDOF 4
ENDMDL
MODEL 2
REMARK VINA RESULT:      -7.3      0.112      1.431
REMARK SMILES O=C(O)CCc1ccccc1
REMARK SMILES IDX 4 1 2 2 1 3 3 4 5 6 6 7 7 8 11 9 8 10 10 11 9 12
REMARK H PARENT 3 5
REMARK Flexibility Score: inf
ROOT
ATOM      1  C   UNL     1       8.381  -0.798  -1.926  1.00  0.00     0.127 C 
ENDROOT
BRANCH   1   2
ATOM      2  C   UNL     1       8.350  -1.962  -2.843  1.00  0.00     0.303 C 
ATOM      3  O   UNL     1       7.272  -2.408  -3.266  1.00  0.00    -0.252 OA
BRANCH   2   4
ATOM      4  O   UNL     1       9.535  -2.557  -3.231  1.00  0.00    -0.481 OA
ATOM      5  H   UNL     1      10.441  -2.135  -3.047  1.00  0.00     0.296 HD
ENDBRANCH   2   4
ENDBRANCH   1   2
BRANCH   1   6
ATOM      6  C   UNL     1       7.094  -0.018  -2.015  1.00  0.00     0.047 C 
BRANCH   6   7
ATOM      7  C   UNL     1       6.456   0.188  -0.700  1.00  0.00    -0.047 A 
ATOM      8  C   UNL     1       5.763   1.317  -0.347  1.00  0.00     0.004 A 
ATOM      9  C   UNL     1       6.569  -0.821   0.227  1.00  0.00     0.004 A 
ATOM     10  C   UNL     1       5.198   1.425   0.910  1.00  0.00     0.000 A 
ATOM     11  C   UNL     1       6.019  -0.733   1.472  1.00  0.00     0.000 A 
ATOM     12  C   UNL     1       5.322   0.401   1.828  1.00  0.00     0.000 A 
ENDBRANCH   6   7
ENDBRANCH   1   6
TORSDOF 4
ENDMDL
MODEL 3
REMARK VINA RESULT:      -6.8      3.315      5.152
REMARK SMILES O=C(O)CCc1ccccc1
REMARK SMILES IDX 4 1 2 2 1 3 3 4 5 6 6 7 7 8 11 9 8 10 10 11 9 12
REMARK H PARENT 3 5
REMARK Flexibility Score: inf
ROOT
ATOM      1  C   UNL     1       5.012   1.765   0.721  1.00  0.00     0.127 C 
ENDROOT
BRANCH   1   2
ATOM      2  C   UNL     1       4.491   1.087   1.932  1.00  0.00     0.303 C 
ATOM      3  O   UNL     1       5.142   0.189   2.487  1.00  0.00    -0.252 OA
BRANCH   2   4
ATOM      4  O   UNL     1       3.264   1.460   2.448  1.00  0.00    -0.481 OA
ATOM      5  H   UNL     1       2.657   2.125   1.978  1.00  0.00     0.296 HD
ENDBRANCH   2   4
ENDBRANCH   1   2
BRANCH   1   6
ATOM      6  C   UNL     1       6.517   1.859   0.773  1.00  0.00     0.047 C 
BRANCH   6   7
ATOM      7  C   UNL     1       7.174   1.110  -0.315  1.00  0.00    -0.047 A 
ATOM      8  C   UNL     1       8.501   1.230  -0.643  1.00  0.00     0.004 A 
ATOM      9  C   UNL     1       6.403   0.239  -1.047  1.00  0.00     0.004 A 
ATOM     10  C   UNL     1       9.034   0.490  -1.680  1.00  0.00     0.000 A 
ATOM     11  C   UNL     1       6.910  -0.500  -2.074  1.00  0.00     0.000 A 
ATOM     12  C   UNL     1       8.243  -0.380  -2.403  1.00  0.00     0.000 A 
ENDBRANCH   6   7
ENDBRANCH   1   6
TORSDOF 4
ENDMDL
MODEL 4
REMARK VINA RESULT:      -6.8      3.310      5.140
REMARK SMILES O=C(O)CCc1ccccc1
REMARK SMILES IDX 4 1 2 2 1 3 3 4 5 6 6 7 7 8 11 9 8 10 10 11 9 12
REMARK H PARENT 3 5
REMARK Flexibility Score: inf
ROOT
ATOM      1  C   UNL     1       5.006   1.796   0.726  1.00  0.00     0.127 C 
ENDROOT
BRANCH   1   2
ATOM      2  C   UNL     1       4.490   1.102   1.930  1.00  0.00     0.303 C 
ATOM      3  O   UNL     1       5.148   0.201   2.474  1.00  0.00    -0.252 OA
BRANCH   2   4
ATOM      4  O   UNL     1       3.263   1.461   2.451  1.00  0.00    -0.481 OA
ATOM      5  H   UNL     1       2.521   1.850   1.876  1.00  0.00     0.296 HD
ENDBRANCH   2   4
ENDBRANCH   1   2
BRANCH   1   6
ATOM      6  C   UNL     1       6.514   1.821   0.734  1.00  0.00     0.047 C 
BRANCH   6   7
ATOM      7  C   UNL     1       7.106   1.020  -0.355  1.00  0.00    -0.047 A 
ATOM      8  C   UNL     1       6.417   0.092  -1.093  1.00  0.00     0.004 A 
ATOM      9  C   UNL     1       8.435   1.221  -0.644  1.00  0.00     0.004 A 
ATOM     10  C   UNL     1       7.052  -0.614  -2.096  1.00  0.00     0.000 A 
ATOM     11  C   UNL     1       9.080   0.534  -1.629  1.00  0.00     0.000 A 
ATOM     12  C   UNL     1       8.388  -0.399  -2.372  1.00  0.00     0.000 A 
ENDBRANCH   6   7
ENDBRANCH   1   6
TORSDOF 4
ENDMDL
MODEL 5
REMARK VINA RESULT:      -6.8      1.028      1.569
REMARK SMILES O=C(O)CCc1ccccc1
REMARK SMILES IDX 4 1 2 2 1 3 3 4 5 6 6 7 7 8 11 9 8 10 10 11 9 12
REMARK H PARENT 3 5
REMARK Flexibility Score: inf
ROOT
ATOM      1  C   UNL     1       7.351  -1.392  -2.023  1.00  0.00     0.127 C 
ENDROOT
BRANCH   1   2
ATOM      2  C   UNL     1       8.770  -1.419  -2.450  1.00  0.00     0.303 C 
ATOM      3  O   UNL     1       9.205  -2.348  -3.148  1.00  0.00    -0.252 OA
BRANCH   2   4
ATOM      4  O   UNL     1       9.617  -0.397  -2.068  1.00  0.00    -0.481 OA
ATOM      5  H   UNL     1      10.368  -0.536  -1.398  1.00  0.00     0.296 HD
ENDBRANCH   2   4
ENDBRANCH   1   2
BRANCH   1   6
ATOM      6  C   UNL     1       7.249  -1.471  -0.520  1.00  0.00     0.047 C 
BRANCH   6   7
ATOM      7  C   UNL     1       6.447  -0.376   0.058  1.00  0.00    -0.047 A 
ATOM      8  C   UNL     1       5.884  -0.408   1.308  1.00  0.00     0.004 A 
ATOM      9  C   UNL     1       6.252   0.746  -0.712  1.00  0.00     0.004 A 
ATOM     10  C   UNL     1       5.146   0.665   1.770  1.00  0.00     0.000 A 
ATOM     11  C   UNL     1       5.526   1.815  -0.275  1.00  0.00     0.000 A 
ATOM     12  C   UNL     1       4.961   1.784   0.982  1.00  0.00     0.000 A 
ENDBRANCH   6   7
ENDBRANCH   1   6
TORSDOF 4
ENDMDL
