@<TRIPOS>MOLECULE
/home/cewinharhar/GITHUB/reincatalyze/data/processed/docking_pred/2023-Apr-25-1630_maxeplen5_maxtrainstep200_exh32_gamma099_lrac3e-4_lrcr1e-3/5131ba4422f83928eab452067adeb3f7f7723c60_ligand_2.pdbqt
 12 12 0 0 0
SMALL
GASTEIGER

@<TRIPOS>ATOM
      1  C          8.3810   -0.7980   -1.9260 C.3     1  UNL1        0.1270
      2  C          8.3500   -1.9620   -2.8430 C.2     1  UNL1        0.3030
      3  O          7.2720   -2.4080   -3.2660 O.2     1  UNL1       -0.2520
      4  O          9.5350   -2.5570   -3.2310 O.3     1  UNL1       -0.4810
      5  H         10.4410   -2.1350   -3.0470 H       1  UNL1        0.2960
      6  C          7.0940   -0.0180   -2.0150 C.3     1  UNL1        0.0470
      7  C          6.4560    0.1880   -0.7000 C.2     1  UNL1       -0.0470
      8  C          5.7630    1.3170   -0.3470 C.2     1  UNL1        0.0040
      9  C          6.5690   -0.8210    0.2270 C.2     1  UNL1        0.0040
     10  C          5.1980    1.4250    0.9100 C.2     1  UNL1        0.0000
     11  C          6.0190   -0.7330    1.4720 C.2     1  UNL1        0.0000
     12  C          5.3220    0.4010    1.8280 C.2     1  UNL1        0.0000
@<TRIPOS>BOND
     1     3     2    2
     2     4     5    1
     3     4     2    1
     4     2     1    1
     5     6     1    1
     6     6     7    1
     7     7     8    2
     8     7     9    1
     9     8    10    1
    10     9    11    2
    11    10    12    2
    12    11    12    1
