MODEL 1
REMARK VINA RESULT:      -7.3      0.000      0.000
REMARK SMILES O=C(O)CCc1ccccc1
REMARK SMILES IDX 4 1 2 2 1 3 3 4 5 6 6 7 7 8 11 9 8 10 10 11 9 12
REMARK H PARENT 3 5
REMARK Flexibility Score: inf
ROOT
ATOM      1  C   UNL     1       8.430  -0.583  -2.217  1.00  0.00     0.127 C 
ENDROOT
BRANCH   1   2
ATOM      2  C   UNL     1       8.487  -1.890  -2.914  1.00  0.00     0.303 C 
ATOM      3  O   UNL     1       9.569  -2.474  -3.082  1.00  0.00    -0.252 OA
BRANCH   2   4
ATOM      4  O   UNL     1       7.321  -2.463  -3.384  1.00  0.00    -0.481 OA
ATOM      5  H   UNL     1       6.414  -2.267  -2.971  1.00  0.00     0.296 HD
ENDBRANCH   2   4
ENDBRANCH   1   2
BRANCH   1   6
ATOM      6  C   UNL     1       7.011  -0.076  -2.156  1.00  0.00     0.047 C 
BRANCH   6   7
ATOM      7  C   UNL     1       6.495   0.019  -0.777  1.00  0.00    -0.047 A 
ATOM      8  C   UNL     1       6.603  -0.978   0.158  1.00  0.00     0.004 A 
ATOM      9  C   UNL     1       5.865   1.185  -0.412  1.00  0.00     0.004 A 
ATOM     10  C   UNL     1       6.089  -0.803   1.428  1.00  0.00     0.000 A 
ATOM     11  C   UNL     1       5.350   1.376   0.837  1.00  0.00     0.000 A 
ATOM     12  C   UNL     1       5.459   0.375   1.777  1.00  0.00     0.000 A 
ENDBRANCH   6   7
ENDBRANCH   1   6
TORSDOF 4
ENDMDL
MODEL 2
REMARK VINA RESULT:      -7.3      0.130      1.430
REMARK SMILES O=C(O)CCc1ccccc1
REMARK SMILES IDX 4 1 2 2 1 3 3 4 5 6 6 7 7 8 11 9 8 10 10 11 9 12
REMARK H PARENT 3 5
REMARK Flexibility Score: inf
ROOT
ATOM      1  C   UNL     1       8.402  -0.619  -2.157  1.00  0.00     0.127 C 
ENDROOT
BRANCH   1   2
ATOM      2  C   UNL     1       8.459  -1.893  -2.912  1.00  0.00     0.303 C 
ATOM      3  O   UNL     1       9.537  -2.481  -3.087  1.00  0.00    -0.252 OA
BRANCH   2   4
ATOM      4  O   UNL     1       7.296  -2.432  -3.428  1.00  0.00    -0.481 OA
ATOM      5  H   UNL     1       7.257  -2.859  -4.350  1.00  0.00     0.296 HD
ENDBRANCH   2   4
ENDBRANCH   1   2
BRANCH   1   6
ATOM      6  C   UNL     1       6.993  -0.082  -2.128  1.00  0.00     0.047 C 
BRANCH   6   7
ATOM      7  C   UNL     1       6.463   0.061  -0.759  1.00  0.00    -0.047 A 
ATOM      8  C   UNL     1       5.834   1.186  -0.288  1.00  0.00     0.004 A 
ATOM      9  C   UNL     1       6.613  -1.004   0.097  1.00  0.00     0.004 A 
ATOM     10  C   UNL     1       5.369   1.234   1.012  1.00  0.00     0.000 A 
ATOM     11  C   UNL     1       6.161  -0.976   1.384  1.00  0.00     0.000 A 
ATOM     12  C   UNL     1       5.529   0.153   1.857  1.00  0.00     0.000 A 
ENDBRANCH   6   7
ENDBRANCH   1   6
TORSDOF 4
ENDMDL
MODEL 3
REMARK VINA RESULT:      -6.8      3.370      5.060
REMARK SMILES O=C(O)CCc1ccccc1
REMARK SMILES IDX 4 1 2 2 1 3 3 4 5 6 6 7 7 8 11 9 8 10 10 11 9 12
REMARK H PARENT 3 5
REMARK Flexibility Score: inf
ROOT
ATOM      1  C   UNL     1       5.004   1.796   0.750  1.00  0.00     0.127 C 
ENDROOT
BRANCH   1   2
ATOM      2  C   UNL     1       4.474   1.094   1.943  1.00  0.00     0.303 C 
ATOM      3  O   UNL     1       5.120   0.182   2.482  1.00  0.00    -0.252 OA
BRANCH   2   4
ATOM      4  O   UNL     1       3.246   1.458   2.459  1.00  0.00    -0.481 OA
ATOM      5  H   UNL     1       2.833   2.371   2.287  1.00  0.00     0.296 HD
ENDBRANCH   2   4
ENDBRANCH   1   2
BRANCH   1   6
ATOM      6  C   UNL     1       6.512   1.799   0.763  1.00  0.00     0.047 C 
BRANCH   6   7
ATOM      7  C   UNL     1       7.096   1.005  -0.335  1.00  0.00    -0.047 A 
ATOM      8  C   UNL     1       6.413   0.053  -1.048  1.00  0.00     0.004 A 
ATOM      9  C   UNL     1       8.411   1.239  -0.661  1.00  0.00     0.004 A 
ATOM     10  C   UNL     1       7.040  -0.645  -2.061  1.00  0.00     0.000 A 
ATOM     11  C   UNL     1       9.049   0.561  -1.657  1.00  0.00     0.000 A 
ATOM     12  C   UNL     1       8.362  -0.396  -2.374  1.00  0.00     0.000 A 
ENDBRANCH   6   7
ENDBRANCH   1   6
TORSDOF 4
ENDMDL
MODEL 4
REMARK VINA RESULT:      -6.7      3.372      5.078
REMARK SMILES O=C(O)CCc1ccccc1
REMARK SMILES IDX 4 1 2 2 1 3 3 4 5 6 6 7 7 8 11 9 8 10 10 11 9 12
REMARK H PARENT 3 5
REMARK Flexibility Score: inf
ROOT
ATOM      1  C   UNL     1       5.045   1.793   0.762  1.00  0.00     0.127 C 
ENDROOT
BRANCH   1   2
ATOM      2  C   UNL     1       4.489   1.093   1.944  1.00  0.00     0.303 C 
ATOM      3  O   UNL     1       5.116   0.173   2.491  1.00  0.00    -0.252 OA
BRANCH   2   4
ATOM      4  O   UNL     1       3.256   1.470   2.442  1.00  0.00    -0.481 OA
ATOM      5  H   UNL     1       2.600   2.028   1.904  1.00  0.00     0.296 HD
ENDBRANCH   2   4
ENDBRANCH   1   2
BRANCH   1   6
ATOM      6  C   UNL     1       6.552   1.817   0.821  1.00  0.00     0.047 C 
BRANCH   6   7
ATOM      7  C   UNL     1       7.181   1.084  -0.294  1.00  0.00    -0.047 A 
ATOM      8  C   UNL     1       8.493   1.224  -0.668  1.00  0.00     0.004 A 
ATOM      9  C   UNL     1       6.396   0.205  -1.001  1.00  0.00     0.004 A 
ATOM     10  C   UNL     1       8.999   0.497  -1.728  1.00  0.00     0.000 A 
ATOM     11  C   UNL     1       6.876  -0.522  -2.051  1.00  0.00     0.000 A 
ATOM     12  C   UNL     1       8.195  -0.382  -2.427  1.00  0.00     0.000 A 
ENDBRANCH   6   7
ENDBRANCH   1   6
TORSDOF 4
ENDMDL
MODEL 5
REMARK VINA RESULT:      -6.6      1.939      2.667
REMARK SMILES O=C(O)CCc1ccccc1
REMARK SMILES IDX 4 1 2 2 1 3 3 4 5 6 6 7 7 8 11 9 8 10 10 11 9 12
REMARK H PARENT 3 5
REMARK Flexibility Score: inf
ROOT
ATOM      1  C   UNL     1       8.262   0.224  -2.182  1.00  0.00     0.127 C 
ENDROOT
BRANCH   1   2
ATOM      2  C   UNL     1       9.378   0.368  -1.217  1.00  0.00     0.303 C 
ATOM      3  O   UNL     1       9.466  -0.380  -0.231  1.00  0.00    -0.252 OA
BRANCH   2   4
ATOM      4  O   UNL     1      10.332   1.347  -1.419  1.00  0.00    -0.481 OA
ATOM      5  H   UNL     1      11.324   1.136  -1.473  1.00  0.00     0.296 HD
ENDBRANCH   2   4
ENDBRANCH   1   2
BRANCH   1   6
ATOM      6  C   UNL     1       7.104  -0.506  -1.548  1.00  0.00     0.047 C 
BRANCH   6   7
ATOM      7  C   UNL     1       6.317   0.349  -0.639  1.00  0.00    -0.047 A 
ATOM      8  C   UNL     1       5.794   1.568  -0.985  1.00  0.00     0.004 A 
ATOM      9  C   UNL     1       6.099  -0.111   0.638  1.00  0.00     0.004 A 
ATOM     10  C   UNL     1       5.068   2.303  -0.068  1.00  0.00     0.000 A 
ATOM     11  C   UNL     1       5.387   0.600   1.559  1.00  0.00     0.000 A 
ATOM     12  C   UNL     1       4.859   1.825   1.210  1.00  0.00     0.000 A 
ENDBRANCH   6   7
ENDBRANCH   1   6
TORSDOF 4
ENDMDL
