@<TRIPOS>MOLECULE
/home/cewinharhar/GITHUB/reincatalyze/data/processed/docking_pred/2023-Apr-25-1630_maxeplen5_maxtrainstep200_exh32_gamma099_lrac3e-4_lrcr1e-3/51335195432d6c3c52ef841bfe8bb9323d602809_ligand_2.pdbqt
 12 12 0 0 0
SMALL
GASTEIGER

@<TRIPOS>ATOM
      1  C          5.0450    1.7930    0.7620 C.3     1  UNL1        0.1270
      2  C          4.4890    1.0930    1.9440 C.2     1  UNL1        0.3030
      3  O          5.1160    0.1730    2.4910 O.2     1  UNL1       -0.2520
      4  O          3.2560    1.4700    2.4420 O.3     1  UNL1       -0.4810
      5  H          2.6000    2.0280    1.9040 H       1  UNL1        0.2960
      6  C          6.5520    1.8170    0.8210 C.3     1  UNL1        0.0470
      7  C          7.1810    1.0840   -0.2940 C.2     1  UNL1       -0.0470
      8  C          8.4930    1.2240   -0.6680 C.2     1  UNL1        0.0040
      9  C          6.3960    0.2050   -1.0010 C.2     1  UNL1        0.0040
     10  C          8.9990    0.4970   -1.7280 C.2     1  UNL1        0.0000
     11  C          6.8760   -0.5220   -2.0510 C.2     1  UNL1        0.0000
     12  C          8.1950   -0.3820   -2.4270 C.2     1  UNL1        0.0000
@<TRIPOS>BOND
     1    12    11    2
     2    12    10    1
     3    11     9    1
     4    10     8    2
     5     9     7    2
     6     8     7    1
     7     7     6    1
     8     1     6    1
     9     1     2    1
    10     5     4    1
    11     2     4    1
    12     2     3    2
