@<TRIPOS>MOLECULE
/home/cewinharhar/GITHUB/reincatalyze/data/processed/docking_pred/2023-Apr-25-1630_maxeplen5_maxtrainstep200_exh32_gamma099_lrac3e-4_lrcr1e-3/51335195432d6c3c52ef841bfe8bb9323d602809_ligand_2.pdbqt
 12 12 0 0 0
SMALL
GASTEIGER

@<TRIPOS>ATOM
      1  C          8.2620    0.2240   -2.1820 C.3     1  UNL1        0.1270
      2  C          9.3780    0.3680   -1.2170 C.2     1  UNL1        0.3030
      3  O          9.4660   -0.3800   -0.2310 O.2     1  UNL1       -0.2520
      4  O         10.3320    1.3470   -1.4190 O.3     1  UNL1       -0.4810
      5  H         11.3240    1.1360   -1.4730 H       1  UNL1        0.2960
      6  C          7.1040   -0.5060   -1.5480 C.3     1  UNL1        0.0470
      7  C          6.3170    0.3490   -0.6390 C.2     1  UNL1       -0.0470
      8  C          5.7940    1.5680   -0.9850 C.2     1  UNL1        0.0040
      9  C          6.0990   -0.1110    0.6380 C.2     1  UNL1        0.0040
     10  C          5.0680    2.3030   -0.0680 C.2     1  UNL1        0.0000
     11  C          5.3870    0.6000    1.5590 C.2     1  UNL1        0.0000
     12  C          4.8590    1.8250    1.2100 C.2     1  UNL1        0.0000
@<TRIPOS>BOND
     1     1     6    1
     2     1     2    1
     3     6     7    1
     4     5     4    1
     5     4     2    1
     6     2     3    2
     7     8     7    2
     8     8    10    1
     9     7     9    1
    10    10    12    2
    11     9    11    2
    12    12    11    1
