@<TRIPOS>MOLECULE
/home/cewinharhar/GITHUB/reincatalyze/data/processed/docking_pred/2023-Apr-25-1630_maxeplen5_maxtrainstep200_exh32_gamma099_lrac3e-4_lrcr1e-3/51335195432d6c3c52ef841bfe8bb9323d602809_ligand_2.pdbqt
 12 12 0 0 0
SMALL
GASTEIGER

@<TRIPOS>ATOM
      1  C          8.4020   -0.6190   -2.1570 C.3     1  UNL1        0.1270
      2  C          8.4590   -1.8930   -2.9120 C.2     1  UNL1        0.3030
      3  O          9.5370   -2.4810   -3.0870 O.2     1  UNL1       -0.2520
      4  O          7.2960   -2.4320   -3.4280 O.3     1  UNL1       -0.4810
      5  H          7.2570   -2.8590   -4.3500 H       1  UNL1        0.2960
      6  C          6.9930   -0.0820   -2.1280 C.3     1  UNL1        0.0470
      7  C          6.4630    0.0610   -0.7590 C.2     1  UNL1       -0.0470
      8  C          5.8340    1.1860   -0.2880 C.2     1  UNL1        0.0040
      9  C          6.6130   -1.0040    0.0970 C.2     1  UNL1        0.0040
     10  C          5.3690    1.2340    1.0120 C.2     1  UNL1        0.0000
     11  C          6.1610   -0.9760    1.3840 C.2     1  UNL1        0.0000
     12  C          5.5290    0.1530    1.8570 C.2     1  UNL1        0.0000
@<TRIPOS>BOND
     1     5     4    1
     2     4     2    1
     3     3     2    2
     4     2     1    1
     5     1     6    1
     6     6     7    1
     7     7     8    2
     8     7     9    1
     9     8    10    1
    10     9    11    2
    11    10    12    2
    12    11    12    1
