@<TRIPOS>MOLECULE
/home/cewinharhar/GITHUB/reincatalyze/data/processed/docking_pred/2023-Apr-25-1630_maxeplen5_maxtrainstep200_exh32_gamma099_lrac3e-4_lrcr1e-3/51335195432d6c3c52ef841bfe8bb9323d602809_ligand_2.pdbqt
 12 12 0 0 0
SMALL
GASTEIGER

@<TRIPOS>ATOM
      1  C          8.4300   -0.5830   -2.2170 C.3     1  UNL1        0.1270
      2  C          8.4870   -1.8900   -2.9140 C.2     1  UNL1        0.3030
      3  O          9.5690   -2.4740   -3.0820 O.2     1  UNL1       -0.2520
      4  O          7.3210   -2.4630   -3.3840 O.3     1  UNL1       -0.4810
      5  H          6.4140   -2.2670   -2.9710 H       1  UNL1        0.2960
      6  C          7.0110   -0.0760   -2.1560 C.3     1  UNL1        0.0470
      7  C          6.4950    0.0190   -0.7770 C.2     1  UNL1       -0.0470
      8  C          6.6030   -0.9780    0.1580 C.2     1  UNL1        0.0040
      9  C          5.8650    1.1850   -0.4120 C.2     1  UNL1        0.0040
     10  C          6.0890   -0.8030    1.4280 C.2     1  UNL1        0.0000
     11  C          5.3500    1.3760    0.8370 C.2     1  UNL1        0.0000
     12  C          5.4590    0.3750    1.7770 C.2     1  UNL1        0.0000
@<TRIPOS>BOND
     1     4     5    1
     2     4     2    1
     3     3     2    2
     4     2     1    1
     5     1     6    1
     6     6     7    1
     7     7     9    2
     8     7     8    1
     9     9    11    1
    10     8    10    2
    11    11    12    2
    12    10    12    1
