@<TRIPOS>MOLECULE
/home/cewinharhar/GITHUB/reincatalyze/data/processed/docking_pred/2023-Apr-25-1630_maxeplen5_maxtrainstep200_exh32_gamma099_lrac3e-4_lrcr1e-3/51335195432d6c3c52ef841bfe8bb9323d602809_ligand_2.pdbqt
 12 12 0 0 0
SMALL
GASTEIGER

@<TRIPOS>ATOM
      1  C          5.0040    1.7960    0.7500 C.3     1  UNL1        0.1270
      2  C          4.4740    1.0940    1.9430 C.2     1  UNL1        0.3030
      3  O          5.1200    0.1820    2.4820 O.2     1  UNL1       -0.2520
      4  O          3.2460    1.4580    2.4590 O.3     1  UNL1       -0.4810
      5  H          2.8330    2.3710    2.2870 H       1  UNL1        0.2960
      6  C          6.5120    1.7990    0.7630 C.3     1  UNL1        0.0470
      7  C          7.0960    1.0050   -0.3350 C.2     1  UNL1       -0.0470
      8  C          6.4130    0.0530   -1.0480 C.2     1  UNL1        0.0040
      9  C          8.4110    1.2390   -0.6610 C.2     1  UNL1        0.0040
     10  C          7.0400   -0.6450   -2.0610 C.2     1  UNL1        0.0000
     11  C          9.0490    0.5610   -1.6570 C.2     1  UNL1        0.0000
     12  C          8.3620   -0.3960   -2.3740 C.2     1  UNL1        0.0000
@<TRIPOS>BOND
     1    12    10    2
     2    12    11    1
     3    10     8    1
     4    11     9    2
     5     8     7    2
     6     9     7    1
     7     7     6    1
     8     1     6    1
     9     1     2    1
    10     2     4    1
    11     2     3    2
    12     5     4    1
