@<TRIPOS>MOLECULE
/home/cewinharhar/GITHUB/reincatalyze/data/processed/docking_pred/2023-Apr-25-1630_maxeplen5_maxtrainstep200_exh32_gamma099_lrac3e-4_lrcr1e-3/53c3fbcdd7c01d09a3e8b21e27d629f70ce21da9_ligand_2.pdbqt
 12 12 0 0 0
SMALL
GASTEIGER

@<TRIPOS>ATOM
      1  C          7.3550   -1.4860   -1.9730 C.3     1  UNL1        0.1270
      2  C          8.7590   -1.4100   -2.4410 C.2     1  UNL1        0.3030
      3  O          9.2340   -2.2940   -3.1710 O.2     1  UNL1       -0.2520
      4  O          9.5480   -0.3420   -2.0600 O.3     1  UNL1       -0.4810
      5  H          9.1830    0.6030   -1.9830 H       1  UNL1        0.2960
      6  C          7.2980   -1.4770   -0.4660 C.3     1  UNL1        0.0470
      7  C          6.4800   -0.3710    0.0690 C.2     1  UNL1       -0.0470
      8  C          5.9480   -0.3460    1.3330 C.2     1  UNL1        0.0040
      9  C          6.2380    0.7000   -0.7580 C.2     1  UNL1        0.0040
     10  C          5.1920    0.7320    1.7510 C.2     1  UNL1        0.0000
     11  C          5.4950    1.7730   -0.3640 C.2     1  UNL1        0.0000
     12  C          4.9600    1.7990    0.9070 C.2     1  UNL1        0.0000
@<TRIPOS>BOND
     1     3     2    2
     2     2     4    1
     3     2     1    1
     4     4     5    1
     5     1     6    1
     6     9    11    1
     7     9     7    2
     8     6     7    1
     9    11    12    2
    10     7     8    1
    11    12    10    1
    12     8    10    2
