@<TRIPOS>MOLECULE
/home/cewinharhar/GITHUB/reincatalyze/data/processed/docking_pred/2023-Apr-25-1630_maxeplen5_maxtrainstep200_exh32_gamma099_lrac3e-4_lrcr1e-3/53c3fbcdd7c01d09a3e8b21e27d629f70ce21da9_ligand_2.pdbqt
 12 12 0 0 0
SMALL
GASTEIGER

@<TRIPOS>ATOM
      1  C          8.4150   -0.6190   -2.1540 C.3     1  UNL1        0.1270
      2  C          8.4840   -1.8950   -2.9050 C.2     1  UNL1        0.3030
      3  O          9.5680   -2.4730   -3.0780 O.2     1  UNL1       -0.2520
      4  O          7.3260   -2.4460   -3.4210 O.3     1  UNL1       -0.4810
      5  H          6.9120   -2.1240   -4.2910 H       1  UNL1        0.2960
      6  C          7.0100   -0.0720   -2.1660 C.3     1  UNL1        0.0470
      7  C          6.4600    0.1230   -0.8100 C.2     1  UNL1       -0.0470
      8  C          5.8280    1.2650   -0.3900 C.2     1  UNL1        0.0040
      9  C          6.5940   -0.9110    0.0860 C.2     1  UNL1        0.0040
     10  C          5.3430    1.3610    0.9000 C.2     1  UNL1        0.0000
     11  C          6.1230   -0.8350    1.3640 C.2     1  UNL1        0.0000
     12  C          5.4870    0.3120    1.7860 C.2     1  UNL1        0.0000
@<TRIPOS>BOND
     1     5     4    1
     2     4     2    1
     3     3     2    2
     4     2     1    1
     5     6     1    1
     6     6     7    1
     7     7     8    2
     8     7     9    1
     9     8    10    1
    10     9    11    2
    11    10    12    2
    12    11    12    1
