@<TRIPOS>MOLECULE
/home/cewinharhar/GITHUB/reincatalyze/data/processed/docking_pred/2023-Apr-25-1630_maxeplen5_maxtrainstep200_exh32_gamma099_lrac3e-4_lrcr1e-3/53c3fbcdd7c01d09a3e8b21e27d629f70ce21da9_ligand_2.pdbqt
 12 12 0 0 0
SMALL
GASTEIGER

@<TRIPOS>ATOM
      1  C          8.1100   -0.7930   -2.0580 C.3     1  UNL1        0.1270
      2  C          8.3450   -1.9710   -2.9260 C.2     1  UNL1        0.3030
      3  O          9.4910   -2.4180   -3.0930 O.2     1  UNL1       -0.2520
      4  O          7.2760   -2.5790   -3.5560 O.3     1  UNL1       -0.4810
      5  H          6.3340   -2.2030   -3.5100 H       1  UNL1        0.2960
      6  C          7.5150   -1.2170   -0.7380 C.3     1  UNL1        0.0470
      7  C          6.6160   -0.1980   -0.1620 C.2     1  UNL1       -0.0470
      8  C          6.1930    0.9230   -0.8270 C.2     1  UNL1        0.0040
      9  C          6.1800   -0.3910    1.1280 C.2     1  UNL1        0.0040
     10  C          5.3500    1.8260   -0.2090 C.2     1  UNL1        0.0000
     11  C          5.3490    0.4890    1.7560 C.2     1  UNL1        0.0000
     12  C          4.9220    1.6160    1.0870 C.2     1  UNL1        0.0000
@<TRIPOS>BOND
     1     4     5    1
     2     4     2    1
     3     3     2    2
     4     2     1    1
     5     1     6    1
     6     8    10    1
     7     8     7    2
     8     6     7    1
     9    10    12    2
    10     7     9    1
    11    12    11    1
    12     9    11    2
