@<TRIPOS>MOLECULE
/home/cewinharhar/GITHUB/reincatalyze/data/processed/docking_pred/2023-Apr-25-1630_maxeplen5_maxtrainstep200_exh32_gamma099_lrac3e-4_lrcr1e-3/53c3fbcdd7c01d09a3e8b21e27d629f70ce21da9_ligand_2.pdbqt
 12 12 0 0 0
SMALL
GASTEIGER

@<TRIPOS>ATOM
      1  C          8.4360   -0.5840   -2.2300 C.3     1  UNL1        0.1270
      2  C          8.4950   -1.8900   -2.9290 C.2     1  UNL1        0.3030
      3  O          9.5760   -2.4790   -3.0840 O.2     1  UNL1       -0.2520
      4  O          7.3320   -2.4580   -3.4120 O.3     1  UNL1       -0.4810
      5  H          6.8270   -2.0710   -4.2050 H       1  UNL1        0.2960
      6  C          7.0160   -0.0820   -2.1630 C.3     1  UNL1        0.0470
      7  C          6.5040    0.0050   -0.7810 C.2     1  UNL1       -0.0470
      8  C          6.6360   -0.9880    0.1550 C.2     1  UNL1        0.0040
      9  C          5.8520    1.1580   -0.4150 C.2     1  UNL1        0.0040
     10  C          6.1250   -0.8220    1.4270 C.2     1  UNL1        0.0000
     11  C          5.3400    1.3420    0.8350 C.2     1  UNL1        0.0000
     12  C          5.4730    0.3440    1.7770 C.2     1  UNL1        0.0000
@<TRIPOS>BOND
     1     5     4    1
     2     4     2    1
     3     3     2    2
     4     2     1    1
     5     1     6    1
     6     6     7    1
     7     7     9    2
     8     7     8    1
     9     9    11    1
    10     8    10    2
    11    11    12    2
    12    10    12    1
