MODEL 1
REMARK VINA RESULT:      -7.3      0.000      0.000
REMARK SMILES O=C(O)CCc1ccccc1
REMARK SMILES IDX 4 1 2 2 1 3 3 4 5 6 6 7 7 8 11 9 8 10 10 11 9 12
REMARK H PARENT 3 5
REMARK Flexibility Score: inf
ROOT
ATOM      1  C   UNL     1       8.436  -0.584  -2.230  1.00  0.00     0.127 C 
ENDROOT
BRANCH   1   2
ATOM      2  C   UNL     1       8.495  -1.890  -2.929  1.00  0.00     0.303 C 
ATOM      3  O   UNL     1       9.576  -2.479  -3.084  1.00  0.00    -0.252 OA
BRANCH   2   4
ATOM      4  O   UNL     1       7.332  -2.458  -3.412  1.00  0.00    -0.481 OA
ATOM      5  H   UNL     1       6.827  -2.071  -4.205  1.00  0.00     0.296 HD
ENDBRANCH   2   4
ENDBRANCH   1   2
BRANCH   1   6
ATOM      6  C   UNL     1       7.016  -0.082  -2.163  1.00  0.00     0.047 C 
BRANCH   6   7
ATOM      7  C   UNL     1       6.504   0.005  -0.781  1.00  0.00    -0.047 A 
ATOM      8  C   UNL     1       6.636  -0.988   0.155  1.00  0.00     0.004 A 
ATOM      9  C   UNL     1       5.852   1.158  -0.415  1.00  0.00     0.004 A 
ATOM     10  C   UNL     1       6.125  -0.822   1.427  1.00  0.00     0.000 A 
ATOM     11  C   UNL     1       5.340   1.342   0.835  1.00  0.00     0.000 A 
ATOM     12  C   UNL     1       5.473   0.344   1.777  1.00  0.00     0.000 A 
ENDBRANCH   6   7
ENDBRANCH   1   6
TORSDOF 4
ENDMDL
MODEL 2
REMARK VINA RESULT:      -7.3      0.074      1.428
REMARK SMILES O=C(O)CCc1ccccc1
REMARK SMILES IDX 4 1 2 2 1 3 3 4 5 6 6 7 7 8 11 9 8 10 10 11 9 12
REMARK H PARENT 3 5
REMARK Flexibility Score: inf
ROOT
ATOM      1  C   UNL     1       8.415  -0.619  -2.154  1.00  0.00     0.127 C 
ENDROOT
BRANCH   1   2
ATOM      2  C   UNL     1       8.484  -1.895  -2.905  1.00  0.00     0.303 C 
ATOM      3  O   UNL     1       9.568  -2.473  -3.078  1.00  0.00    -0.252 OA
BRANCH   2   4
ATOM      4  O   UNL     1       7.326  -2.446  -3.421  1.00  0.00    -0.481 OA
ATOM      5  H   UNL     1       6.912  -2.124  -4.291  1.00  0.00     0.296 HD
ENDBRANCH   2   4
ENDBRANCH   1   2
BRANCH   1   6
ATOM      6  C   UNL     1       7.010  -0.072  -2.166  1.00  0.00     0.047 C 
BRANCH   6   7
ATOM      7  C   UNL     1       6.460   0.123  -0.810  1.00  0.00    -0.047 A 
ATOM      8  C   UNL     1       5.828   1.265  -0.390  1.00  0.00     0.004 A 
ATOM      9  C   UNL     1       6.594  -0.911   0.086  1.00  0.00     0.004 A 
ATOM     10  C   UNL     1       5.343   1.361   0.900  1.00  0.00     0.000 A 
ATOM     11  C   UNL     1       6.123  -0.835   1.364  1.00  0.00     0.000 A 
ATOM     12  C   UNL     1       5.487   0.312   1.786  1.00  0.00     0.000 A 
ENDBRANCH   6   7
ENDBRANCH   1   6
TORSDOF 4
ENDMDL
MODEL 3
REMARK VINA RESULT:      -7.1      0.611      1.602
REMARK SMILES O=C(O)CCc1ccccc1
REMARK SMILES IDX 4 1 2 2 1 3 3 4 5 6 6 7 7 8 11 9 8 10 10 11 9 12
REMARK H PARENT 3 5
REMARK Flexibility Score: inf
ROOT
ATOM      1  C   UNL     1       8.110  -0.793  -2.058  1.00  0.00     0.127 C 
ENDROOT
BRANCH   1   2
ATOM      2  C   UNL     1       8.345  -1.971  -2.926  1.00  0.00     0.303 C 
ATOM      3  O   UNL     1       9.491  -2.418  -3.093  1.00  0.00    -0.252 OA
BRANCH   2   4
ATOM      4  O   UNL     1       7.276  -2.579  -3.556  1.00  0.00    -0.481 OA
ATOM      5  H   UNL     1       6.334  -2.203  -3.510  1.00  0.00     0.296 HD
ENDBRANCH   2   4
ENDBRANCH   1   2
BRANCH   1   6
ATOM      6  C   UNL     1       7.515  -1.217  -0.738  1.00  0.00     0.047 C 
BRANCH   6   7
ATOM      7  C   UNL     1       6.616  -0.198  -0.162  1.00  0.00    -0.047 A 
ATOM      8  C   UNL     1       6.193   0.923  -0.827  1.00  0.00     0.004 A 
ATOM      9  C   UNL     1       6.180  -0.391   1.128  1.00  0.00     0.004 A 
ATOM     10  C   UNL     1       5.350   1.826  -0.209  1.00  0.00     0.000 A 
ATOM     11  C   UNL     1       5.349   0.489   1.756  1.00  0.00     0.000 A 
ATOM     12  C   UNL     1       4.922   1.616   1.087  1.00  0.00     0.000 A 
ENDBRANCH   6   7
ENDBRANCH   1   6
TORSDOF 4
ENDMDL
MODEL 4
REMARK VINA RESULT:      -6.8      1.030      1.669
REMARK SMILES O=C(O)CCc1ccccc1
REMARK SMILES IDX 4 1 2 2 1 3 3 4 5 6 6 7 7 8 11 9 8 10 10 11 9 12
REMARK H PARENT 3 5
REMARK Flexibility Score: inf
ROOT
ATOM      1  C   UNL     1       7.355  -1.486  -1.973  1.00  0.00     0.127 C 
ENDROOT
BRANCH   1   2
ATOM      2  C   UNL     1       8.759  -1.410  -2.441  1.00  0.00     0.303 C 
ATOM      3  O   UNL     1       9.234  -2.294  -3.171  1.00  0.00    -0.252 OA
BRANCH   2   4
ATOM      4  O   UNL     1       9.548  -0.342  -2.060  1.00  0.00    -0.481 OA
ATOM      5  H   UNL     1       9.183   0.603  -1.983  1.00  0.00     0.296 HD
ENDBRANCH   2   4
ENDBRANCH   1   2
BRANCH   1   6
ATOM      6  C   UNL     1       7.298  -1.477  -0.466  1.00  0.00     0.047 C 
BRANCH   6   7
ATOM      7  C   UNL     1       6.480  -0.371   0.069  1.00  0.00    -0.047 A 
ATOM      8  C   UNL     1       5.948  -0.346   1.333  1.00  0.00     0.004 A 
ATOM      9  C   UNL     1       6.238   0.700  -0.758  1.00  0.00     0.004 A 
ATOM     10  C   UNL     1       5.192   0.732   1.751  1.00  0.00     0.000 A 
ATOM     11  C   UNL     1       5.495   1.773  -0.364  1.00  0.00     0.000 A 
ATOM     12  C   UNL     1       4.960   1.799   0.907  1.00  0.00     0.000 A 
ENDBRANCH   6   7
ENDBRANCH   1   6
TORSDOF 4
ENDMDL
MODEL 5
REMARK VINA RESULT:      -6.8      3.381      5.070
REMARK SMILES O=C(O)CCc1ccccc1
REMARK SMILES IDX 4 1 2 2 1 3 3 4 5 6 6 7 7 8 11 9 8 10 10 11 9 12
REMARK H PARENT 3 5
REMARK Flexibility Score: inf
ROOT
ATOM      1  C   UNL     1       4.996   1.798   0.715  1.00  0.00     0.127 C 
ENDROOT
BRANCH   1   2
ATOM      2  C   UNL     1       4.499   1.110   1.930  1.00  0.00     0.303 C 
ATOM      3  O   UNL     1       5.176   0.229   2.482  1.00  0.00    -0.252 OA
BRANCH   2   4
ATOM      4  O   UNL     1       3.268   1.454   2.454  1.00  0.00    -0.481 OA
ATOM      5  H   UNL     1       3.125   2.303   2.992  1.00  0.00     0.296 HD
ENDBRANCH   2   4
ENDBRANCH   1   2
BRANCH   1   6
ATOM      6  C   UNL     1       6.503   1.852   0.715  1.00  0.00     0.047 C 
BRANCH   6   7
ATOM      7  C   UNL     1       7.105   1.047  -0.366  1.00  0.00    -0.047 A 
ATOM      8  C   UNL     1       6.415   0.136  -1.125  1.00  0.00     0.004 A 
ATOM      9  C   UNL     1       8.443   1.224  -0.623  1.00  0.00     0.004 A 
ATOM     10  C   UNL     1       7.060  -0.577  -2.117  1.00  0.00     0.000 A 
ATOM     11  C   UNL     1       9.098   0.530  -1.597  1.00  0.00     0.000 A 
ATOM     12  C   UNL     1       8.406  -0.385  -2.361  1.00  0.00     0.000 A 
ENDBRANCH   6   7
ENDBRANCH   1   6
TORSDOF 4
ENDMDL
