MODEL 1
REMARK VINA RESULT:      -7.3      0.000      0.000
REMARK SMILES O=C(O)CCc1ccccc1
REMARK SMILES IDX 4 1 2 2 1 3 3 4 5 6 6 7 7 8 11 9 8 10 10 11 9 12
REMARK H PARENT 3 5
REMARK Flexibility Score: inf
ROOT
ATOM      1  C   UNL     1       8.400  -0.702  -2.074  1.00  0.00     0.127 C 
ENDROOT
BRANCH   1   2
ATOM      2  C   UNL     1       8.454  -1.936  -2.892  1.00  0.00     0.303 C 
ATOM      3  O   UNL     1       9.531  -2.516  -3.097  1.00  0.00    -0.252 OA
BRANCH   2   4
ATOM      4  O   UNL     1       7.289  -2.448  -3.432  1.00  0.00    -0.481 OA
ATOM      5  H   UNL     1       7.294  -3.153  -4.164  1.00  0.00     0.296 HD
ENDBRANCH   2   4
ENDBRANCH   1   2
BRANCH   1   6
ATOM      6  C   UNL     1       7.017  -0.102  -2.109  1.00  0.00     0.047 C 
BRANCH   6   7
ATOM      7  C   UNL     1       6.448   0.106  -0.763  1.00  0.00    -0.047 A 
ATOM      8  C   UNL     1       5.802   1.248  -0.367  1.00  0.00     0.004 A 
ATOM      9  C   UNL     1       6.580  -0.915   0.148  1.00  0.00     0.004 A 
ATOM     10  C   UNL     1       5.300   1.358   0.916  1.00  0.00     0.000 A 
ATOM     11  C   UNL     1       6.093  -0.826   1.419  1.00  0.00     0.000 A 
ATOM     12  C   UNL     1       5.442   0.322   1.818  1.00  0.00     0.000 A 
ENDBRANCH   6   7
ENDBRANCH   1   6
TORSDOF 4
ENDMDL
MODEL 2
REMARK VINA RESULT:      -7.3      0.098      1.430
REMARK SMILES O=C(O)CCc1ccccc1
REMARK SMILES IDX 4 1 2 2 1 3 3 4 5 6 6 7 7 8 11 9 8 10 10 11 9 12
REMARK H PARENT 3 5
REMARK Flexibility Score: inf
ROOT
ATOM      1  C   UNL     1       8.448  -0.563  -2.217  1.00  0.00     0.127 C 
ENDROOT
BRANCH   1   2
ATOM      2  C   UNL     1       8.496  -1.866  -2.922  1.00  0.00     0.303 C 
ATOM      3  O   UNL     1       9.572  -2.460  -3.087  1.00  0.00    -0.252 OA
BRANCH   2   4
ATOM      4  O   UNL     1       7.327  -2.425  -3.402  1.00  0.00    -0.481 OA
ATOM      5  H   UNL     1       7.142  -3.423  -3.354  1.00  0.00     0.296 HD
ENDBRANCH   2   4
ENDBRANCH   1   2
BRANCH   1   6
ATOM      6  C   UNL     1       7.034  -0.041  -2.163  1.00  0.00     0.047 C 
BRANCH   6   7
ATOM      7  C   UNL     1       6.509   0.048  -0.787  1.00  0.00    -0.047 A 
ATOM      8  C   UNL     1       6.627  -0.947   0.150  1.00  0.00     0.004 A 
ATOM      9  C   UNL     1       5.858   1.204  -0.426  1.00  0.00     0.004 A 
ATOM     10  C   UNL     1       6.102  -0.779   1.417  1.00  0.00     0.000 A 
ATOM     11  C   UNL     1       5.333   1.389   0.819  1.00  0.00     0.000 A 
ATOM     12  C   UNL     1       5.453   0.389   1.761  1.00  0.00     0.000 A 
ENDBRANCH   6   7
ENDBRANCH   1   6
TORSDOF 4
ENDMDL
MODEL 3
REMARK VINA RESULT:      -7.2      0.602      1.603
REMARK SMILES O=C(O)CCc1ccccc1
REMARK SMILES IDX 4 1 2 2 1 3 3 4 5 6 6 7 7 8 11 9 8 10 10 11 9 12
REMARK H PARENT 3 5
REMARK Flexibility Score: inf
ROOT
ATOM      1  C   UNL     1       8.216  -0.966  -1.827  1.00  0.00     0.127 C 
ENDROOT
BRANCH   1   2
ATOM      2  C   UNL     1       8.380  -2.030  -2.845  1.00  0.00     0.303 C 
ATOM      3  O   UNL     1       9.503  -2.485  -3.114  1.00  0.00    -0.252 OA
BRANCH   2   4
ATOM      4  O   UNL     1       7.269  -2.521  -3.504  1.00  0.00    -0.481 OA
ATOM      5  H   UNL     1       6.584  -3.115  -3.046  1.00  0.00     0.296 HD
ENDBRANCH   2   4
ENDBRANCH   1   2
BRANCH   1   6
ATOM      6  C   UNL     1       7.380  -1.461  -0.673  1.00  0.00     0.047 C 
BRANCH   6   7
ATOM      7  C   UNL     1       6.559  -0.397  -0.063  1.00  0.00    -0.047 A 
ATOM      8  C   UNL     1       6.092  -0.426   1.226  1.00  0.00     0.004 A 
ATOM      9  C   UNL     1       6.245   0.691  -0.842  1.00  0.00     0.004 A 
ATOM     10  C   UNL     1       5.327   0.615   1.715  1.00  0.00     0.000 A 
ATOM     11  C   UNL     1       5.491   1.728  -0.378  1.00  0.00     0.000 A 
ATOM     12  C   UNL     1       5.021   1.699   0.918  1.00  0.00     0.000 A 
ENDBRANCH   6   7
ENDBRANCH   1   6
TORSDOF 4
ENDMDL
MODEL 4
REMARK VINA RESULT:      -7.2      0.625      1.087
REMARK SMILES O=C(O)CCc1ccccc1
REMARK SMILES IDX 4 1 2 2 1 3 3 4 5 6 6 7 7 8 11 9 8 10 10 11 9 12
REMARK H PARENT 3 5
REMARK Flexibility Score: inf
ROOT
ATOM      1  C   UNL     1       8.191  -0.918  -1.948  1.00  0.00     0.127 C 
ENDROOT
BRANCH   1   2
ATOM      2  C   UNL     1       8.387  -2.047  -2.887  1.00  0.00     0.303 C 
ATOM      3  O   UNL     1       9.518  -2.515  -3.091  1.00  0.00    -0.252 OA
BRANCH   2   4
ATOM      4  O   UNL     1       7.297  -2.586  -3.543  1.00  0.00    -0.481 OA
ATOM      5  H   UNL     1       6.453  -2.051  -3.724  1.00  0.00     0.296 HD
ENDBRANCH   2   4
ENDBRANCH   1   2
BRANCH   1   6
ATOM      6  C   UNL     1       7.381  -1.356  -0.753  1.00  0.00     0.047 C 
BRANCH   6   7
ATOM      7  C   UNL     1       6.550  -0.271  -0.196  1.00  0.00    -0.047 A 
ATOM      8  C   UNL     1       6.181   0.853  -0.890  1.00  0.00     0.004 A 
ATOM      9  C   UNL     1       6.121  -0.400   1.103  1.00  0.00     0.004 A 
ATOM     10  C   UNL     1       5.400   1.820  -0.288  1.00  0.00     0.000 A 
ATOM     11  C   UNL     1       5.350   0.543   1.715  1.00  0.00     0.000 A 
ATOM     12  C   UNL     1       4.979   1.673   1.018  1.00  0.00     0.000 A 
ENDBRANCH   6   7
ENDBRANCH   1   6
TORSDOF 4
ENDMDL
MODEL 5
REMARK VINA RESULT:      -6.8      3.379      5.088
REMARK SMILES O=C(O)CCc1ccccc1
REMARK SMILES IDX 4 1 2 2 1 3 3 4 5 6 6 7 7 8 11 9 8 10 10 11 9 12
REMARK H PARENT 3 5
REMARK Flexibility Score: inf
ROOT
ATOM      1  C   UNL     1       4.977   1.787   0.715  1.00  0.00     0.127 C 
ENDROOT
BRANCH   1   2
ATOM      2  C   UNL     1       4.467   1.096   1.923  1.00  0.00     0.303 C 
ATOM      3  O   UNL     1       5.123   0.191   2.461  1.00  0.00    -0.252 OA
BRANCH   2   4
ATOM      4  O   UNL     1       3.247   1.465   2.455  1.00  0.00    -0.481 OA
ATOM      5  H   UNL     1       2.380   1.390   1.930  1.00  0.00     0.296 HD
ENDBRANCH   2   4
ENDBRANCH   1   2
BRANCH   1   6
ATOM      6  C   UNL     1       6.485   1.830   0.726  1.00  0.00     0.047 C 
BRANCH   6   7
ATOM      7  C   UNL     1       7.089   1.023  -0.352  1.00  0.00    -0.047 A 
ATOM      8  C   UNL     1       6.412   0.079  -1.081  1.00  0.00     0.004 A 
ATOM      9  C   UNL     1       8.417   1.233  -0.638  1.00  0.00     0.004 A 
ATOM     10  C   UNL     1       7.058  -0.633  -2.073  1.00  0.00     0.000 A 
ATOM     11  C   UNL     1       9.073   0.540  -1.613  1.00  0.00     0.000 A 
ATOM     12  C   UNL     1       8.392  -0.408  -2.347  1.00  0.00     0.000 A 
ENDBRANCH   6   7
ENDBRANCH   1   6
TORSDOF 4
ENDMDL
