@<TRIPOS>MOLECULE
/home/cewinharhar/GITHUB/reincatalyze/data/processed/docking_pred/2023-Apr-25-1630_maxeplen5_maxtrainstep200_exh32_gamma099_lrac3e-4_lrcr1e-3/54c3cf531f582f2d935f1daccafc2f163e83168d_ligand_2.pdbqt
 12 12 0 0 0
SMALL
GASTEIGER

@<TRIPOS>ATOM
      1  C          8.4480   -0.5630   -2.2170 C.3     1  UNL1        0.1270
      2  C          8.4960   -1.8660   -2.9220 C.2     1  UNL1        0.3030
      3  O          9.5720   -2.4600   -3.0870 O.2     1  UNL1       -0.2520
      4  O          7.3270   -2.4250   -3.4020 O.3     1  UNL1       -0.4810
      5  H          7.1420   -3.4230   -3.3540 H       1  UNL1        0.2960
      6  C          7.0340   -0.0410   -2.1630 C.3     1  UNL1        0.0470
      7  C          6.5090    0.0480   -0.7870 C.2     1  UNL1       -0.0470
      8  C          6.6270   -0.9470    0.1500 C.2     1  UNL1        0.0040
      9  C          5.8580    1.2040   -0.4260 C.2     1  UNL1        0.0040
     10  C          6.1020   -0.7790    1.4170 C.2     1  UNL1        0.0000
     11  C          5.3330    1.3890    0.8190 C.2     1  UNL1        0.0000
     12  C          5.4530    0.3890    1.7610 C.2     1  UNL1        0.0000
@<TRIPOS>BOND
     1     4     5    1
     2     4     2    1
     3     3     2    2
     4     2     1    1
     5     1     6    1
     6     6     7    1
     7     7     9    2
     8     7     8    1
     9     9    11    1
    10     8    10    2
    11    11    12    2
    12    10    12    1
