@<TRIPOS>MOLECULE
/home/cewinharhar/GITHUB/reincatalyze/data/processed/docking_pred/2023-Apr-25-1630_maxeplen5_maxtrainstep200_exh32_gamma099_lrac3e-4_lrcr1e-3/54c3cf531f582f2d935f1daccafc2f163e83168d_ligand_2.pdbqt
 12 12 0 0 0
SMALL
GASTEIGER

@<TRIPOS>ATOM
      1  C          8.1910   -0.9180   -1.9480 C.3     1  UNL1        0.1270
      2  C          8.3870   -2.0470   -2.8870 C.2     1  UNL1        0.3030
      3  O          9.5180   -2.5150   -3.0910 O.2     1  UNL1       -0.2520
      4  O          7.2970   -2.5860   -3.5430 O.3     1  UNL1       -0.4810
      5  H          6.4530   -2.0510   -3.7240 H       1  UNL1        0.2960
      6  C          7.3810   -1.3560   -0.7530 C.3     1  UNL1        0.0470
      7  C          6.5500   -0.2710   -0.1960 C.2     1  UNL1       -0.0470
      8  C          6.1810    0.8530   -0.8900 C.2     1  UNL1        0.0040
      9  C          6.1210   -0.4000    1.1030 C.2     1  UNL1        0.0040
     10  C          5.4000    1.8200   -0.2880 C.2     1  UNL1        0.0000
     11  C          5.3500    0.5430    1.7150 C.2     1  UNL1        0.0000
     12  C          4.9790    1.6730    1.0180 C.2     1  UNL1        0.0000
@<TRIPOS>BOND
     1     5     4    1
     2     4     2    1
     3     3     2    2
     4     2     1    1
     5     1     6    1
     6     8    10    1
     7     8     7    2
     8     6     7    1
     9    10    12    2
    10     7     9    1
    11    12    11    1
    12     9    11    2
