@<TRIPOS>MOLECULE
/home/cewinharhar/GITHUB/reincatalyze/data/processed/docking_pred/2023-Apr-25-1630_maxeplen5_maxtrainstep200_exh32_gamma099_lrac3e-4_lrcr1e-3/54c3cf531f582f2d935f1daccafc2f163e83168d_ligand_2.pdbqt
 12 12 0 0 0
SMALL
GASTEIGER

@<TRIPOS>ATOM
      1  C          8.2160   -0.9660   -1.8270 C.3     1  UNL1        0.1270
      2  C          8.3800   -2.0300   -2.8450 C.2     1  UNL1        0.3030
      3  O          9.5030   -2.4850   -3.1140 O.2     1  UNL1       -0.2520
      4  O          7.2690   -2.5210   -3.5040 O.3     1  UNL1       -0.4810
      5  H          6.5840   -3.1150   -3.0460 H       1  UNL1        0.2960
      6  C          7.3800   -1.4610   -0.6730 C.3     1  UNL1        0.0470
      7  C          6.5590   -0.3970   -0.0630 C.2     1  UNL1       -0.0470
      8  C          6.0920   -0.4260    1.2260 C.2     1  UNL1        0.0040
      9  C          6.2450    0.6910   -0.8420 C.2     1  UNL1        0.0040
     10  C          5.3270    0.6150    1.7150 C.2     1  UNL1        0.0000
     11  C          5.4910    1.7280   -0.3780 C.2     1  UNL1        0.0000
     12  C          5.0210    1.6990    0.9180 C.2     1  UNL1        0.0000
@<TRIPOS>BOND
     1     4     5    1
     2     4     2    1
     3     3     2    2
     4     2     1    1
     5     1     6    1
     6     9    11    1
     7     9     7    2
     8     6     7    1
     9    11    12    2
    10     7     8    1
    11    12    10    1
    12     8    10    2
