@<TRIPOS>MOLECULE
/home/cewinharhar/GITHUB/reincatalyze/data/processed/docking_pred/2023-Apr-25-1630_maxeplen5_maxtrainstep200_exh32_gamma099_lrac3e-4_lrcr1e-3/5bd4159c0713ad18fb2d2a846002564f6b7df27c_ligand_2.pdbqt
 12 12 0 0 0
SMALL
GASTEIGER

@<TRIPOS>ATOM
      1  C          5.0370    1.7040    0.6800 C.3     1  UNL1        0.1270
      2  C          4.6010    1.0290    1.9250 C.2     1  UNL1        0.3030
      3  O          5.3290    0.1940    2.4840 O.2     1  UNL1       -0.2520
      4  O          3.3680    1.3320    2.4700 O.3     1  UNL1       -0.4810
      5  H          3.1000    2.2810    2.7120 H       1  UNL1        0.2960
      6  C          6.5340    1.8910    0.6760 C.3     1  UNL1        0.0470
      7  C          7.2060    1.1020   -0.3750 C.2     1  UNL1       -0.0470
      8  C          8.5440    1.1800   -0.6630 C.2     1  UNL1        0.0040
      9  C          6.4350    0.2340   -1.1120 C.2     1  UNL1        0.0040
     10  C          9.0900    0.4040   -1.6660 C.2     1  UNL1        0.0000
     11  C          6.9540   -0.5400   -2.1070 C.2     1  UNL1        0.0000
     12  C          8.3000   -0.4620   -2.3960 C.2     1  UNL1        0.0000
@<TRIPOS>BOND
     1    12    11    2
     2    12    10    1
     3    11     9    1
     4    10     8    2
     5     9     7    2
     6     8     7    1
     7     7     6    1
     8     6     1    1
     9     1     2    1
    10     2     4    1
    11     2     3    2
    12     4     5    1
