MODEL 1
REMARK VINA RESULT:      -7.3      0.000      0.000
REMARK SMILES O=C(O)CCc1ccccc1
REMARK SMILES IDX 4 1 2 2 1 3 3 4 5 6 6 7 7 8 11 9 8 10 10 11 9 12
REMARK H PARENT 3 5
REMARK Flexibility Score: inf
ROOT
ATOM      1  C   UNL     1       8.426  -0.628  -2.176  1.00  0.00     0.127 C 
ENDROOT
BRANCH   1   2
ATOM      2  C   UNL     1       8.480  -1.907  -2.921  1.00  0.00     0.303 C 
ATOM      3  O   UNL     1       9.557  -2.500  -3.088  1.00  0.00    -0.252 OA
BRANCH   2   4
ATOM      4  O   UNL     1       7.317  -2.447  -3.437  1.00  0.00    -0.481 OA
ATOM      5  H   UNL     1       6.408  -2.015  -3.294  1.00  0.00     0.296 HD
ENDBRANCH   2   4
ENDBRANCH   1   2
BRANCH   1   6
ATOM      6  C   UNL     1       7.025  -0.070  -2.182  1.00  0.00     0.047 C 
BRANCH   6   7
ATOM      7  C   UNL     1       6.476   0.115  -0.825  1.00  0.00    -0.047 A 
ATOM      8  C   UNL     1       5.839   1.251  -0.397  1.00  0.00     0.004 A 
ATOM      9  C   UNL     1       6.618  -0.923   0.066  1.00  0.00     0.004 A 
ATOM     10  C   UNL     1       5.356   1.338   0.894  1.00  0.00     0.000 A 
ATOM     11  C   UNL     1       6.149  -0.857   1.345  1.00  0.00     0.000 A 
ATOM     12  C   UNL     1       5.507   0.285   1.775  1.00  0.00     0.000 A 
ENDBRANCH   6   7
ENDBRANCH   1   6
TORSDOF 4
ENDMDL
MODEL 2
REMARK VINA RESULT:      -7.3      0.087      1.429
REMARK SMILES O=C(O)CCc1ccccc1
REMARK SMILES IDX 4 1 2 2 1 3 3 4 5 6 6 7 7 8 11 9 8 10 10 11 9 12
REMARK H PARENT 3 5
REMARK Flexibility Score: inf
ROOT
ATOM      1  C   UNL     1       8.428  -0.577  -2.205  1.00  0.00     0.127 C 
ENDROOT
BRANCH   1   2
ATOM      2  C   UNL     1       8.489  -1.874  -2.918  1.00  0.00     0.303 C 
ATOM      3  O   UNL     1       9.572  -2.458  -3.083  1.00  0.00    -0.252 OA
BRANCH   2   4
ATOM      4  O   UNL     1       7.327  -2.440  -3.407  1.00  0.00    -0.481 OA
ATOM      5  H   UNL     1       6.996  -2.271  -4.352  1.00  0.00     0.296 HD
ENDBRANCH   2   4
ENDBRANCH   1   2
BRANCH   1   6
ATOM      6  C   UNL     1       7.006  -0.079  -2.131  1.00  0.00     0.047 C 
BRANCH   6   7
ATOM      7  C   UNL     1       6.495  -0.010  -0.749  1.00  0.00    -0.047 A 
ATOM      8  C   UNL     1       6.621  -1.017   0.173  1.00  0.00     0.004 A 
ATOM      9  C   UNL     1       5.849   1.142  -0.365  1.00  0.00     0.004 A 
ATOM     10  C   UNL     1       6.111  -0.867   1.448  1.00  0.00     0.000 A 
ATOM     11  C   UNL     1       5.337   1.310   0.888  1.00  0.00     0.000 A 
ATOM     12  C   UNL     1       5.465   0.297   1.815  1.00  0.00     0.000 A 
ENDBRANCH   6   7
ENDBRANCH   1   6
TORSDOF 4
ENDMDL
MODEL 3
REMARK VINA RESULT:      -6.7      3.350      5.019
REMARK SMILES O=C(O)CCc1ccccc1
REMARK SMILES IDX 4 1 2 2 1 3 3 4 5 6 6 7 7 8 11 9 8 10 10 11 9 12
REMARK H PARENT 3 5
REMARK Flexibility Score: inf
ROOT
ATOM      1  C   UNL     1       5.037   1.704   0.680  1.00  0.00     0.127 C 
ENDROOT
BRANCH   1   2
ATOM      2  C   UNL     1       4.601   1.029   1.925  1.00  0.00     0.303 C 
ATOM      3  O   UNL     1       5.329   0.194   2.484  1.00  0.00    -0.252 OA
BRANCH   2   4
ATOM      4  O   UNL     1       3.368   1.332   2.470  1.00  0.00    -0.481 OA
ATOM      5  H   UNL     1       3.100   2.281   2.712  1.00  0.00     0.296 HD
ENDBRANCH   2   4
ENDBRANCH   1   2
BRANCH   1   6
ATOM      6  C   UNL     1       6.534   1.891   0.676  1.00  0.00     0.047 C 
BRANCH   6   7
ATOM      7  C   UNL     1       7.206   1.102  -0.375  1.00  0.00    -0.047 A 
ATOM      8  C   UNL     1       8.544   1.180  -0.663  1.00  0.00     0.004 A 
ATOM      9  C   UNL     1       6.435   0.234  -1.112  1.00  0.00     0.004 A 
ATOM     10  C   UNL     1       9.090   0.404  -1.666  1.00  0.00     0.000 A 
ATOM     11  C   UNL     1       6.954  -0.540  -2.107  1.00  0.00     0.000 A 
ATOM     12  C   UNL     1       8.300  -0.462  -2.396  1.00  0.00     0.000 A 
ENDBRANCH   6   7
ENDBRANCH   1   6
TORSDOF 4
ENDMDL
MODEL 4
REMARK VINA RESULT:      -6.7      3.837      4.930
REMARK SMILES O=C(O)CCc1ccccc1
REMARK SMILES IDX 4 1 2 2 1 3 3 4 5 6 6 7 7 8 11 9 8 10 10 11 9 12
REMARK H PARENT 3 5
REMARK Flexibility Score: inf
ROOT
ATOM      1  C   UNL     1       5.498   2.906   0.023  1.00  0.00     0.127 C 
ENDROOT
BRANCH   1   2
ATOM      2  C   UNL     1       6.285   3.876   0.821  1.00  0.00     0.303 C 
ATOM      3  O   UNL     1       6.936   4.775   0.266  1.00  0.00    -0.252 OA
BRANCH   2   4
ATOM      4  O   UNL     1       6.295   3.777   2.199  1.00  0.00    -0.481 OA
ATOM      5  H   UNL     1       6.931   4.319   2.778  1.00  0.00     0.296 HD
ENDBRANCH   2   4
ENDBRANCH   1   2
BRANCH   1   6
ATOM      6  C   UNL     1       4.931   1.826   0.910  1.00  0.00     0.047 C 
BRANCH   6   7
ATOM      7  C   UNL     1       5.740   0.592   0.898  1.00  0.00    -0.047 A 
ATOM      8  C   UNL     1       6.464   0.154  -0.181  1.00  0.00     0.004 A 
ATOM      9  C   UNL     1       5.764  -0.164   2.046  1.00  0.00     0.004 A 
ATOM     10  C   UNL     1       7.194  -1.016  -0.104  1.00  0.00     0.000 A 
ATOM     11  C   UNL     1       6.478  -1.323   2.142  1.00  0.00     0.000 A 
ATOM     12  C   UNL     1       7.206  -1.763   1.058  1.00  0.00     0.000 A 
ENDBRANCH   6   7
ENDBRANCH   1   6
TORSDOF 4
ENDMDL
MODEL 5
REMARK VINA RESULT:      -6.6      3.729      5.096
REMARK SMILES O=C(O)CCc1ccccc1
REMARK SMILES IDX 4 1 2 2 1 3 3 4 5 6 6 7 7 8 11 9 8 10 10 11 9 12
REMARK H PARENT 3 5
REMARK Flexibility Score: inf
ROOT
ATOM      1  C   UNL     1       5.372   2.933   0.083  1.00  0.00     0.127 C 
ENDROOT
BRANCH   1   2
ATOM      2  C   UNL     1       6.226   3.881   0.837  1.00  0.00     0.303 C 
ATOM      3  O   UNL     1       6.855   4.775   0.250  1.00  0.00    -0.252 OA
BRANCH   2   4
ATOM      4  O   UNL     1       6.321   3.769   2.211  1.00  0.00    -0.481 OA
ATOM      5  H   UNL     1       6.910   4.382   2.767  1.00  0.00     0.296 HD
ENDBRANCH   2   4
ENDBRANCH   1   2
BRANCH   1   6
ATOM      6  C   UNL     1       5.216   1.640   0.844  1.00  0.00     0.047 C 
BRANCH   6   7
ATOM      7  C   UNL     1       6.009   0.537   0.268  1.00  0.00    -0.047 A 
ATOM      8  C   UNL     1       6.471  -0.537   0.983  1.00  0.00     0.004 A 
ATOM      9  C   UNL     1       6.303   0.597  -1.074  1.00  0.00     0.004 A 
ATOM     10  C   UNL     1       7.209  -1.526   0.362  1.00  0.00     0.000 A 
ATOM     11  C   UNL     1       7.030  -0.369  -1.706  1.00  0.00     0.000 A 
ATOM     12  C   UNL     1       7.494  -1.449  -0.987  1.00  0.00     0.000 A 
ENDBRANCH   6   7
ENDBRANCH   1   6
TORSDOF 4
ENDMDL
