@<TRIPOS>MOLECULE
/home/cewinharhar/GITHUB/reincatalyze/data/processed/docking_pred/2023-Apr-25-1630_maxeplen5_maxtrainstep200_exh32_gamma099_lrac3e-4_lrcr1e-3/5bd4159c0713ad18fb2d2a846002564f6b7df27c_ligand_2.pdbqt
 12 12 0 0 0
SMALL
GASTEIGER

@<TRIPOS>ATOM
      1  C          5.4980    2.9060    0.0230 C.3     1  UNL1        0.1270
      2  C          6.2850    3.8760    0.8210 C.2     1  UNL1        0.3030
      3  O          6.9360    4.7750    0.2660 O.2     1  UNL1       -0.2520
      4  O          6.2950    3.7770    2.1990 O.3     1  UNL1       -0.4810
      5  H          6.9310    4.3190    2.7780 H       1  UNL1        0.2960
      6  C          4.9310    1.8260    0.9100 C.3     1  UNL1        0.0470
      7  C          5.7400    0.5920    0.8980 C.2     1  UNL1       -0.0470
      8  C          6.4640    0.1540   -0.1810 C.2     1  UNL1        0.0040
      9  C          5.7640   -0.1640    2.0460 C.2     1  UNL1        0.0040
     10  C          7.1940   -1.0160   -0.1040 C.2     1  UNL1        0.0000
     11  C          6.4780   -1.3230    2.1420 C.2     1  UNL1        0.0000
     12  C          7.2060   -1.7630    1.0580 C.2     1  UNL1        0.0000
@<TRIPOS>BOND
     1     8    10    1
     2     8     7    2
     3    10    12    2
     4     1     2    1
     5     1     6    1
     6     3     2    2
     7     2     4    1
     8     7     6    1
     9     7     9    1
    10    12    11    1
    11     9    11    2
    12     4     5    1
