@<TRIPOS>MOLECULE
/home/cewinharhar/GITHUB/reincatalyze/data/processed/docking_pred/2023-Apr-25-1630_maxeplen5_maxtrainstep200_exh32_gamma099_lrac3e-4_lrcr1e-3/5bd4159c0713ad18fb2d2a846002564f6b7df27c_ligand_2.pdbqt
 12 12 0 0 0
SMALL
GASTEIGER

@<TRIPOS>ATOM
      1  C          8.4260   -0.6280   -2.1760 C.3     1  UNL1        0.1270
      2  C          8.4800   -1.9070   -2.9210 C.2     1  UNL1        0.3030
      3  O          9.5570   -2.5000   -3.0880 O.2     1  UNL1       -0.2520
      4  O          7.3170   -2.4470   -3.4370 O.3     1  UNL1       -0.4810
      5  H          6.4080   -2.0150   -3.2940 H       1  UNL1        0.2960
      6  C          7.0250   -0.0700   -2.1820 C.3     1  UNL1        0.0470
      7  C          6.4760    0.1150   -0.8250 C.2     1  UNL1       -0.0470
      8  C          5.8390    1.2510   -0.3970 C.2     1  UNL1        0.0040
      9  C          6.6180   -0.9230    0.0660 C.2     1  UNL1        0.0040
     10  C          5.3560    1.3380    0.8940 C.2     1  UNL1        0.0000
     11  C          6.1490   -0.8570    1.3450 C.2     1  UNL1        0.0000
     12  C          5.5070    0.2850    1.7750 C.2     1  UNL1        0.0000
@<TRIPOS>BOND
     1     4     5    1
     2     4     2    1
     3     3     2    2
     4     2     1    1
     5     6     1    1
     6     6     7    1
     7     7     8    2
     8     7     9    1
     9     8    10    1
    10     9    11    2
    11    10    12    2
    12    11    12    1
