@<TRIPOS>MOLECULE
/home/cewinharhar/GITHUB/reincatalyze/data/processed/docking_pred/2023-Apr-25-1630_maxeplen5_maxtrainstep200_exh32_gamma099_lrac3e-4_lrcr1e-3/5bd4159c0713ad18fb2d2a846002564f6b7df27c_ligand_2.pdbqt
 12 12 0 0 0
SMALL
GASTEIGER

@<TRIPOS>ATOM
      1  C          5.3720    2.9330    0.0830 C.3     1  UNL1        0.1270
      2  C          6.2260    3.8810    0.8370 C.2     1  UNL1        0.3030
      3  O          6.8550    4.7750    0.2500 O.2     1  UNL1       -0.2520
      4  O          6.3210    3.7690    2.2110 O.3     1  UNL1       -0.4810
      5  H          6.9100    4.3820    2.7670 H       1  UNL1        0.2960
      6  C          5.2160    1.6400    0.8440 C.3     1  UNL1        0.0470
      7  C          6.0090    0.5370    0.2680 C.2     1  UNL1       -0.0470
      8  C          6.4710   -0.5370    0.9830 C.2     1  UNL1        0.0040
      9  C          6.3030    0.5970   -1.0740 C.2     1  UNL1        0.0040
     10  C          7.2090   -1.5260    0.3620 C.2     1  UNL1        0.0000
     11  C          7.0300   -0.3690   -1.7060 C.2     1  UNL1        0.0000
     12  C          7.4940   -1.4490   -0.9870 C.2     1  UNL1        0.0000
@<TRIPOS>BOND
     1    11     9    1
     2    11    12    2
     3     9     7    2
     4    12    10    1
     5     1     2    1
     6     1     6    1
     7     3     2    2
     8     7     6    1
     9     7     8    1
    10    10     8    2
    11     2     4    1
    12     4     5    1
