@<TRIPOS>MOLECULE
/home/cewinharhar/GITHUB/reincatalyze/data/processed/docking_pred/2023-Apr-25-1630_maxeplen5_maxtrainstep200_exh32_gamma099_lrac3e-4_lrcr1e-3/5be73a077ea639c014f12358d863af943f9e92ef_ligand_2.pdbqt
 12 12 0 0 0
SMALL
GASTEIGER

@<TRIPOS>ATOM
      1  C          8.4200   -0.6150   -2.1870 C.3     1  UNL1        0.1270
      2  C          8.4740   -1.9050   -2.9140 C.2     1  UNL1        0.3030
      3  O          9.5540   -2.4890   -3.0910 O.2     1  UNL1       -0.2520
      4  O          7.3080   -2.4630   -3.4020 O.3     1  UNL1       -0.4810
      5  H          7.2790   -3.3940   -3.8070 H       1  UNL1        0.2960
      6  C          7.0010   -0.1060   -2.1150 C.3     1  UNL1        0.0470
      7  C          6.4890   -0.0330   -0.7330 C.2     1  UNL1       -0.0470
      8  C          6.6100   -1.0400    0.1900 C.2     1  UNL1        0.0040
      9  C          5.8490    1.1220   -0.3510 C.2     1  UNL1        0.0040
     10  C          6.0980   -0.8860    1.4640 C.2     1  UNL1        0.0000
     11  C          5.3360    1.2940    0.9010 C.2     1  UNL1        0.0000
     12  C          5.4580    0.2820    1.8290 C.2     1  UNL1        0.0000
@<TRIPOS>BOND
     1     5     4    1
     2     4     2    1
     3     3     2    2
     4     2     1    1
     5     1     6    1
     6     6     7    1
     7     7     9    2
     8     7     8    1
     9     9    11    1
    10     8    10    2
    11    11    12    2
    12    10    12    1
