@<TRIPOS>MOLECULE
/home/cewinharhar/GITHUB/reincatalyze/data/processed/docking_pred/2023-Apr-25-1630_maxeplen5_maxtrainstep200_exh32_gamma099_lrac3e-4_lrcr1e-3/5be73a077ea639c014f12358d863af943f9e92ef_ligand_2.pdbqt
 12 12 0 0 0
SMALL
GASTEIGER

@<TRIPOS>ATOM
      1  C          5.0310    1.7110    0.6780 C.3     1  UNL1        0.1270
      2  C          4.6000    1.0300    1.9220 C.2     1  UNL1        0.3030
      3  O          5.3310    0.1930    2.4740 O.2     1  UNL1       -0.2520
      4  O          3.3690    1.3300    2.4720 O.3     1  UNL1       -0.4810
      5  H          2.6000    1.6950    1.9170 H       1  UNL1        0.2960
      6  C          6.5280    1.9000    0.6700 C.3     1  UNL1        0.0470
      7  C          7.1990    1.1090   -0.3790 C.2     1  UNL1       -0.0470
      8  C          8.5390    1.1780   -0.6600 C.2     1  UNL1        0.0040
      9  C          6.4250    0.2480   -1.1210 C.2     1  UNL1        0.0040
     10  C          9.0850    0.3990   -1.6630 C.2     1  UNL1        0.0000
     11  C          6.9440   -0.5290   -2.1150 C.2     1  UNL1        0.0000
     12  C          8.2910   -0.4600   -2.3970 C.2     1  UNL1        0.0000
@<TRIPOS>BOND
     1    12    11    2
     2    12    10    1
     3    11     9    1
     4    10     8    2
     5     9     7    2
     6     8     7    1
     7     7     6    1
     8     6     1    1
     9     1     2    1
    10     5     4    1
    11     2     4    1
    12     2     3    2
