@<TRIPOS>MOLECULE
/home/cewinharhar/GITHUB/reincatalyze/data/processed/docking_pred/2023-Apr-25-1630_maxeplen5_maxtrainstep200_exh32_gamma099_lrac3e-4_lrcr1e-3/5be73a077ea639c014f12358d863af943f9e92ef_ligand_2.pdbqt
 12 12 0 0 0
SMALL
GASTEIGER

@<TRIPOS>ATOM
      1  C          8.4140   -0.6450   -2.1220 C.3     1  UNL1        0.1270
      2  C          8.4710   -1.9070   -2.8980 C.2     1  UNL1        0.3030
      3  O          9.5510   -2.4870   -3.0880 O.2     1  UNL1       -0.2520
      4  O          7.3070   -2.4420   -3.4170 O.3     1  UNL1       -0.4810
      5  H          6.4370   -2.4590   -2.8930 H       1  UNL1        0.2960
      6  C          7.0170   -0.0760   -2.1390 C.3     1  UNL1        0.0470
      7  C          6.4590    0.1120   -0.7860 C.2     1  UNL1       -0.0470
      8  C          5.8240    1.2510   -0.3640 C.2     1  UNL1        0.0040
      9  C          6.5890   -0.9260    0.1060 C.2     1  UNL1        0.0040
     10  C          5.3320    1.3410    0.9240 C.2     1  UNL1        0.0000
     11  C          6.1110   -0.8570    1.3820 C.2     1  UNL1        0.0000
     12  C          5.4710    0.2880    1.8060 C.2     1  UNL1        0.0000
@<TRIPOS>BOND
     1     4     2    1
     2     4     5    1
     3     3     2    2
     4     2     1    1
     5     6     1    1
     6     6     7    1
     7     7     8    2
     8     7     9    1
     9     8    10    1
    10     9    11    2
    11    10    12    2
    12    11    12    1
