@<TRIPOS>MOLECULE
/home/cewinharhar/GITHUB/reincatalyze/data/processed/docking_pred/2023-Apr-25-1630_maxeplen5_maxtrainstep200_exh32_gamma099_lrac3e-4_lrcr1e-3/5be73a077ea639c014f12358d863af943f9e92ef_ligand_2.pdbqt
 12 12 0 0 0
SMALL
GASTEIGER

@<TRIPOS>ATOM
      1  C          5.4380    2.8350    0.0780 C.3     1  UNL1        0.1270
      2  C          6.2180    3.8070    0.8810 C.2     1  UNL1        0.3030
      3  O          6.2050    3.7630    2.1210 O.2     1  UNL1       -0.2520
      4  O          6.9690    4.7740    0.2400 O.3     1  UNL1       -0.4810
      5  H          7.6200    4.5500   -0.5070 H       1  UNL1        0.2960
      6  C          4.9140    1.7250    0.9540 C.3     1  UNL1        0.0470
      7  C          5.7680    0.5210    0.9250 C.2     1  UNL1       -0.0470
      8  C          6.5730    0.1710   -0.1280 C.2     1  UNL1        0.0040
      9  C          5.7500   -0.2990    2.0280 C.2     1  UNL1        0.0040
     10  C          7.3400   -0.9760   -0.0700 C.2     1  UNL1        0.0000
     11  C          6.4990   -1.4360    2.1040 C.2     1  UNL1        0.0000
     12  C          7.3090   -1.7880    1.0460 C.2     1  UNL1        0.0000
@<TRIPOS>BOND
     1     5     4    1
     2     8    10    1
     3     8     7    2
     4    10    12    2
     5     1     2    1
     6     1     6    1
     7     4     2    1
     8     2     3    2
     9     7     6    1
    10     7     9    1
    11    12    11    1
    12     9    11    2
