MODEL 1
REMARK VINA RESULT:      -7.3      0.000      0.000
REMARK SMILES O=C(O)CCc1ccccc1
REMARK SMILES IDX 4 1 2 2 1 3 3 4 5 6 6 7 7 8 11 9 8 10 10 11 9 12
REMARK H PARENT 3 5
REMARK Flexibility Score: inf
ROOT
ATOM      1  C   UNL     1       8.414  -0.645  -2.122  1.00  0.00     0.127 C 
ENDROOT
BRANCH   1   2
ATOM      2  C   UNL     1       8.471  -1.907  -2.898  1.00  0.00     0.303 C 
ATOM      3  O   UNL     1       9.551  -2.487  -3.088  1.00  0.00    -0.252 OA
BRANCH   2   4
ATOM      4  O   UNL     1       7.307  -2.442  -3.417  1.00  0.00    -0.481 OA
ATOM      5  H   UNL     1       6.437  -2.459  -2.893  1.00  0.00     0.296 HD
ENDBRANCH   2   4
ENDBRANCH   1   2
BRANCH   1   6
ATOM      6  C   UNL     1       7.017  -0.076  -2.139  1.00  0.00     0.047 C 
BRANCH   6   7
ATOM      7  C   UNL     1       6.459   0.112  -0.786  1.00  0.00    -0.047 A 
ATOM      8  C   UNL     1       5.824   1.251  -0.364  1.00  0.00     0.004 A 
ATOM      9  C   UNL     1       6.589  -0.926   0.106  1.00  0.00     0.004 A 
ATOM     10  C   UNL     1       5.332   1.341   0.924  1.00  0.00     0.000 A 
ATOM     11  C   UNL     1       6.111  -0.857   1.382  1.00  0.00     0.000 A 
ATOM     12  C   UNL     1       5.471   0.288   1.806  1.00  0.00     0.000 A 
ENDBRANCH   6   7
ENDBRANCH   1   6
TORSDOF 4
ENDMDL
MODEL 2
REMARK VINA RESULT:      -7.3      0.086      1.429
REMARK SMILES O=C(O)CCc1ccccc1
REMARK SMILES IDX 4 1 2 2 1 3 3 4 5 6 6 7 7 8 11 9 8 10 10 11 9 12
REMARK H PARENT 3 5
REMARK Flexibility Score: inf
ROOT
ATOM      1  C   UNL     1       8.420  -0.615  -2.187  1.00  0.00     0.127 C 
ENDROOT
BRANCH   1   2
ATOM      2  C   UNL     1       8.474  -1.905  -2.914  1.00  0.00     0.303 C 
ATOM      3  O   UNL     1       9.554  -2.489  -3.091  1.00  0.00    -0.252 OA
BRANCH   2   4
ATOM      4  O   UNL     1       7.308  -2.463  -3.402  1.00  0.00    -0.481 OA
ATOM      5  H   UNL     1       7.279  -3.394  -3.807  1.00  0.00     0.296 HD
ENDBRANCH   2   4
ENDBRANCH   1   2
BRANCH   1   6
ATOM      6  C   UNL     1       7.001  -0.106  -2.115  1.00  0.00     0.047 C 
BRANCH   6   7
ATOM      7  C   UNL     1       6.489  -0.033  -0.733  1.00  0.00    -0.047 A 
ATOM      8  C   UNL     1       6.610  -1.040   0.190  1.00  0.00     0.004 A 
ATOM      9  C   UNL     1       5.849   1.122  -0.351  1.00  0.00     0.004 A 
ATOM     10  C   UNL     1       6.098  -0.886   1.464  1.00  0.00     0.000 A 
ATOM     11  C   UNL     1       5.336   1.294   0.901  1.00  0.00     0.000 A 
ATOM     12  C   UNL     1       5.458   0.282   1.829  1.00  0.00     0.000 A 
ENDBRANCH   6   7
ENDBRANCH   1   6
TORSDOF 4
ENDMDL
MODEL 3
REMARK VINA RESULT:      -6.7      3.341      5.018
REMARK SMILES O=C(O)CCc1ccccc1
REMARK SMILES IDX 4 1 2 2 1 3 3 4 5 6 6 7 7 8 11 9 8 10 10 11 9 12
REMARK H PARENT 3 5
REMARK Flexibility Score: inf
ROOT
ATOM      1  C   UNL     1       5.031   1.711   0.678  1.00  0.00     0.127 C 
ENDROOT
BRANCH   1   2
ATOM      2  C   UNL     1       4.600   1.030   1.922  1.00  0.00     0.303 C 
ATOM      3  O   UNL     1       5.331   0.193   2.474  1.00  0.00    -0.252 OA
BRANCH   2   4
ATOM      4  O   UNL     1       3.369   1.330   2.472  1.00  0.00    -0.481 OA
ATOM      5  H   UNL     1       2.600   1.695   1.917  1.00  0.00     0.296 HD
ENDBRANCH   2   4
ENDBRANCH   1   2
BRANCH   1   6
ATOM      6  C   UNL     1       6.528   1.900   0.670  1.00  0.00     0.047 C 
BRANCH   6   7
ATOM      7  C   UNL     1       7.199   1.109  -0.379  1.00  0.00    -0.047 A 
ATOM      8  C   UNL     1       8.539   1.178  -0.660  1.00  0.00     0.004 A 
ATOM      9  C   UNL     1       6.425   0.248  -1.121  1.00  0.00     0.004 A 
ATOM     10  C   UNL     1       9.085   0.399  -1.663  1.00  0.00     0.000 A 
ATOM     11  C   UNL     1       6.944  -0.529  -2.115  1.00  0.00     0.000 A 
ATOM     12  C   UNL     1       8.291  -0.460  -2.397  1.00  0.00     0.000 A 
ENDBRANCH   6   7
ENDBRANCH   1   6
TORSDOF 4
ENDMDL
MODEL 4
REMARK VINA RESULT:      -6.7      1.954      2.258
REMARK SMILES O=C(O)CCc1ccccc1
REMARK SMILES IDX 4 1 2 2 1 3 3 4 5 6 6 7 7 8 11 9 8 10 10 11 9 12
REMARK H PARENT 3 5
REMARK Flexibility Score: inf
ROOT
ATOM      1  C   UNL     1       8.232   0.265  -2.063  1.00  0.00     0.127 C 
ENDROOT
BRANCH   1   2
ATOM      2  C   UNL     1       9.398   0.368  -1.153  1.00  0.00     0.303 C 
ATOM      3  O   UNL     1       9.501  -0.376  -0.166  1.00  0.00    -0.252 OA
BRANCH   2   4
ATOM      4  O   UNL     1      10.381   1.304  -1.408  1.00  0.00    -0.481 OA
ATOM      5  H   UNL     1      10.548   2.097  -0.795  1.00  0.00     0.296 HD
ENDBRANCH   2   4
ENDBRANCH   1   2
BRANCH   1   6
ATOM      6  C   UNL     1       7.152  -0.588  -1.445  1.00  0.00     0.047 C 
BRANCH   6   7
ATOM      7  C   UNL     1       6.358   0.136  -0.434  1.00  0.00    -0.047 A 
ATOM      8  C   UNL     1       5.801   1.373  -0.631  1.00  0.00     0.004 A 
ATOM      9  C   UNL     1       6.170  -0.473   0.784  1.00  0.00     0.004 A 
ATOM     10  C   UNL     1       5.072   1.979   0.374  1.00  0.00     0.000 A 
ATOM     11  C   UNL     1       5.455   0.108   1.789  1.00  0.00     0.000 A 
ATOM     12  C   UNL     1       4.894   1.352   1.591  1.00  0.00     0.000 A 
ENDBRANCH   6   7
ENDBRANCH   1   6
TORSDOF 4
ENDMDL
MODEL 5
REMARK VINA RESULT:      -6.6      3.819      4.934
REMARK SMILES O=C(O)CCc1ccccc1
REMARK SMILES IDX 4 1 2 2 1 3 3 4 5 6 6 7 7 8 11 9 8 10 10 11 9 12
REMARK H PARENT 3 5
REMARK Flexibility Score: inf
ROOT
ATOM      1  C   UNL     1       5.438   2.835   0.078  1.00  0.00     0.127 C 
ENDROOT
BRANCH   1   2
ATOM      2  C   UNL     1       6.218   3.807   0.881  1.00  0.00     0.303 C 
ATOM      3  O   UNL     1       6.205   3.763   2.121  1.00  0.00    -0.252 OA
BRANCH   2   4
ATOM      4  O   UNL     1       6.969   4.774   0.240  1.00  0.00    -0.481 OA
ATOM      5  H   UNL     1       7.620   4.550  -0.507  1.00  0.00     0.296 HD
ENDBRANCH   2   4
ENDBRANCH   1   2
BRANCH   1   6
ATOM      6  C   UNL     1       4.914   1.725   0.954  1.00  0.00     0.047 C 
BRANCH   6   7
ATOM      7  C   UNL     1       5.768   0.521   0.925  1.00  0.00    -0.047 A 
ATOM      8  C   UNL     1       6.573   0.171  -0.128  1.00  0.00     0.004 A 
ATOM      9  C   UNL     1       5.750  -0.299   2.028  1.00  0.00     0.004 A 
ATOM     10  C   UNL     1       7.340  -0.976  -0.070  1.00  0.00     0.000 A 
ATOM     11  C   UNL     1       6.499  -1.436   2.104  1.00  0.00     0.000 A 
ATOM     12  C   UNL     1       7.309  -1.788   1.046  1.00  0.00     0.000 A 
ENDBRANCH   6   7
ENDBRANCH   1   6
TORSDOF 4
ENDMDL
