@<TRIPOS>MOLECULE
/home/cewinharhar/GITHUB/reincatalyze/data/processed/docking_pred/2023-Apr-25-1630_maxeplen5_maxtrainstep200_exh32_gamma099_lrac3e-4_lrcr1e-3/5be73a077ea639c014f12358d863af943f9e92ef_ligand_2.pdbqt
 12 12 0 0 0
SMALL
GASTEIGER

@<TRIPOS>ATOM
      1  C          8.2320    0.2650   -2.0630 C.3     1  UNL1        0.1270
      2  C          9.3980    0.3680   -1.1530 C.2     1  UNL1        0.3030
      3  O          9.5010   -0.3760   -0.1660 O.2     1  UNL1       -0.2520
      4  O         10.3810    1.3040   -1.4080 O.3     1  UNL1       -0.4810
      5  H         10.5480    2.0970   -0.7950 H       1  UNL1        0.2960
      6  C          7.1520   -0.5880   -1.4450 C.3     1  UNL1        0.0470
      7  C          6.3580    0.1360   -0.4340 C.2     1  UNL1       -0.0470
      8  C          5.8010    1.3730   -0.6310 C.2     1  UNL1        0.0040
      9  C          6.1700   -0.4730    0.7840 C.2     1  UNL1        0.0040
     10  C          5.0720    1.9790    0.3740 C.2     1  UNL1        0.0000
     11  C          5.4550    0.1080    1.7890 C.2     1  UNL1        0.0000
     12  C          4.8940    1.3520    1.5910 C.2     1  UNL1        0.0000
@<TRIPOS>BOND
     1     1     6    1
     2     1     2    1
     3     6     7    1
     4     4     2    1
     5     4     5    1
     6     2     3    2
     7     8     7    2
     8     8    10    1
     9     7     9    1
    10    10    12    2
    11     9    11    2
    12    12    11    1
