@<TRIPOS>MOLECULE
/home/cewinharhar/GITHUB/reincatalyze/data/processed/docking_pred/2023-Apr-25-1630_maxeplen5_maxtrainstep200_exh32_gamma099_lrac3e-4_lrcr1e-3/5c54d156b22251270ecdcbd3d684e6dc7dd5ede7_ligand_2.pdbqt
 12 12 0 0 0
SMALL
GASTEIGER

@<TRIPOS>ATOM
      1  C          8.4500   -0.6840   -2.1390 C.3     1  UNL1        0.1270
      2  C          8.4920   -1.9440   -2.9170 C.2     1  UNL1        0.3030
      3  O          9.5640   -2.5440   -3.0970 O.2     1  UNL1       -0.2520
      4  O          7.3250   -2.4580   -3.4480 O.3     1  UNL1       -0.4810
      5  H          6.4230   -2.0080   -3.3150 H       1  UNL1        0.2960
      6  C          7.0510   -0.1210   -2.1180 C.3     1  UNL1        0.0470
      7  C          6.5030    0.0030   -0.7530 C.2     1  UNL1       -0.0470
      8  C          6.6030   -0.9690    0.2090 C.2     1  UNL1        0.0040
      9  C          5.8510    1.1700   -0.4320 C.2     1  UNL1        0.0040
     10  C          6.0590   -0.7680    1.4630 C.2     1  UNL1        0.0000
     11  C          5.3070    1.3870    0.8000 C.2     1  UNL1        0.0000
     12  C          5.4080    0.4110    1.7680 C.2     1  UNL1        0.0000
@<TRIPOS>BOND
     1     4     5    1
     2     4     2    1
     3     3     2    2
     4     2     1    1
     5     1     6    1
     6     6     7    1
     7     7     9    2
     8     7     8    1
     9     9    11    1
    10     8    10    2
    11    11    12    2
    12    10    12    1
