@<TRIPOS>MOLECULE
/home/cewinharhar/GITHUB/reincatalyze/data/processed/docking_pred/2023-Apr-25-1630_maxeplen5_maxtrainstep200_exh32_gamma099_lrac3e-4_lrcr1e-3/5c54d156b22251270ecdcbd3d684e6dc7dd5ede7_ligand_2.pdbqt
 12 12 0 0 0
SMALL
GASTEIGER

@<TRIPOS>ATOM
      1  C          8.4020   -0.7180   -2.0310 C.3     1  UNL1        0.1270
      2  C          8.4690   -1.9350   -2.8750 C.2     1  UNL1        0.3030
      3  O          9.5500   -2.5100   -3.0760 O.2     1  UNL1       -0.2520
      4  O          7.3140   -2.4350   -3.4440 O.3     1  UNL1       -0.4810
      5  H          7.1640   -3.4300   -3.5860 H       1  UNL1        0.2960
      6  C          7.0220   -0.1120   -2.0840 C.3     1  UNL1        0.0470
      7  C          6.4420    0.1070   -0.7450 C.2     1  UNL1       -0.0470
      8  C          5.7940    1.2530   -0.3620 C.2     1  UNL1        0.0040
      9  C          6.5620   -0.9080    0.1750 C.2     1  UNL1        0.0040
     10  C          5.2810    1.3730    0.9150 C.2     1  UNL1        0.0000
     11  C          6.0640   -0.8090    1.4410 C.2     1  UNL1        0.0000
     12  C          5.4110    0.3430    1.8250 C.2     1  UNL1        0.0000
@<TRIPOS>BOND
     1     5     4    1
     2     4     2    1
     3     3     2    2
     4     2     1    1
     5     6     1    1
     6     6     7    1
     7     7     8    2
     8     7     9    1
     9     8    10    1
    10     9    11    2
    11    10    12    2
    12    11    12    1
