@<TRIPOS>MOLECULE
/home/cewinharhar/GITHUB/reincatalyze/data/processed/docking_pred/2023-Apr-25-1630_maxeplen5_maxtrainstep200_exh32_gamma099_lrac3e-4_lrcr1e-3/5c54d156b22251270ecdcbd3d684e6dc7dd5ede7_ligand_2.pdbqt
 12 12 0 0 0
SMALL
GASTEIGER

@<TRIPOS>ATOM
      1  C          4.9830    1.7840    0.7100 C.3     1  UNL1        0.1270
      2  C          4.4840    1.1010    1.9270 C.2     1  UNL1        0.3030
      3  O          5.1540    0.2130    2.4760 O.2     1  UNL1       -0.2520
      4  O          3.2590    1.4580    2.4550 O.3     1  UNL1       -0.4810
      5  H          3.0300    2.4190    2.6960 H       1  UNL1        0.2960
      6  C          6.4910    1.8420    0.7150 C.3     1  UNL1        0.0470
      7  C          7.0980    1.0380   -0.3640 C.2     1  UNL1       -0.0470
      8  C          6.4210    0.1030   -1.1040 C.2     1  UNL1        0.0040
      9  C          8.4290    1.2430   -0.6380 C.2     1  UNL1        0.0040
     10  C          7.0710   -0.6060   -2.0960 C.2     1  UNL1        0.0000
     11  C          9.0890    0.5530   -1.6120 C.2     1  UNL1        0.0000
     12  C          8.4090   -0.3860   -2.3580 C.2     1  UNL1        0.0000
@<TRIPOS>BOND
     1    12    10    2
     2    12    11    1
     3    10     8    1
     4    11     9    2
     5     8     7    2
     6     9     7    1
     7     7     6    1
     8     1     6    1
     9     1     2    1
    10     2     4    1
    11     2     3    2
    12     4     5    1
