MODEL 1
REMARK VINA RESULT:      -7.3      0.000      0.000
REMARK SMILES O=C(O)CCc1ccccc1
REMARK SMILES IDX 4 1 2 2 1 3 3 4 5 6 6 7 7 8 11 9 8 10 10 11 9 12
REMARK H PARENT 3 5
REMARK Flexibility Score: inf
ROOT
ATOM      1  C   UNL     1       8.450  -0.684  -2.139  1.00  0.00     0.127 C 
ENDROOT
BRANCH   1   2
ATOM      2  C   UNL     1       8.492  -1.944  -2.917  1.00  0.00     0.303 C 
ATOM      3  O   UNL     1       9.564  -2.544  -3.097  1.00  0.00    -0.252 OA
BRANCH   2   4
ATOM      4  O   UNL     1       7.325  -2.458  -3.448  1.00  0.00    -0.481 OA
ATOM      5  H   UNL     1       6.423  -2.008  -3.315  1.00  0.00     0.296 HD
ENDBRANCH   2   4
ENDBRANCH   1   2
BRANCH   1   6
ATOM      6  C   UNL     1       7.051  -0.121  -2.118  1.00  0.00     0.047 C 
BRANCH   6   7
ATOM      7  C   UNL     1       6.503   0.003  -0.753  1.00  0.00    -0.047 A 
ATOM      8  C   UNL     1       6.603  -0.969   0.209  1.00  0.00     0.004 A 
ATOM      9  C   UNL     1       5.851   1.170  -0.432  1.00  0.00     0.004 A 
ATOM     10  C   UNL     1       6.059  -0.768   1.463  1.00  0.00     0.000 A 
ATOM     11  C   UNL     1       5.307   1.387   0.800  1.00  0.00     0.000 A 
ATOM     12  C   UNL     1       5.408   0.411   1.768  1.00  0.00     0.000 A 
ENDBRANCH   6   7
ENDBRANCH   1   6
TORSDOF 4
ENDMDL
MODEL 2
REMARK VINA RESULT:      -7.3      0.087      1.428
REMARK SMILES O=C(O)CCc1ccccc1
REMARK SMILES IDX 4 1 2 2 1 3 3 4 5 6 6 7 7 8 11 9 8 10 10 11 9 12
REMARK H PARENT 3 5
REMARK Flexibility Score: inf
ROOT
ATOM      1  C   UNL     1       8.402  -0.718  -2.031  1.00  0.00     0.127 C 
ENDROOT
BRANCH   1   2
ATOM      2  C   UNL     1       8.469  -1.935  -2.875  1.00  0.00     0.303 C 
ATOM      3  O   UNL     1       9.550  -2.510  -3.076  1.00  0.00    -0.252 OA
BRANCH   2   4
ATOM      4  O   UNL     1       7.314  -2.435  -3.444  1.00  0.00    -0.481 OA
ATOM      5  H   UNL     1       7.164  -3.430  -3.586  1.00  0.00     0.296 HD
ENDBRANCH   2   4
ENDBRANCH   1   2
BRANCH   1   6
ATOM      6  C   UNL     1       7.022  -0.112  -2.084  1.00  0.00     0.047 C 
BRANCH   6   7
ATOM      7  C   UNL     1       6.442   0.107  -0.745  1.00  0.00    -0.047 A 
ATOM      8  C   UNL     1       5.794   1.253  -0.362  1.00  0.00     0.004 A 
ATOM      9  C   UNL     1       6.562  -0.908   0.175  1.00  0.00     0.004 A 
ATOM     10  C   UNL     1       5.281   1.373   0.915  1.00  0.00     0.000 A 
ATOM     11  C   UNL     1       6.064  -0.809   1.441  1.00  0.00     0.000 A 
ATOM     12  C   UNL     1       5.411   0.343   1.825  1.00  0.00     0.000 A 
ENDBRANCH   6   7
ENDBRANCH   1   6
TORSDOF 4
ENDMDL
MODEL 3
REMARK VINA RESULT:      -7.1      0.669      1.870
REMARK SMILES O=C(O)CCc1ccccc1
REMARK SMILES IDX 4 1 2 2 1 3 3 4 5 6 6 7 7 8 11 9 8 10 10 11 9 12
REMARK H PARENT 3 5
REMARK Flexibility Score: inf
ROOT
ATOM      1  C   UNL     1       8.346  -0.995  -1.765  1.00  0.00     0.127 C 
ENDROOT
BRANCH   1   2
ATOM      2  C   UNL     1       8.356  -2.035  -2.821  1.00  0.00     0.303 C 
ATOM      3  O   UNL     1       7.295  -2.453  -3.310  1.00  0.00    -0.252 OA
BRANCH   2   4
ATOM      4  O   UNL     1       9.560  -2.544  -3.267  1.00  0.00    -0.481 OA
ATOM      5  H   UNL     1       9.916  -2.360  -4.201  1.00  0.00     0.296 HD
ENDBRANCH   2   4
ENDBRANCH   1   2
BRANCH   1   6
ATOM      6  C   UNL     1       7.457  -1.412  -0.619  1.00  0.00     0.047 C 
BRANCH   6   7
ATOM      7  C   UNL     1       6.605  -0.312  -0.127  1.00  0.00    -0.047 A 
ATOM      8  C   UNL     1       6.256   0.786  -0.871  1.00  0.00     0.004 A 
ATOM      9  C   UNL     1       6.134  -0.399   1.161  1.00  0.00     0.004 A 
ATOM     10  C   UNL     1       5.453   1.771  -0.328  1.00  0.00     0.000 A 
ATOM     11  C   UNL     1       5.341   0.562   1.715  1.00  0.00     0.000 A 
ATOM     12  C   UNL     1       4.989   1.666   0.968  1.00  0.00     0.000 A 
ENDBRANCH   6   7
ENDBRANCH   1   6
TORSDOF 4
ENDMDL
MODEL 4
REMARK VINA RESULT:      -6.8      3.390      5.093
REMARK SMILES O=C(O)CCc1ccccc1
REMARK SMILES IDX 4 1 2 2 1 3 3 4 5 6 6 7 7 8 11 9 8 10 10 11 9 12
REMARK H PARENT 3 5
REMARK Flexibility Score: inf
ROOT
ATOM      1  C   UNL     1       5.026   1.777   0.733  1.00  0.00     0.127 C 
ENDROOT
BRANCH   1   2
ATOM      2  C   UNL     1       4.491   1.087   1.931  1.00  0.00     0.303 C 
ATOM      3  O   UNL     1       5.131   0.176   2.478  1.00  0.00    -0.252 OA
BRANCH   2   4
ATOM      4  O   UNL     1       3.264   1.463   2.443  1.00  0.00    -0.481 OA
ATOM      5  H   UNL     1       2.661   2.131   1.973  1.00  0.00     0.296 HD
ENDBRANCH   2   4
ENDBRANCH   1   2
BRANCH   1   6
ATOM      6  C   UNL     1       6.532   1.844   0.788  1.00  0.00     0.047 C 
BRANCH   6   7
ATOM      7  C   UNL     1       7.179   1.097  -0.307  1.00  0.00    -0.047 A 
ATOM      8  C   UNL     1       8.497   1.233  -0.661  1.00  0.00     0.004 A 
ATOM      9  C   UNL     1       6.406   0.209  -1.017  1.00  0.00     0.004 A 
ATOM     10  C   UNL     1       9.021   0.493  -1.703  1.00  0.00     0.000 A 
ATOM     11  C   UNL     1       6.903  -0.530  -2.049  1.00  0.00     0.000 A 
ATOM     12  C   UNL     1       8.228  -0.394  -2.405  1.00  0.00     0.000 A 
ENDBRANCH   6   7
ENDBRANCH   1   6
TORSDOF 4
ENDMDL
MODEL 5
REMARK VINA RESULT:      -6.8      3.391      5.085
REMARK SMILES O=C(O)CCc1ccccc1
REMARK SMILES IDX 4 1 2 2 1 3 3 4 5 6 6 7 7 8 11 9 8 10 10 11 9 12
REMARK H PARENT 3 5
REMARK Flexibility Score: inf
ROOT
ATOM      1  C   UNL     1       4.983   1.784   0.710  1.00  0.00     0.127 C 
ENDROOT
BRANCH   1   2
ATOM      2  C   UNL     1       4.484   1.101   1.927  1.00  0.00     0.303 C 
ATOM      3  O   UNL     1       5.154   0.213   2.476  1.00  0.00    -0.252 OA
BRANCH   2   4
ATOM      4  O   UNL     1       3.259   1.458   2.455  1.00  0.00    -0.481 OA
ATOM      5  H   UNL     1       3.030   2.419   2.696  1.00  0.00     0.296 HD
ENDBRANCH   2   4
ENDBRANCH   1   2
BRANCH   1   6
ATOM      6  C   UNL     1       6.491   1.842   0.715  1.00  0.00     0.047 C 
BRANCH   6   7
ATOM      7  C   UNL     1       7.098   1.038  -0.364  1.00  0.00    -0.047 A 
ATOM      8  C   UNL     1       6.421   0.103  -1.104  1.00  0.00     0.004 A 
ATOM      9  C   UNL     1       8.429   1.243  -0.638  1.00  0.00     0.004 A 
ATOM     10  C   UNL     1       7.071  -0.606  -2.096  1.00  0.00     0.000 A 
ATOM     11  C   UNL     1       9.089   0.553  -1.612  1.00  0.00     0.000 A 
ATOM     12  C   UNL     1       8.409  -0.386  -2.358  1.00  0.00     0.000 A 
ENDBRANCH   6   7
ENDBRANCH   1   6
TORSDOF 4
ENDMDL
