@<TRIPOS>MOLECULE
/home/cewinharhar/GITHUB/reincatalyze/data/processed/docking_pred/2023-Apr-25-1630_maxeplen5_maxtrainstep200_exh32_gamma099_lrac3e-4_lrcr1e-3/5c54d156b22251270ecdcbd3d684e6dc7dd5ede7_ligand_2.pdbqt
 12 12 0 0 0
SMALL
GASTEIGER

@<TRIPOS>ATOM
      1  C          8.3460   -0.9950   -1.7650 C.3     1  UNL1        0.1270
      2  C          8.3560   -2.0350   -2.8210 C.2     1  UNL1        0.3030
      3  O          7.2950   -2.4530   -3.3100 O.2     1  UNL1       -0.2520
      4  O          9.5600   -2.5440   -3.2670 O.3     1  UNL1       -0.4810
      5  H          9.9160   -2.3600   -4.2010 H       1  UNL1        0.2960
      6  C          7.4570   -1.4120   -0.6190 C.3     1  UNL1        0.0470
      7  C          6.6050   -0.3120   -0.1270 C.2     1  UNL1       -0.0470
      8  C          6.2560    0.7860   -0.8710 C.2     1  UNL1        0.0040
      9  C          6.1340   -0.3990    1.1610 C.2     1  UNL1        0.0040
     10  C          5.4530    1.7710   -0.3280 C.2     1  UNL1        0.0000
     11  C          5.3410    0.5620    1.7150 C.2     1  UNL1        0.0000
     12  C          4.9890    1.6660    0.9680 C.2     1  UNL1        0.0000
@<TRIPOS>BOND
     1     5     4    1
     2     3     2    2
     3     4     2    1
     4     2     1    1
     5     1     6    1
     6     8    10    1
     7     8     7    2
     8     6     7    1
     9    10    12    2
    10     7     9    1
    11    12    11    1
    12     9    11    2
