@<TRIPOS>MOLECULE
/home/cewinharhar/GITHUB/reincatalyze/data/processed/docking_pred/2023-Apr-25-1630_maxeplen5_maxtrainstep200_exh32_gamma099_lrac3e-4_lrcr1e-3/5f00cdda1ab61f28c1ea6d7129614616e9231d70_ligand_2.pdbqt
 12 12 0 0 0
SMALL
GASTEIGER

@<TRIPOS>ATOM
      1  C          5.5580    2.9250   -0.0410 C.3     1  UNL1        0.1270
      2  C          6.2910    3.9160    0.7820 C.2     1  UNL1        0.3030
      3  O          7.0130    4.7730    0.2500 O.2     1  UNL1       -0.2520
      4  O          6.1690    3.8840    2.1580 O.3     1  UNL1       -0.4810
      5  H          5.2810    4.0340    2.6280 H       1  UNL1        0.2960
      6  C          4.8840    1.9010    0.8380 C.3     1  UNL1        0.0470
      7  C          5.6500    0.6450    0.9440 C.2     1  UNL1       -0.0470
      8  C          5.7740   -0.0880    2.0970 C.2     1  UNL1        0.0040
      9  C          6.2800    0.1840   -0.1870 C.2     1  UNL1        0.0040
     10  C          6.5140   -1.2550    2.1070 C.2     1  UNL1        0.0000
     11  C          7.0150   -0.9640   -0.1980 C.2     1  UNL1        0.0000
     12  C          7.1400   -1.7020    0.9600 C.2     1  UNL1        0.0000
@<TRIPOS>BOND
     1    11     9    1
     2    11    12    2
     3     9     7    2
     4     1     2    1
     5     1     6    1
     6     3     2    2
     7     2     4    1
     8     6     7    1
     9     7     8    1
    10    12    10    1
    11     8    10    2
    12     4     5    1
