@<TRIPOS>MOLECULE
/home/cewinharhar/GITHUB/reincatalyze/data/processed/docking_pred/2023-Apr-25-1630_maxeplen5_maxtrainstep200_exh32_gamma099_lrac3e-4_lrcr1e-3/5f00cdda1ab61f28c1ea6d7129614616e9231d70_ligand_2.pdbqt
 12 12 0 0 0
SMALL
GASTEIGER

@<TRIPOS>ATOM
      1  C          8.4080   -0.6830   -2.0880 C.3     1  UNL1        0.1270
      2  C          8.4690   -1.9240   -2.8950 C.2     1  UNL1        0.3030
      3  O          9.5510   -2.4940   -3.1040 O.2     1  UNL1       -0.2520
      4  O          7.3060   -2.4530   -3.4220 O.3     1  UNL1       -0.4810
      5  H          7.0980   -3.4470   -3.3880 H       1  UNL1        0.2960
      6  C          7.0170   -0.1000   -2.1150 C.3     1  UNL1        0.0470
      7  C          6.4530    0.0980   -0.7670 C.2     1  UNL1       -0.0470
      8  C          5.8140    1.2410   -0.3570 C.2     1  UNL1        0.0040
      9  C          6.5790   -0.9320    0.1350 C.2     1  UNL1        0.0040
     10  C          5.3160    1.3410    0.9270 C.2     1  UNL1        0.0000
     11  C          6.0950   -0.8530    1.4070 C.2     1  UNL1        0.0000
     12  C          5.4520    0.2960    1.8190 C.2     1  UNL1        0.0000
@<TRIPOS>BOND
     1     4     5    1
     2     4     2    1
     3     3     2    2
     4     2     1    1
     5     6     1    1
     6     6     7    1
     7     7     8    2
     8     7     9    1
     9     8    10    1
    10     9    11    2
    11    10    12    2
    12    11    12    1
