@<TRIPOS>MOLECULE
/home/cewinharhar/GITHUB/reincatalyze/data/processed/docking_pred/2023-Apr-25-1630_maxeplen5_maxtrainstep200_exh32_gamma099_lrac3e-4_lrcr1e-3/5f00cdda1ab61f28c1ea6d7129614616e9231d70_ligand_2.pdbqt
 12 12 0 0 0
SMALL
GASTEIGER

@<TRIPOS>ATOM
      1  C          8.2800    0.1970   -2.1860 C.3     1  UNL1        0.1270
      2  C          9.3990    0.3510   -1.2280 C.2     1  UNL1        0.3030
      3  O          9.4840   -0.3780   -0.2270 O.2     1  UNL1       -0.2520
      4  O         10.3600    1.3190   -1.4500 O.3     1  UNL1       -0.4810
      5  H         10.2250    2.0760   -2.1140 H       1  UNL1        0.2960
      6  C          7.1330   -0.5470   -1.5480 C.3     1  UNL1        0.0470
      7  C          6.3410    0.2980   -0.6340 C.2     1  UNL1       -0.0470
      8  C          5.8020    1.5110   -0.9760 C.2     1  UNL1        0.0040
      9  C          6.1350   -0.1650    0.6440 C.2     1  UNL1        0.0040
     10  C          5.0730    2.2380   -0.0550 C.2     1  UNL1        0.0000
     11  C          5.4190    0.5370    1.5690 C.2     1  UNL1        0.0000
     12  C          4.8760    1.7560    1.2240 C.2     1  UNL1        0.0000
@<TRIPOS>BOND
     1     1     6    1
     2     1     2    1
     3     5     4    1
     4     6     7    1
     5     4     2    1
     6     2     3    2
     7     8     7    2
     8     8    10    1
     9     7     9    1
    10    10    12    2
    11     9    11    2
    12    12    11    1
