@<TRIPOS>MOLECULE
/home/cewinharhar/GITHUB/reincatalyze/data/processed/docking_pred/2023-Apr-25-1630_maxeplen5_maxtrainstep200_exh32_gamma099_lrac3e-4_lrcr1e-3/5f00cdda1ab61f28c1ea6d7129614616e9231d70_ligand_2.pdbqt
 12 12 0 0 0
SMALL
GASTEIGER

@<TRIPOS>ATOM
      1  C          8.4520   -0.6410   -2.1520 C.3     1  UNL1        0.1270
      2  C          8.4990   -1.9180   -2.9020 C.2     1  UNL1        0.3030
      3  O          9.5720   -2.5180   -3.0680 O.2     1  UNL1       -0.2520
      4  O          7.3340   -2.4470   -3.4230 O.3     1  UNL1       -0.4810
      5  H          7.3300   -3.0640   -4.2300 H       1  UNL1        0.2960
      6  C          7.0450   -0.1000   -2.1130 C.3     1  UNL1        0.0470
      7  C          6.5040   -0.0080   -0.7430 C.2     1  UNL1       -0.0470
      8  C          6.6060   -1.0020    0.1950 C.2     1  UNL1        0.0040
      9  C          5.8560    1.1520   -0.3910 C.2     1  UNL1        0.0040
     10  C          6.0680   -0.8310    1.4560 C.2     1  UNL1        0.0000
     11  C          5.3180    1.3410    0.8480 C.2     1  UNL1        0.0000
     12  C          5.4210    0.3420    1.7920 C.2     1  UNL1        0.0000
@<TRIPOS>BOND
     1     5     4    1
     2     4     2    1
     3     3     2    2
     4     2     1    1
     5     1     6    1
     6     6     7    1
     7     7     9    2
     8     7     8    1
     9     9    11    1
    10     8    10    2
    11    11    12    2
    12    10    12    1
