MODEL 1
REMARK VINA RESULT:      -7.3      0.000      0.000
REMARK SMILES O=C(O)CCc1ccccc1
REMARK SMILES IDX 4 1 2 2 1 3 3 4 5 6 6 7 7 8 11 9 8 10 10 11 9 12
REMARK H PARENT 3 5
REMARK Flexibility Score: inf
ROOT
ATOM      1  C   UNL     1       8.452  -0.641  -2.152  1.00  0.00     0.127 C 
ENDROOT
BRANCH   1   2
ATOM      2  C   UNL     1       8.499  -1.918  -2.902  1.00  0.00     0.303 C 
ATOM      3  O   UNL     1       9.572  -2.518  -3.068  1.00  0.00    -0.252 OA
BRANCH   2   4
ATOM      4  O   UNL     1       7.334  -2.447  -3.423  1.00  0.00    -0.481 OA
ATOM      5  H   UNL     1       7.330  -3.064  -4.230  1.00  0.00     0.296 HD
ENDBRANCH   2   4
ENDBRANCH   1   2
BRANCH   1   6
ATOM      6  C   UNL     1       7.045  -0.100  -2.113  1.00  0.00     0.047 C 
BRANCH   6   7
ATOM      7  C   UNL     1       6.504  -0.008  -0.743  1.00  0.00    -0.047 A 
ATOM      8  C   UNL     1       6.606  -1.002   0.195  1.00  0.00     0.004 A 
ATOM      9  C   UNL     1       5.856   1.152  -0.391  1.00  0.00     0.004 A 
ATOM     10  C   UNL     1       6.068  -0.831   1.456  1.00  0.00     0.000 A 
ATOM     11  C   UNL     1       5.318   1.341   0.848  1.00  0.00     0.000 A 
ATOM     12  C   UNL     1       5.421   0.342   1.792  1.00  0.00     0.000 A 
ENDBRANCH   6   7
ENDBRANCH   1   6
TORSDOF 4
ENDMDL
MODEL 2
REMARK VINA RESULT:      -7.3      0.074      1.428
REMARK SMILES O=C(O)CCc1ccccc1
REMARK SMILES IDX 4 1 2 2 1 3 3 4 5 6 6 7 7 8 11 9 8 10 10 11 9 12
REMARK H PARENT 3 5
REMARK Flexibility Score: inf
ROOT
ATOM      1  C   UNL     1       8.408  -0.683  -2.088  1.00  0.00     0.127 C 
ENDROOT
BRANCH   1   2
ATOM      2  C   UNL     1       8.469  -1.924  -2.895  1.00  0.00     0.303 C 
ATOM      3  O   UNL     1       9.551  -2.494  -3.104  1.00  0.00    -0.252 OA
BRANCH   2   4
ATOM      4  O   UNL     1       7.306  -2.453  -3.422  1.00  0.00    -0.481 OA
ATOM      5  H   UNL     1       7.098  -3.447  -3.388  1.00  0.00     0.296 HD
ENDBRANCH   2   4
ENDBRANCH   1   2
BRANCH   1   6
ATOM      6  C   UNL     1       7.017  -0.100  -2.115  1.00  0.00     0.047 C 
BRANCH   6   7
ATOM      7  C   UNL     1       6.453   0.098  -0.767  1.00  0.00    -0.047 A 
ATOM      8  C   UNL     1       5.814   1.241  -0.357  1.00  0.00     0.004 A 
ATOM      9  C   UNL     1       6.579  -0.932   0.135  1.00  0.00     0.004 A 
ATOM     10  C   UNL     1       5.316   1.341   0.927  1.00  0.00     0.000 A 
ATOM     11  C   UNL     1       6.095  -0.853   1.407  1.00  0.00     0.000 A 
ATOM     12  C   UNL     1       5.452   0.296   1.819  1.00  0.00     0.000 A 
ENDBRANCH   6   7
ENDBRANCH   1   6
TORSDOF 4
ENDMDL
MODEL 3
REMARK VINA RESULT:      -6.8      3.385      5.084
REMARK SMILES O=C(O)CCc1ccccc1
REMARK SMILES IDX 4 1 2 2 1 3 3 4 5 6 6 7 7 8 11 9 8 10 10 11 9 12
REMARK H PARENT 3 5
REMARK Flexibility Score: inf
ROOT
ATOM      1  C   UNL     1       4.987   1.757   0.698  1.00  0.00     0.127 C 
ENDROOT
BRANCH   1   2
ATOM      2  C   UNL     1       4.486   1.091   1.923  1.00  0.00     0.303 C 
ATOM      3  O   UNL     1       5.150   0.204   2.482  1.00  0.00    -0.252 OA
BRANCH   2   4
ATOM      4  O   UNL     1       3.263   1.462   2.450  1.00  0.00    -0.481 OA
ATOM      5  H   UNL     1       2.540   1.900   1.887  1.00  0.00     0.296 HD
ENDBRANCH   2   4
ENDBRANCH   1   2
BRANCH   1   6
ATOM      6  C   UNL     1       6.489   1.888   0.743  1.00  0.00     0.047 C 
BRANCH   6   7
ATOM      7  C   UNL     1       7.162   1.127  -0.328  1.00  0.00    -0.047 A 
ATOM      8  C   UNL     1       8.495   1.236  -0.632  1.00  0.00     0.004 A 
ATOM      9  C   UNL     1       6.398   0.254  -1.065  1.00  0.00     0.004 A 
ATOM     10  C   UNL     1       9.042   0.485  -1.654  1.00  0.00     0.000 A 
ATOM     11  C   UNL     1       6.919  -0.497  -2.078  1.00  0.00     0.000 A 
ATOM     12  C   UNL     1       8.259  -0.387  -2.384  1.00  0.00     0.000 A 
ENDBRANCH   6   7
ENDBRANCH   1   6
TORSDOF 4
ENDMDL
MODEL 4
REMARK VINA RESULT:      -6.7      3.823      4.926
REMARK SMILES O=C(O)CCc1ccccc1
REMARK SMILES IDX 4 1 2 2 1 3 3 4 5 6 6 7 7 8 11 9 8 10 10 11 9 12
REMARK H PARENT 3 5
REMARK Flexibility Score: inf
ROOT
ATOM      1  C   UNL     1       5.558   2.925  -0.041  1.00  0.00     0.127 C 
ENDROOT
BRANCH   1   2
ATOM      2  C   UNL     1       6.291   3.916   0.782  1.00  0.00     0.303 C 
ATOM      3  O   UNL     1       7.013   4.773   0.250  1.00  0.00    -0.252 OA
BRANCH   2   4
ATOM      4  O   UNL     1       6.169   3.884   2.158  1.00  0.00    -0.481 OA
ATOM      5  H   UNL     1       5.281   4.034   2.628  1.00  0.00     0.296 HD
ENDBRANCH   2   4
ENDBRANCH   1   2
BRANCH   1   6
ATOM      6  C   UNL     1       4.884   1.901   0.838  1.00  0.00     0.047 C 
BRANCH   6   7
ATOM      7  C   UNL     1       5.650   0.645   0.944  1.00  0.00    -0.047 A 
ATOM      8  C   UNL     1       5.774  -0.088   2.097  1.00  0.00     0.004 A 
ATOM      9  C   UNL     1       6.280   0.184  -0.187  1.00  0.00     0.004 A 
ATOM     10  C   UNL     1       6.514  -1.255   2.107  1.00  0.00     0.000 A 
ATOM     11  C   UNL     1       7.015  -0.964  -0.198  1.00  0.00     0.000 A 
ATOM     12  C   UNL     1       7.140  -1.702   0.960  1.00  0.00     0.000 A 
ENDBRANCH   6   7
ENDBRANCH   1   6
TORSDOF 4
ENDMDL
MODEL 5
REMARK VINA RESULT:      -6.7      1.942      2.659
REMARK SMILES O=C(O)CCc1ccccc1
REMARK SMILES IDX 4 1 2 2 1 3 3 4 5 6 6 7 7 8 11 9 8 10 10 11 9 12
REMARK H PARENT 3 5
REMARK Flexibility Score: inf
ROOT
ATOM      1  C   UNL     1       8.280   0.197  -2.186  1.00  0.00     0.127 C 
ENDROOT
BRANCH   1   2
ATOM      2  C   UNL     1       9.399   0.351  -1.228  1.00  0.00     0.303 C 
ATOM      3  O   UNL     1       9.484  -0.378  -0.227  1.00  0.00    -0.252 OA
BRANCH   2   4
ATOM      4  O   UNL     1      10.360   1.319  -1.450  1.00  0.00    -0.481 OA
ATOM      5  H   UNL     1      10.225   2.076  -2.114  1.00  0.00     0.296 HD
ENDBRANCH   2   4
ENDBRANCH   1   2
BRANCH   1   6
ATOM      6  C   UNL     1       7.133  -0.547  -1.548  1.00  0.00     0.047 C 
BRANCH   6   7
ATOM      7  C   UNL     1       6.341   0.298  -0.634  1.00  0.00    -0.047 A 
ATOM      8  C   UNL     1       5.802   1.511  -0.976  1.00  0.00     0.004 A 
ATOM      9  C   UNL     1       6.135  -0.165   0.644  1.00  0.00     0.004 A 
ATOM     10  C   UNL     1       5.073   2.238  -0.055  1.00  0.00     0.000 A 
ATOM     11  C   UNL     1       5.419   0.537   1.569  1.00  0.00     0.000 A 
ATOM     12  C   UNL     1       4.876   1.756   1.224  1.00  0.00     0.000 A 
ENDBRANCH   6   7
ENDBRANCH   1   6
TORSDOF 4
ENDMDL
