@<TRIPOS>MOLECULE
/home/cewinharhar/GITHUB/reincatalyze/data/processed/docking_pred/2023-Apr-25-1630_maxeplen5_maxtrainstep200_exh32_gamma099_lrac3e-4_lrcr1e-3/5f00cdda1ab61f28c1ea6d7129614616e9231d70_ligand_2.pdbqt
 12 12 0 0 0
SMALL
GASTEIGER

@<TRIPOS>ATOM
      1  C          4.9870    1.7570    0.6980 C.3     1  UNL1        0.1270
      2  C          4.4860    1.0910    1.9230 C.2     1  UNL1        0.3030
      3  O          5.1500    0.2040    2.4820 O.2     1  UNL1       -0.2520
      4  O          3.2630    1.4620    2.4500 O.3     1  UNL1       -0.4810
      5  H          2.5400    1.9000    1.8870 H       1  UNL1        0.2960
      6  C          6.4890    1.8880    0.7430 C.3     1  UNL1        0.0470
      7  C          7.1620    1.1270   -0.3280 C.2     1  UNL1       -0.0470
      8  C          8.4950    1.2360   -0.6320 C.2     1  UNL1        0.0040
      9  C          6.3980    0.2540   -1.0650 C.2     1  UNL1        0.0040
     10  C          9.0420    0.4850   -1.6540 C.2     1  UNL1        0.0000
     11  C          6.9190   -0.4970   -2.0780 C.2     1  UNL1        0.0000
     12  C          8.2590   -0.3870   -2.3840 C.2     1  UNL1        0.0000
@<TRIPOS>BOND
     1    12    11    2
     2    12    10    1
     3    11     9    1
     4    10     8    2
     5     9     7    2
     6     8     7    1
     7     7     6    1
     8     1     6    1
     9     1     2    1
    10     5     4    1
    11     2     4    1
    12     2     3    2
