@<TRIPOS>MOLECULE
/home/cewinharhar/GITHUB/reincatalyze/data/processed/docking_pred/2023-Apr-25-1630_maxeplen5_maxtrainstep200_exh32_gamma099_lrac3e-4_lrcr1e-3/6047b5c71b47d2a809e14c46b0582b8ae3076bc9_ligand_2.pdbqt
 12 12 0 0 0
SMALL
GASTEIGER

@<TRIPOS>ATOM
      1  C          5.0020    1.7900    0.7410 C.3     1  UNL1        0.1270
      2  C          4.4760    1.0980    1.9410 C.2     1  UNL1        0.3030
      3  O          5.1240    0.1930    2.4880 O.2     1  UNL1       -0.2520
      4  O          3.2480    1.4660    2.4570 O.3     1  UNL1       -0.4810
      5  H          2.9040    2.4210    2.4130 H       1  UNL1        0.2960
      6  C          6.5100    1.8010    0.7540 C.3     1  UNL1        0.0470
      7  C          7.0990    1.0030   -0.3380 C.2     1  UNL1       -0.0470
      8  C          6.4220    0.0390   -1.0410 C.2     1  UNL1        0.0040
      9  C          8.4110    1.2440   -0.6680 C.2     1  UNL1        0.0040
     10  C          7.0530   -0.6630   -2.0500 C.2     1  UNL1        0.0000
     11  C          9.0530    0.5620   -1.6600 C.2     1  UNL1        0.0000
     12  C          8.3720   -0.4070   -2.3670 C.2     1  UNL1        0.0000
@<TRIPOS>BOND
     1    12    10    2
     2    12    11    1
     3    10     8    1
     4    11     9    2
     5     8     7    2
     6     9     7    1
     7     7     6    1
     8     1     6    1
     9     1     2    1
    10     2     4    1
    11     2     3    2
    12     5     4    1
