@<TRIPOS>MOLECULE
/home/cewinharhar/GITHUB/reincatalyze/data/processed/docking_pred/2023-Apr-25-1630_maxeplen5_maxtrainstep200_exh32_gamma099_lrac3e-4_lrcr1e-3/6047b5c71b47d2a809e14c46b0582b8ae3076bc9_ligand_2.pdbqt
 12 12 0 0 0
SMALL
GASTEIGER

@<TRIPOS>ATOM
      1  C          8.4010   -0.6900   -2.0910 C.3     1  UNL1        0.1270
      2  C          8.4550   -1.9360   -2.8920 C.2     1  UNL1        0.3030
      3  O          9.5330   -2.5170   -3.0920 O.2     1  UNL1       -0.2520
      4  O          7.2900   -2.4570   -3.4220 O.3     1  UNL1       -0.4810
      5  H          6.4980   -1.8720   -3.6740 H       1  UNL1        0.2960
      6  C          7.0110   -0.1040   -2.1150 C.3     1  UNL1        0.0470
      7  C          6.4520    0.0970   -0.7650 C.2     1  UNL1       -0.0470
      8  C          5.8110    1.2390   -0.3580 C.2     1  UNL1        0.0040
      9  C          6.5850   -0.9290    0.1400 C.2     1  UNL1        0.0040
     10  C          5.3180    1.3430    0.9290 C.2     1  UNL1        0.0000
     11  C          6.1060   -0.8460    1.4140 C.2     1  UNL1        0.0000
     12  C          5.4610    0.3010    1.8240 C.2     1  UNL1        0.0000
@<TRIPOS>BOND
     1     5     4    1
     2     4     2    1
     3     3     2    2
     4     2     1    1
     5     6     1    1
     6     6     7    1
     7     7     8    2
     8     7     9    1
     9     8    10    1
    10     9    11    2
    11    10    12    2
    12    11    12    1
