MODEL 1
REMARK VINA RESULT:      -7.3      0.000      0.000
REMARK SMILES O=C(O)CCc1ccccc1
REMARK SMILES IDX 4 1 2 2 1 3 3 4 5 6 6 7 7 8 11 9 8 10 10 11 9 12
REMARK H PARENT 3 5
REMARK Flexibility Score: inf
ROOT
ATOM      1  C   UNL     1       8.401  -0.690  -2.091  1.00  0.00     0.127 C 
ENDROOT
BRANCH   1   2
ATOM      2  C   UNL     1       8.455  -1.936  -2.892  1.00  0.00     0.303 C 
ATOM      3  O   UNL     1       9.533  -2.517  -3.092  1.00  0.00    -0.252 OA
BRANCH   2   4
ATOM      4  O   UNL     1       7.290  -2.457  -3.422  1.00  0.00    -0.481 OA
ATOM      5  H   UNL     1       6.498  -1.872  -3.674  1.00  0.00     0.296 HD
ENDBRANCH   2   4
ENDBRANCH   1   2
BRANCH   1   6
ATOM      6  C   UNL     1       7.011  -0.104  -2.115  1.00  0.00     0.047 C 
BRANCH   6   7
ATOM      7  C   UNL     1       6.452   0.097  -0.765  1.00  0.00    -0.047 A 
ATOM      8  C   UNL     1       5.811   1.239  -0.358  1.00  0.00     0.004 A 
ATOM      9  C   UNL     1       6.585  -0.929   0.140  1.00  0.00     0.004 A 
ATOM     10  C   UNL     1       5.318   1.343   0.929  1.00  0.00     0.000 A 
ATOM     11  C   UNL     1       6.106  -0.846   1.414  1.00  0.00     0.000 A 
ATOM     12  C   UNL     1       5.461   0.301   1.824  1.00  0.00     0.000 A 
ENDBRANCH   6   7
ENDBRANCH   1   6
TORSDOF 4
ENDMDL
MODEL 2
REMARK VINA RESULT:      -7.3      0.094      1.429
REMARK SMILES O=C(O)CCc1ccccc1
REMARK SMILES IDX 4 1 2 2 1 3 3 4 5 6 6 7 7 8 11 9 8 10 10 11 9 12
REMARK H PARENT 3 5
REMARK Flexibility Score: inf
ROOT
ATOM      1  C   UNL     1       8.423  -0.622  -2.189  1.00  0.00     0.127 C 
ENDROOT
BRANCH   1   2
ATOM      2  C   UNL     1       8.490  -1.914  -2.913  1.00  0.00     0.303 C 
ATOM      3  O   UNL     1       9.574  -2.497  -3.074  1.00  0.00    -0.252 OA
BRANCH   2   4
ATOM      4  O   UNL     1       7.332  -2.474  -3.417  1.00  0.00    -0.481 OA
ATOM      5  H   UNL     1       6.553  -1.910  -3.744  1.00  0.00     0.296 HD
ENDBRANCH   2   4
ENDBRANCH   1   2
BRANCH   1   6
ATOM      6  C   UNL     1       7.000  -0.130  -2.115  1.00  0.00     0.047 C 
BRANCH   6   7
ATOM      7  C   UNL     1       6.494  -0.047  -0.731  1.00  0.00    -0.047 A 
ATOM      8  C   UNL     1       6.642  -1.038   0.205  1.00  0.00     0.004 A 
ATOM      9  C   UNL     1       5.831   1.099  -0.362  1.00  0.00     0.004 A 
ATOM     10  C   UNL     1       6.135  -0.877   1.480  1.00  0.00     0.000 A 
ATOM     11  C   UNL     1       5.323   1.278   0.891  1.00  0.00     0.000 A 
ATOM     12  C   UNL     1       5.472   0.282   1.833  1.00  0.00     0.000 A 
ENDBRANCH   6   7
ENDBRANCH   1   6
TORSDOF 4
ENDMDL
MODEL 3
REMARK VINA RESULT:      -7.2      0.626      1.080
REMARK SMILES O=C(O)CCc1ccccc1
REMARK SMILES IDX 4 1 2 2 1 3 3 4 5 6 6 7 7 8 11 9 8 10 10 11 9 12
REMARK H PARENT 3 5
REMARK Flexibility Score: inf
ROOT
ATOM      1  C   UNL     1       8.190  -0.899  -1.927  1.00  0.00     0.127 C 
ENDROOT
BRANCH   1   2
ATOM      2  C   UNL     1       8.391  -1.994  -2.904  1.00  0.00     0.303 C 
ATOM      3  O   UNL     1       9.524  -2.448  -3.127  1.00  0.00    -0.252 OA
BRANCH   2   4
ATOM      4  O   UNL     1       7.302  -2.517  -3.576  1.00  0.00    -0.481 OA
ATOM      5  H   UNL     1       7.312  -3.447  -3.986  1.00  0.00     0.296 HD
ENDBRANCH   2   4
ENDBRANCH   1   2
BRANCH   1   6
ATOM      6  C   UNL     1       7.336  -1.366  -0.774  1.00  0.00     0.047 C 
BRANCH   6   7
ATOM      7  C   UNL     1       6.520  -0.284  -0.190  1.00  0.00    -0.047 A 
ATOM      8  C   UNL     1       6.134   0.843  -0.869  1.00  0.00     0.004 A 
ATOM      9  C   UNL     1       6.126  -0.420   1.119  1.00  0.00     0.004 A 
ATOM     10  C   UNL     1       5.370   1.808  -0.242  1.00  0.00     0.000 A 
ATOM     11  C   UNL     1       5.371   0.521   1.756  1.00  0.00     0.000 A 
ATOM     12  C   UNL     1       4.982   1.654   1.074  1.00  0.00     0.000 A 
ENDBRANCH   6   7
ENDBRANCH   1   6
TORSDOF 4
ENDMDL
MODEL 4
REMARK VINA RESULT:      -6.8      3.383      5.094
REMARK SMILES O=C(O)CCc1ccccc1
REMARK SMILES IDX 4 1 2 2 1 3 3 4 5 6 6 7 7 8 11 9 8 10 10 11 9 12
REMARK H PARENT 3 5
REMARK Flexibility Score: inf
ROOT
ATOM      1  C   UNL     1       5.002   1.790   0.741  1.00  0.00     0.127 C 
ENDROOT
BRANCH   1   2
ATOM      2  C   UNL     1       4.476   1.098   1.941  1.00  0.00     0.303 C 
ATOM      3  O   UNL     1       5.124   0.193   2.488  1.00  0.00    -0.252 OA
BRANCH   2   4
ATOM      4  O   UNL     1       3.248   1.466   2.457  1.00  0.00    -0.481 OA
ATOM      5  H   UNL     1       2.904   2.421   2.413  1.00  0.00     0.296 HD
ENDBRANCH   2   4
ENDBRANCH   1   2
BRANCH   1   6
ATOM      6  C   UNL     1       6.510   1.801   0.754  1.00  0.00     0.047 C 
BRANCH   6   7
ATOM      7  C   UNL     1       7.099   1.003  -0.338  1.00  0.00    -0.047 A 
ATOM      8  C   UNL     1       6.422   0.039  -1.041  1.00  0.00     0.004 A 
ATOM      9  C   UNL     1       8.411   1.244  -0.668  1.00  0.00     0.004 A 
ATOM     10  C   UNL     1       7.053  -0.663  -2.050  1.00  0.00     0.000 A 
ATOM     11  C   UNL     1       9.053   0.562  -1.660  1.00  0.00     0.000 A 
ATOM     12  C   UNL     1       8.372  -0.407  -2.367  1.00  0.00     0.000 A 
ENDBRANCH   6   7
ENDBRANCH   1   6
TORSDOF 4
ENDMDL
MODEL 5
REMARK VINA RESULT:      -6.6      2.015      2.333
REMARK SMILES O=C(O)CCc1ccccc1
REMARK SMILES IDX 4 1 2 2 1 3 3 4 5 6 6 7 7 8 11 9 8 10 10 11 9 12
REMARK H PARENT 3 5
REMARK Flexibility Score: inf
ROOT
ATOM      1  C   UNL     1       8.324   0.363  -1.954  1.00  0.00     0.127 C 
ENDROOT
BRANCH   1   2
ATOM      2  C   UNL     1       9.490   0.404  -1.041  1.00  0.00     0.303 C 
ATOM      3  O   UNL     1       9.559  -0.359  -0.065  1.00  0.00    -0.252 OA
BRANCH   2   4
ATOM      4  O   UNL     1      10.512   1.303  -1.278  1.00  0.00    -0.481 OA
ATOM      5  H   UNL     1      10.338   2.250  -1.601  1.00  0.00     0.296 HD
ENDBRANCH   2   4
ENDBRANCH   1   2
BRANCH   1   6
ATOM      6  C   UNL     1       7.235  -0.511  -1.385  1.00  0.00     0.047 C 
BRANCH   6   7
ATOM      7  C   UNL     1       6.395   0.191  -0.396  1.00  0.00    -0.047 A 
ATOM      8  C   UNL     1       5.810   1.414  -0.609  1.00  0.00     0.004 A 
ATOM      9  C   UNL     1       6.189  -0.423   0.816  1.00  0.00     0.004 A 
ATOM     10  C   UNL     1       5.038   2.000   0.375  1.00  0.00     0.000 A 
ATOM     11  C   UNL     1       5.431   0.140   1.801  1.00  0.00     0.000 A 
ATOM     12  C   UNL     1       4.843   1.368   1.587  1.00  0.00     0.000 A 
ENDBRANCH   6   7
ENDBRANCH   1   6
TORSDOF 4
ENDMDL
