@<TRIPOS>MOLECULE
/home/cewinharhar/GITHUB/reincatalyze/data/processed/docking_pred/2023-Apr-25-1630_maxeplen5_maxtrainstep200_exh32_gamma099_lrac3e-4_lrcr1e-3/6047b5c71b47d2a809e14c46b0582b8ae3076bc9_ligand_2.pdbqt
 12 12 0 0 0
SMALL
GASTEIGER

@<TRIPOS>ATOM
      1  C          8.3240    0.3630   -1.9540 C.3     1  UNL1        0.1270
      2  C          9.4900    0.4040   -1.0410 C.2     1  UNL1        0.3030
      3  O          9.5590   -0.3590   -0.0650 O.2     1  UNL1       -0.2520
      4  O         10.5120    1.3030   -1.2780 O.3     1  UNL1       -0.4810
      5  H         10.3380    2.2500   -1.6010 H       1  UNL1        0.2960
      6  C          7.2350   -0.5110   -1.3850 C.3     1  UNL1        0.0470
      7  C          6.3950    0.1910   -0.3960 C.2     1  UNL1       -0.0470
      8  C          5.8100    1.4140   -0.6090 C.2     1  UNL1        0.0040
      9  C          6.1890   -0.4230    0.8160 C.2     1  UNL1        0.0040
     10  C          5.0380    2.0000    0.3750 C.2     1  UNL1        0.0000
     11  C          5.4310    0.1400    1.8010 C.2     1  UNL1        0.0000
     12  C          4.8430    1.3680    1.5870 C.2     1  UNL1        0.0000
@<TRIPOS>BOND
     1     1     6    1
     2     1     2    1
     3     5     4    1
     4     6     7    1
     5     4     2    1
     6     2     3    2
     7     8     7    2
     8     8    10    1
     9     7     9    1
    10    10    12    2
    11     9    11    2
    12    12    11    1
