@<TRIPOS>MOLECULE
/home/cewinharhar/GITHUB/reincatalyze/data/processed/docking_pred/2023-Apr-25-1630_maxeplen5_maxtrainstep200_exh32_gamma099_lrac3e-4_lrcr1e-3/6047b5c71b47d2a809e14c46b0582b8ae3076bc9_ligand_2.pdbqt
 12 12 0 0 0
SMALL
GASTEIGER

@<TRIPOS>ATOM
      1  C          8.4230   -0.6220   -2.1890 C.3     1  UNL1        0.1270
      2  C          8.4900   -1.9140   -2.9130 C.2     1  UNL1        0.3030
      3  O          9.5740   -2.4970   -3.0740 O.2     1  UNL1       -0.2520
      4  O          7.3320   -2.4740   -3.4170 O.3     1  UNL1       -0.4810
      5  H          6.5530   -1.9100   -3.7440 H       1  UNL1        0.2960
      6  C          7.0000   -0.1300   -2.1150 C.3     1  UNL1        0.0470
      7  C          6.4940   -0.0470   -0.7310 C.2     1  UNL1       -0.0470
      8  C          6.6420   -1.0380    0.2050 C.2     1  UNL1        0.0040
      9  C          5.8310    1.0990   -0.3620 C.2     1  UNL1        0.0040
     10  C          6.1350   -0.8770    1.4800 C.2     1  UNL1        0.0000
     11  C          5.3230    1.2780    0.8910 C.2     1  UNL1        0.0000
     12  C          5.4720    0.2820    1.8330 C.2     1  UNL1        0.0000
@<TRIPOS>BOND
     1     5     4    1
     2     4     2    1
     3     3     2    2
     4     2     1    1
     5     1     6    1
     6     6     7    1
     7     7     9    2
     8     7     8    1
     9     9    11    1
    10     8    10    2
    11    11    12    2
    12    10    12    1
