@<TRIPOS>MOLECULE
/home/cewinharhar/GITHUB/reincatalyze/data/processed/docking_pred/2023-Apr-25-1630_maxeplen5_maxtrainstep200_exh32_gamma099_lrac3e-4_lrcr1e-3/6070aa1b8336213875ea865ca7f6d729a9af33a9_ligand_2.pdbqt
 12 12 0 0 0
SMALL
GASTEIGER

@<TRIPOS>ATOM
      1  C          4.9950    1.7640    0.6910 C.3     1  UNL1        0.1270
      2  C          4.4900    1.1010    1.9170 C.2     1  UNL1        0.3030
      3  O          5.1530    0.2160    2.4800 O.2     1  UNL1       -0.2520
      4  O          3.2660    1.4730    2.4390 O.3     1  UNL1       -0.4810
      5  H          3.1450    1.7200    3.4170 H       1  UNL1        0.2960
      6  C          6.5020    1.8210    0.7020 C.3     1  UNL1        0.0470
      7  C          7.1130    1.0210   -0.3760 C.2     1  UNL1       -0.0470
      8  C          6.4360    0.1000   -1.1330 C.2     1  UNL1        0.0040
      9  C          8.4500    1.2150   -0.6340 C.2     1  UNL1        0.0040
     10  C          7.0900   -0.6070   -2.1240 C.2     1  UNL1        0.0000
     11  C          9.1130    0.5280   -1.6070 C.2     1  UNL1        0.0000
     12  C          8.4320   -0.3980   -2.3690 C.2     1  UNL1        0.0000
@<TRIPOS>BOND
     1    12    10    2
     2    12    11    1
     3    10     8    1
     4    11     9    2
     5     8     7    2
     6     9     7    1
     7     7     6    1
     8     1     6    1
     9     1     2    1
    10     2     4    1
    11     2     3    2
    12     4     5    1
