MODEL 1
REMARK VINA RESULT:      -7.3      0.000      0.000
REMARK SMILES O=C(O)CCc1ccccc1
REMARK SMILES IDX 4 1 2 2 1 3 3 4 5 6 6 7 7 8 11 9 8 10 10 11 9 12
REMARK H PARENT 3 5
REMARK Flexibility Score: inf
ROOT
ATOM      1  C   UNL     1       8.417  -0.640  -2.122  1.00  0.00     0.127 C 
ENDROOT
BRANCH   1   2
ATOM      2  C   UNL     1       8.463  -1.904  -2.894  1.00  0.00     0.303 C 
ATOM      3  O   UNL     1       9.537  -2.498  -3.077  1.00  0.00    -0.252 OA
BRANCH   2   4
ATOM      4  O   UNL     1       7.296  -2.427  -3.418  1.00  0.00    -0.481 OA
ATOM      5  H   UNL     1       6.490  -2.643  -2.838  1.00  0.00     0.296 HD
ENDBRANCH   2   4
ENDBRANCH   1   2
BRANCH   1   6
ATOM      6  C   UNL     1       7.025  -0.060  -2.136  1.00  0.00     0.047 C 
BRANCH   6   7
ATOM      7  C   UNL     1       6.463   0.115  -0.783  1.00  0.00    -0.047 A 
ATOM      8  C   UNL     1       5.827   1.251  -0.353  1.00  0.00     0.004 A 
ATOM      9  C   UNL     1       6.591  -0.930   0.100  1.00  0.00     0.004 A 
ATOM     10  C   UNL     1       5.332   1.329   0.935  1.00  0.00     0.000 A 
ATOM     11  C   UNL     1       6.110  -0.873   1.375  1.00  0.00     0.000 A 
ATOM     12  C   UNL     1       5.469   0.269   1.808  1.00  0.00     0.000 A 
ENDBRANCH   6   7
ENDBRANCH   1   6
TORSDOF 4
ENDMDL
MODEL 2
REMARK VINA RESULT:      -7.3      0.103      1.429
REMARK SMILES O=C(O)CCc1ccccc1
REMARK SMILES IDX 4 1 2 2 1 3 3 4 5 6 6 7 7 8 11 9 8 10 10 11 9 12
REMARK H PARENT 3 5
REMARK Flexibility Score: inf
ROOT
ATOM      1  C   UNL     1       8.438  -0.595  -2.204  1.00  0.00     0.127 C 
ENDROOT
BRANCH   1   2
ATOM      2  C   UNL     1       8.476  -1.888  -2.927  1.00  0.00     0.303 C 
ATOM      3  O   UNL     1       9.548  -2.489  -3.098  1.00  0.00    -0.252 OA
BRANCH   2   4
ATOM      4  O   UNL     1       7.304  -2.431  -3.417  1.00  0.00    -0.481 OA
ATOM      5  H   UNL     1       6.461  -1.878  -3.544  1.00  0.00     0.296 HD
ENDBRANCH   2   4
ENDBRANCH   1   2
BRANCH   1   6
ATOM      6  C   UNL     1       7.031  -0.053  -2.162  1.00  0.00     0.047 C 
BRANCH   6   7
ATOM      7  C   UNL     1       6.501   0.059  -0.789  1.00  0.00    -0.047 A 
ATOM      8  C   UNL     1       6.593  -0.931   0.156  1.00  0.00     0.004 A 
ATOM      9  C   UNL     1       5.875   1.232  -0.441  1.00  0.00     0.004 A 
ATOM     10  C   UNL     1       6.066  -0.741   1.420  1.00  0.00     0.000 A 
ATOM     11  C   UNL     1       5.349   1.439   0.800  1.00  0.00     0.000 A 
ATOM     12  C   UNL     1       5.441   0.445   1.751  1.00  0.00     0.000 A 
ENDBRANCH   6   7
ENDBRANCH   1   6
TORSDOF 4
ENDMDL
MODEL 3
REMARK VINA RESULT:      -7.0      0.991      1.913
REMARK SMILES O=C(O)CCc1ccccc1
REMARK SMILES IDX 4 1 2 2 1 3 3 4 5 6 6 7 7 8 11 9 8 10 10 11 9 12
REMARK H PARENT 3 5
REMARK Flexibility Score: inf
ROOT
ATOM      1  C   UNL     1       7.338  -1.389  -2.103  1.00  0.00     0.127 C 
ENDROOT
BRANCH   1   2
ATOM      2  C   UNL     1       8.757  -1.365  -2.531  1.00  0.00     0.303 C 
ATOM      3  O   UNL     1       9.513  -0.449  -2.175  1.00  0.00    -0.252 OA
BRANCH   2   4
ATOM      4  O   UNL     1       9.242  -2.376  -3.338  1.00  0.00    -0.481 OA
ATOM      5  H   UNL     1       9.760  -3.168  -2.965  1.00  0.00     0.296 HD
ENDBRANCH   2   4
ENDBRANCH   1   2
BRANCH   1   6
ATOM      6  C   UNL     1       7.239  -1.464  -0.600  1.00  0.00     0.047 C 
BRANCH   6   7
ATOM      7  C   UNL     1       6.453  -0.357  -0.022  1.00  0.00    -0.047 A 
ATOM      8  C   UNL     1       5.958  -0.347   1.257  1.00  0.00     0.004 A 
ATOM      9  C   UNL     1       6.201   0.732  -0.823  1.00  0.00     0.004 A 
ATOM     10  C   UNL     1       5.229   0.733   1.716  1.00  0.00     0.000 A 
ATOM     11  C   UNL     1       5.483   1.807  -0.389  1.00  0.00     0.000 A 
ATOM     12  C   UNL     1       4.987   1.818   0.897  1.00  0.00     0.000 A 
ENDBRANCH   6   7
ENDBRANCH   1   6
TORSDOF 4
ENDMDL
MODEL 4
REMARK VINA RESULT:      -6.8      3.372      5.077
REMARK SMILES O=C(O)CCc1ccccc1
REMARK SMILES IDX 4 1 2 2 1 3 3 4 5 6 6 7 7 8 11 9 8 10 10 11 9 12
REMARK H PARENT 3 5
REMARK Flexibility Score: inf
ROOT
ATOM      1  C   UNL     1       4.995   1.764   0.691  1.00  0.00     0.127 C 
ENDROOT
BRANCH   1   2
ATOM      2  C   UNL     1       4.490   1.101   1.917  1.00  0.00     0.303 C 
ATOM      3  O   UNL     1       5.153   0.216   2.480  1.00  0.00    -0.252 OA
BRANCH   2   4
ATOM      4  O   UNL     1       3.266   1.473   2.439  1.00  0.00    -0.481 OA
ATOM      5  H   UNL     1       3.145   1.720   3.417  1.00  0.00     0.296 HD
ENDBRANCH   2   4
ENDBRANCH   1   2
BRANCH   1   6
ATOM      6  C   UNL     1       6.502   1.821   0.702  1.00  0.00     0.047 C 
BRANCH   6   7
ATOM      7  C   UNL     1       7.113   1.021  -0.376  1.00  0.00    -0.047 A 
ATOM      8  C   UNL     1       6.436   0.100  -1.133  1.00  0.00     0.004 A 
ATOM      9  C   UNL     1       8.450   1.215  -0.634  1.00  0.00     0.004 A 
ATOM     10  C   UNL     1       7.090  -0.607  -2.124  1.00  0.00     0.000 A 
ATOM     11  C   UNL     1       9.113   0.528  -1.607  1.00  0.00     0.000 A 
ATOM     12  C   UNL     1       8.432  -0.398  -2.369  1.00  0.00     0.000 A 
ENDBRANCH   6   7
ENDBRANCH   1   6
TORSDOF 4
ENDMDL
MODEL 5
REMARK VINA RESULT:      -6.6      2.039      2.541
REMARK SMILES O=C(O)CCc1ccccc1
REMARK SMILES IDX 4 1 2 2 1 3 3 4 5 6 6 7 7 8 11 9 8 10 10 11 9 12
REMARK H PARENT 3 5
REMARK Flexibility Score: inf
ROOT
ATOM      1  C   UNL     1       7.932  -2.322   0.786  1.00  0.00     0.127 C 
ENDROOT
BRANCH   1   2
ATOM      2  C   UNL     1       8.780  -3.453   0.340  1.00  0.00     0.303 C 
ATOM      3  O   UNL     1       9.664  -3.913   1.079  1.00  0.00    -0.252 OA
BRANCH   2   4
ATOM      4  O   UNL     1       8.583  -4.001  -0.913  1.00  0.00    -0.481 OA
ATOM      5  H   UNL     1       8.469  -5.000  -1.056  1.00  0.00     0.296 HD
ENDBRANCH   2   4
ENDBRANCH   1   2
BRANCH   1   6
ATOM      6  C   UNL     1       7.545  -1.455  -0.387  1.00  0.00     0.047 C 
BRANCH   6   7
ATOM      7  C   UNL     1       6.656  -0.341  -0.007  1.00  0.00    -0.047 A 
ATOM      8  C   UNL     1       6.329   0.702  -0.834  1.00  0.00     0.004 A 
ATOM      9  C   UNL     1       6.124  -0.354   1.261  1.00  0.00     0.004 A 
ATOM     10  C   UNL     1       5.487   1.706  -0.395  1.00  0.00     0.000 A 
ATOM     11  C   UNL     1       5.292   0.627   1.714  1.00  0.00     0.000 A 
ATOM     12  C   UNL     1       4.963   1.675   0.882  1.00  0.00     0.000 A 
ENDBRANCH   6   7
ENDBRANCH   1   6
TORSDOF 4
ENDMDL
