@<TRIPOS>MOLECULE
/home/cewinharhar/GITHUB/reincatalyze/data/processed/docking_pred/2023-Apr-25-1630_maxeplen5_maxtrainstep200_exh32_gamma099_lrac3e-4_lrcr1e-3/6070aa1b8336213875ea865ca7f6d729a9af33a9_ligand_2.pdbqt
 12 12 0 0 0
SMALL
GASTEIGER

@<TRIPOS>ATOM
      1  C          7.3380   -1.3890   -2.1030 C.3     1  UNL1        0.1270
      2  C          8.7570   -1.3650   -2.5310 C.2     1  UNL1        0.3030
      3  O          9.5130   -0.4490   -2.1750 O.2     1  UNL1       -0.2520
      4  O          9.2420   -2.3760   -3.3380 O.3     1  UNL1       -0.4810
      5  H          9.7600   -3.1680   -2.9650 H       1  UNL1        0.2960
      6  C          7.2390   -1.4640   -0.6000 C.3     1  UNL1        0.0470
      7  C          6.4530   -0.3570   -0.0220 C.2     1  UNL1       -0.0470
      8  C          5.9580   -0.3470    1.2570 C.2     1  UNL1        0.0040
      9  C          6.2010    0.7320   -0.8230 C.2     1  UNL1        0.0040
     10  C          5.2290    0.7330    1.7160 C.2     1  UNL1        0.0000
     11  C          5.4830    1.8070   -0.3890 C.2     1  UNL1        0.0000
     12  C          4.9870    1.8180    0.8970 C.2     1  UNL1        0.0000
@<TRIPOS>BOND
     1     4     5    1
     2     4     2    1
     3     2     3    2
     4     2     1    1
     5     1     6    1
     6     9    11    1
     7     9     7    2
     8     6     7    1
     9    11    12    2
    10     7     8    1
    11    12    10    1
    12     8    10    2
