@<TRIPOS>MOLECULE
/home/cewinharhar/GITHUB/reincatalyze/data/processed/docking_pred/2023-Apr-25-1630_maxeplen5_maxtrainstep200_exh32_gamma099_lrac3e-4_lrcr1e-3/6070aa1b8336213875ea865ca7f6d729a9af33a9_ligand_2.pdbqt
 12 12 0 0 0
SMALL
GASTEIGER

@<TRIPOS>ATOM
      1  C          7.9320   -2.3220    0.7860 C.3     1  UNL1        0.1270
      2  C          8.7800   -3.4530    0.3400 C.2     1  UNL1        0.3030
      3  O          9.6640   -3.9130    1.0790 O.2     1  UNL1       -0.2520
      4  O          8.5830   -4.0010   -0.9130 O.3     1  UNL1       -0.4810
      5  H          8.4690   -5.0000   -1.0560 H       1  UNL1        0.2960
      6  C          7.5450   -1.4550   -0.3870 C.3     1  UNL1        0.0470
      7  C          6.6560   -0.3410   -0.0070 C.2     1  UNL1       -0.0470
      8  C          6.3290    0.7020   -0.8340 C.2     1  UNL1        0.0040
      9  C          6.1240   -0.3540    1.2610 C.2     1  UNL1        0.0040
     10  C          5.4870    1.7060   -0.3950 C.2     1  UNL1        0.0000
     11  C          5.2920    0.6270    1.7140 C.2     1  UNL1        0.0000
     12  C          4.9630    1.6750    0.8820 C.2     1  UNL1        0.0000
@<TRIPOS>BOND
     1     5     4    1
     2     4     2    1
     3     8    10    1
     4     8     7    2
     5    10    12    2
     6     6     7    1
     7     6     1    1
     8     7     9    1
     9     2     1    1
    10     2     3    2
    11    12    11    1
    12     9    11    2
