@<TRIPOS>MOLECULE
/home/cewinharhar/GITHUB/reincatalyze/data/processed/docking_pred/2023-Apr-25-1630_maxeplen5_maxtrainstep200_exh32_gamma099_lrac3e-4_lrcr1e-3/6070aa1b8336213875ea865ca7f6d729a9af33a9_ligand_2.pdbqt
 12 12 0 0 0
SMALL
GASTEIGER

@<TRIPOS>ATOM
      1  C          8.4170   -0.6400   -2.1220 C.3     1  UNL1        0.1270
      2  C          8.4630   -1.9040   -2.8940 C.2     1  UNL1        0.3030
      3  O          9.5370   -2.4980   -3.0770 O.2     1  UNL1       -0.2520
      4  O          7.2960   -2.4270   -3.4180 O.3     1  UNL1       -0.4810
      5  H          6.4900   -2.6430   -2.8380 H       1  UNL1        0.2960
      6  C          7.0250   -0.0600   -2.1360 C.3     1  UNL1        0.0470
      7  C          6.4630    0.1150   -0.7830 C.2     1  UNL1       -0.0470
      8  C          5.8270    1.2510   -0.3530 C.2     1  UNL1        0.0040
      9  C          6.5910   -0.9300    0.1000 C.2     1  UNL1        0.0040
     10  C          5.3320    1.3290    0.9350 C.2     1  UNL1        0.0000
     11  C          6.1100   -0.8730    1.3750 C.2     1  UNL1        0.0000
     12  C          5.4690    0.2690    1.8080 C.2     1  UNL1        0.0000
@<TRIPOS>BOND
     1     4     2    1
     2     4     5    1
     3     3     2    2
     4     2     1    1
     5     6     1    1
     6     6     7    1
     7     7     8    2
     8     7     9    1
     9     8    10    1
    10     9    11    2
    11    10    12    2
    12    11    12    1
