@<TRIPOS>MOLECULE
/home/cewinharhar/GITHUB/reincatalyze/data/processed/docking_pred/2023-Apr-25-1630_maxeplen5_maxtrainstep200_exh32_gamma099_lrac3e-4_lrcr1e-3/62f66f9004302081042513b5faa006f3d97c65a4_ligand_2.pdbqt
 12 12 0 0 0
SMALL
GASTEIGER

@<TRIPOS>ATOM
      1  C          7.3220   -1.3120   -2.0870 C.3     1  UNL1        0.1270
      2  C          8.7510   -1.3920   -2.4690 C.2     1  UNL1        0.3030
      3  O          9.1720   -2.3290   -3.1650 O.2     1  UNL1       -0.2520
      4  O          9.6270   -0.4110   -2.0440 O.3     1  UNL1       -0.4810
      5  H          9.3090    0.4980   -1.7210 H       1  UNL1        0.2960
      6  C          7.1660   -1.4210   -0.5910 C.3     1  UNL1        0.0470
      7  C          6.3940   -0.3030   -0.0130 C.2     1  UNL1       -0.0470
      8  C          5.8800   -0.2960    1.2590 C.2     1  UNL1        0.0040
      9  C          6.1780    0.7990   -0.8050 C.2     1  UNL1        0.0040
     10  C          5.1680    0.7950    1.7180 C.2     1  UNL1        0.0000
     11  C          5.4780    1.8850   -0.3710 C.2     1  UNL1        0.0000
     12  C          4.9620    1.8930    0.9080 C.2     1  UNL1        0.0000
@<TRIPOS>BOND
     1     3     2    2
     2     2     1    1
     3     2     4    1
     4     1     6    1
     5     4     5    1
     6     9    11    1
     7     9     7    2
     8     6     7    1
     9    11    12    2
    10     7     8    1
    11    12    10    1
    12     8    10    2
