@<TRIPOS>MOLECULE
/home/cewinharhar/GITHUB/reincatalyze/data/processed/docking_pred/2023-Apr-25-1630_maxeplen5_maxtrainstep200_exh32_gamma099_lrac3e-4_lrcr1e-3/62f66f9004302081042513b5faa006f3d97c65a4_ligand_2.pdbqt
 12 12 0 0 0
SMALL
GASTEIGER

@<TRIPOS>ATOM
      1  C          5.0280    1.7190    0.6860 C.3     1  UNL1        0.1270
      2  C          4.6040    1.0280    1.9270 C.2     1  UNL1        0.3030
      3  O          5.3410    0.1920    2.4730 O.2     1  UNL1       -0.2520
      4  O          3.3720    1.3180    2.4830 O.3     1  UNL1       -0.4810
      5  H          3.1590    1.1310    3.4580 H       1  UNL1        0.2960
      6  C          6.5230    1.9130    0.6720 C.3     1  UNL1        0.0470
      7  C          7.1930    1.1220   -0.3780 C.2     1  UNL1       -0.0470
      8  C          8.5360    1.1790   -0.6490 C.2     1  UNL1        0.0040
      9  C          6.4150    0.2760   -1.1330 C.2     1  UNL1        0.0040
     10  C          9.0800    0.4030   -1.6540 C.2     1  UNL1        0.0000
     11  C          6.9330   -0.4980   -2.1290 C.2     1  UNL1        0.0000
     12  C          8.2830   -0.4420   -2.4010 C.2     1  UNL1        0.0000
@<TRIPOS>BOND
     1    12    11    2
     2    12    10    1
     3    11     9    1
     4    10     8    2
     5     9     7    2
     6     8     7    1
     7     7     6    1
     8     6     1    1
     9     1     2    1
    10     2     3    2
    11     2     4    1
    12     4     5    1
