@<TRIPOS>MOLECULE
/home/cewinharhar/GITHUB/reincatalyze/data/processed/docking_pred/2023-Apr-25-1630_maxeplen5_maxtrainstep200_exh32_gamma099_lrac3e-4_lrcr1e-3/62f66f9004302081042513b5faa006f3d97c65a4_ligand_2.pdbqt
 12 12 0 0 0
SMALL
GASTEIGER

@<TRIPOS>ATOM
      1  C          5.4250    2.8530    0.0710 C.3     1  UNL1        0.1270
      2  C          6.2200    3.8100    0.8760 C.2     1  UNL1        0.3030
      3  O          6.2150    3.7570    2.1150 O.2     1  UNL1       -0.2520
      4  O          6.9760    4.7750    0.2370 O.3     1  UNL1       -0.4810
      5  H          6.5540    5.5480   -0.2690 H       1  UNL1        0.2960
      6  C          4.9000    1.7380    0.9410 C.3     1  UNL1        0.0470
      7  C          5.7600    0.5390    0.9170 C.2     1  UNL1       -0.0470
      8  C          6.5540    0.1800   -0.1420 C.2     1  UNL1        0.0040
      9  C          5.7610   -0.2670    2.0300 C.2     1  UNL1        0.0040
     10  C          7.3280   -0.9630   -0.0800 C.2     1  UNL1        0.0000
     11  C          6.5180   -1.3990    2.1120 C.2     1  UNL1        0.0000
     12  C          7.3160   -1.7600    1.0470 C.2     1  UNL1        0.0000
@<TRIPOS>BOND
     1     5     4    1
     2     8    10    1
     3     8     7    2
     4    10    12    2
     5     1     2    1
     6     1     6    1
     7     4     2    1
     8     2     3    2
     9     7     6    1
    10     7     9    1
    11    12    11    1
    12     9    11    2
