MODEL 1
REMARK VINA RESULT:      -7.3      0.000      0.000
REMARK SMILES O=C(O)CCc1ccccc1
REMARK SMILES IDX 4 1 2 2 1 3 3 4 5 6 6 7 7 8 11 9 8 10 10 11 9 12
REMARK H PARENT 3 5
REMARK Flexibility Score: inf
ROOT
ATOM      1  C   UNL     1       8.423  -0.622  -2.143  1.00  0.00     0.127 C 
ENDROOT
BRANCH   1   2
ATOM      2  C   UNL     1       8.492  -1.895  -2.898  1.00  0.00     0.303 C 
ATOM      3  O   UNL     1       9.577  -2.470  -3.077  1.00  0.00    -0.252 OA
BRANCH   2   4
ATOM      4  O   UNL     1       7.334  -2.448  -3.411  1.00  0.00    -0.481 OA
ATOM      5  H   UNL     1       6.748  -1.957  -4.080  1.00  0.00     0.296 HD
ENDBRANCH   2   4
ENDBRANCH   1   2
BRANCH   1   6
ATOM      6  C   UNL     1       7.017  -0.077  -2.151  1.00  0.00     0.047 C 
BRANCH   6   7
ATOM      7  C   UNL     1       6.465   0.103  -0.794  1.00  0.00    -0.047 A 
ATOM      8  C   UNL     1       5.833   1.241  -0.362  1.00  0.00     0.004 A 
ATOM      9  C   UNL     1       6.598  -0.940   0.091  1.00  0.00     0.004 A 
ATOM     10  C   UNL     1       5.346   1.323   0.928  1.00  0.00     0.000 A 
ATOM     11  C   UNL     1       6.125  -0.879   1.369  1.00  0.00     0.000 A 
ATOM     12  C   UNL     1       5.489   0.265   1.803  1.00  0.00     0.000 A 
ENDBRANCH   6   7
ENDBRANCH   1   6
TORSDOF 4
ENDMDL
MODEL 2
REMARK VINA RESULT:      -7.3      0.089      1.428
REMARK SMILES O=C(O)CCc1ccccc1
REMARK SMILES IDX 4 1 2 2 1 3 3 4 5 6 6 7 7 8 11 9 8 10 10 11 9 12
REMARK H PARENT 3 5
REMARK Flexibility Score: inf
ROOT
ATOM      1  C   UNL     1       8.432  -0.594  -2.237  1.00  0.00     0.127 C 
ENDROOT
BRANCH   1   2
ATOM      2  C   UNL     1       8.490  -1.909  -2.917  1.00  0.00     0.303 C 
ATOM      3  O   UNL     1       9.571  -2.499  -3.068  1.00  0.00    -0.252 OA
BRANCH   2   4
ATOM      4  O   UNL     1       7.327  -2.485  -3.390  1.00  0.00    -0.481 OA
ATOM      5  H   UNL     1       6.610  -2.851  -2.769  1.00  0.00     0.296 HD
ENDBRANCH   2   4
ENDBRANCH   1   2
BRANCH   1   6
ATOM      6  C   UNL     1       7.012  -0.088  -2.181  1.00  0.00     0.047 C 
BRANCH   6   7
ATOM      7  C   UNL     1       6.496   0.016  -0.802  1.00  0.00    -0.047 A 
ATOM      8  C   UNL     1       6.605  -0.974   0.140  1.00  0.00     0.004 A 
ATOM      9  C   UNL     1       5.863   1.183  -0.446  1.00  0.00     0.004 A 
ATOM     10  C   UNL     1       6.090  -0.791   1.409  1.00  0.00     0.000 A 
ATOM     11  C   UNL     1       5.348   1.384   0.801  1.00  0.00     0.000 A 
ATOM     12  C   UNL     1       5.459   0.389   1.749  1.00  0.00     0.000 A 
ENDBRANCH   6   7
ENDBRANCH   1   6
TORSDOF 4
ENDMDL
MODEL 3
REMARK VINA RESULT:      -6.8      1.019      1.988
REMARK SMILES O=C(O)CCc1ccccc1
REMARK SMILES IDX 4 1 2 2 1 3 3 4 5 6 6 7 7 8 11 9 8 10 10 11 9 12
REMARK H PARENT 3 5
REMARK Flexibility Score: inf
ROOT
ATOM      1  C   UNL     1       7.322  -1.312  -2.087  1.00  0.00     0.127 C 
ENDROOT
BRANCH   1   2
ATOM      2  C   UNL     1       8.751  -1.392  -2.469  1.00  0.00     0.303 C 
ATOM      3  O   UNL     1       9.172  -2.329  -3.165  1.00  0.00    -0.252 OA
BRANCH   2   4
ATOM      4  O   UNL     1       9.627  -0.411  -2.044  1.00  0.00    -0.481 OA
ATOM      5  H   UNL     1       9.309   0.498  -1.721  1.00  0.00     0.296 HD
ENDBRANCH   2   4
ENDBRANCH   1   2
BRANCH   1   6
ATOM      6  C   UNL     1       7.166  -1.421  -0.591  1.00  0.00     0.047 C 
BRANCH   6   7
ATOM      7  C   UNL     1       6.394  -0.303  -0.013  1.00  0.00    -0.047 A 
ATOM      8  C   UNL     1       5.880  -0.296   1.259  1.00  0.00     0.004 A 
ATOM      9  C   UNL     1       6.178   0.799  -0.805  1.00  0.00     0.004 A 
ATOM     10  C   UNL     1       5.168   0.795   1.718  1.00  0.00     0.000 A 
ATOM     11  C   UNL     1       5.478   1.885  -0.371  1.00  0.00     0.000 A 
ATOM     12  C   UNL     1       4.962   1.893   0.908  1.00  0.00     0.000 A 
ENDBRANCH   6   7
ENDBRANCH   1   6
TORSDOF 4
ENDMDL
MODEL 4
REMARK VINA RESULT:      -6.7      3.345      5.020
REMARK SMILES O=C(O)CCc1ccccc1
REMARK SMILES IDX 4 1 2 2 1 3 3 4 5 6 6 7 7 8 11 9 8 10 10 11 9 12
REMARK H PARENT 3 5
REMARK Flexibility Score: inf
ROOT
ATOM      1  C   UNL     1       5.028   1.719   0.686  1.00  0.00     0.127 C 
ENDROOT
BRANCH   1   2
ATOM      2  C   UNL     1       4.604   1.028   1.927  1.00  0.00     0.303 C 
ATOM      3  O   UNL     1       5.341   0.192   2.473  1.00  0.00    -0.252 OA
BRANCH   2   4
ATOM      4  O   UNL     1       3.372   1.318   2.483  1.00  0.00    -0.481 OA
ATOM      5  H   UNL     1       3.159   1.131   3.458  1.00  0.00     0.296 HD
ENDBRANCH   2   4
ENDBRANCH   1   2
BRANCH   1   6
ATOM      6  C   UNL     1       6.523   1.913   0.672  1.00  0.00     0.047 C 
BRANCH   6   7
ATOM      7  C   UNL     1       7.193   1.122  -0.378  1.00  0.00    -0.047 A 
ATOM      8  C   UNL     1       8.536   1.179  -0.649  1.00  0.00     0.004 A 
ATOM      9  C   UNL     1       6.415   0.276  -1.133  1.00  0.00     0.004 A 
ATOM     10  C   UNL     1       9.080   0.403  -1.654  1.00  0.00     0.000 A 
ATOM     11  C   UNL     1       6.933  -0.498  -2.129  1.00  0.00     0.000 A 
ATOM     12  C   UNL     1       8.283  -0.442  -2.401  1.00  0.00     0.000 A 
ENDBRANCH   6   7
ENDBRANCH   1   6
TORSDOF 4
ENDMDL
MODEL 5
REMARK VINA RESULT:      -6.7      3.818      4.929
REMARK SMILES O=C(O)CCc1ccccc1
REMARK SMILES IDX 4 1 2 2 1 3 3 4 5 6 6 7 7 8 11 9 8 10 10 11 9 12
REMARK H PARENT 3 5
REMARK Flexibility Score: inf
ROOT
ATOM      1  C   UNL     1       5.425   2.853   0.071  1.00  0.00     0.127 C 
ENDROOT
BRANCH   1   2
ATOM      2  C   UNL     1       6.220   3.810   0.876  1.00  0.00     0.303 C 
ATOM      3  O   UNL     1       6.215   3.757   2.115  1.00  0.00    -0.252 OA
BRANCH   2   4
ATOM      4  O   UNL     1       6.976   4.775   0.237  1.00  0.00    -0.481 OA
ATOM      5  H   UNL     1       6.554   5.548  -0.269  1.00  0.00     0.296 HD
ENDBRANCH   2   4
ENDBRANCH   1   2
BRANCH   1   6
ATOM      6  C   UNL     1       4.900   1.738   0.941  1.00  0.00     0.047 C 
BRANCH   6   7
ATOM      7  C   UNL     1       5.760   0.539   0.917  1.00  0.00    -0.047 A 
ATOM      8  C   UNL     1       6.554   0.180  -0.142  1.00  0.00     0.004 A 
ATOM      9  C   UNL     1       5.761  -0.267   2.030  1.00  0.00     0.004 A 
ATOM     10  C   UNL     1       7.328  -0.963  -0.080  1.00  0.00     0.000 A 
ATOM     11  C   UNL     1       6.518  -1.399   2.112  1.00  0.00     0.000 A 
ATOM     12  C   UNL     1       7.316  -1.760   1.047  1.00  0.00     0.000 A 
ENDBRANCH   6   7
ENDBRANCH   1   6
TORSDOF 4
ENDMDL
