@<TRIPOS>MOLECULE
/home/cewinharhar/GITHUB/reincatalyze/data/processed/docking_pred/2023-Apr-25-1630_maxeplen5_maxtrainstep200_exh32_gamma099_lrac3e-4_lrcr1e-3/650932a4c96e02f0afcc120cab6b741f416c7ae8_ligand_2.pdbqt
 12 12 0 0 0
SMALL
GASTEIGER

@<TRIPOS>ATOM
      1  C          5.4840    2.8950    0.0330 C.3     1  UNL1        0.1270
      2  C          6.2030    3.8830    0.8710 C.2     1  UNL1        0.3030
      3  O          6.0310    3.9190    2.0990 O.2     1  UNL1       -0.2520
      4  O          7.0760    4.7750    0.2780 O.3     1  UNL1       -0.4810
      5  H          6.7830    5.6970   -0.0310 H       1  UNL1        0.2960
      6  C          4.9180    1.7870    0.8860 C.3     1  UNL1        0.0470
      7  C          5.7610    0.5760    0.8850 C.2     1  UNL1       -0.0470
      8  C          6.5060    0.1550   -0.1870 C.2     1  UNL1        0.0040
      9  C          5.7980   -0.1760    2.0350 C.2     1  UNL1        0.0040
     10  C          7.2670   -0.9940   -0.1010 C.2     1  UNL1        0.0000
     11  C          6.5430   -1.3130    2.1400 C.2     1  UNL1        0.0000
     12  C          7.2920   -1.7360    1.0630 C.2     1  UNL1        0.0000
@<TRIPOS>BOND
     1     8    10    1
     2     8     7    2
     3    10    12    2
     4     5     4    1
     5     1     2    1
     6     1     6    1
     7     4     2    1
     8     2     3    2
     9     7     6    1
    10     7     9    1
    11    12    11    1
    12     9    11    2
