MODEL 1
REMARK VINA RESULT:      -7.4      0.000      0.000
REMARK SMILES O=C(O)CCc1ccccc1
REMARK SMILES IDX 4 1 2 2 1 3 3 4 5 6 6 7 7 8 11 9 8 10 10 11 9 12
REMARK H PARENT 3 5
REMARK Flexibility Score: inf
ROOT
ATOM      1  C   UNL     1       8.410  -0.660  -2.108  1.00  0.00     0.127 C 
ENDROOT
BRANCH   1   2
ATOM      2  C   UNL     1       8.467  -1.912  -2.900  1.00  0.00     0.303 C 
ATOM      3  O   UNL     1       9.548  -2.488  -3.101  1.00  0.00    -0.252 OA
BRANCH   2   4
ATOM      4  O   UNL     1       7.304  -2.445  -3.420  1.00  0.00    -0.481 OA
ATOM      5  H   UNL     1       7.119  -2.474  -4.419  1.00  0.00     0.296 HD
ENDBRANCH   2   4
ENDBRANCH   1   2
BRANCH   1   6
ATOM      6  C   UNL     1       7.016  -0.085  -2.127  1.00  0.00     0.047 C 
BRANCH   6   7
ATOM      7  C   UNL     1       6.455   0.102  -0.775  1.00  0.00    -0.047 A 
ATOM      8  C   UNL     1       5.812   1.239  -0.357  1.00  0.00     0.004 A 
ATOM      9  C   UNL     1       6.590  -0.932   0.119  1.00  0.00     0.004 A 
ATOM     10  C   UNL     1       5.319   1.329   0.930  1.00  0.00     0.000 A 
ATOM     11  C   UNL     1       6.110  -0.863   1.394  1.00  0.00     0.000 A 
ATOM     12  C   UNL     1       5.463   0.279   1.815  1.00  0.00     0.000 A 
ENDBRANCH   6   7
ENDBRANCH   1   6
TORSDOF 4
ENDMDL
MODEL 2
REMARK VINA RESULT:      -7.4      0.084      1.428
REMARK SMILES O=C(O)CCc1ccccc1
REMARK SMILES IDX 4 1 2 2 1 3 3 4 5 6 6 7 7 8 11 9 8 10 10 11 9 12
REMARK H PARENT 3 5
REMARK Flexibility Score: inf
ROOT
ATOM      1  C   UNL     1       8.434  -0.609  -2.175  1.00  0.00     0.127 C 
ENDROOT
BRANCH   1   2
ATOM      2  C   UNL     1       8.478  -1.895  -2.910  1.00  0.00     0.303 C 
ATOM      3  O   UNL     1       9.553  -2.488  -3.090  1.00  0.00    -0.252 OA
BRANCH   2   4
ATOM      4  O   UNL     1       7.307  -2.440  -3.401  1.00  0.00    -0.481 OA
ATOM      5  H   UNL     1       6.567  -1.869  -3.799  1.00  0.00     0.296 HD
ENDBRANCH   2   4
ENDBRANCH   1   2
BRANCH   1   6
ATOM      6  C   UNL     1       7.027  -0.069  -2.135  1.00  0.00     0.047 C 
BRANCH   6   7
ATOM      7  C   UNL     1       6.492   0.036  -0.763  1.00  0.00    -0.047 A 
ATOM      8  C   UNL     1       6.594  -0.951   0.183  1.00  0.00     0.004 A 
ATOM      9  C   UNL     1       5.850   1.201  -0.417  1.00  0.00     0.004 A 
ATOM     10  C   UNL     1       6.063  -0.768   1.444  1.00  0.00     0.000 A 
ATOM     11  C   UNL     1       5.318   1.402   0.822  1.00  0.00     0.000 A 
ATOM     12  C   UNL     1       5.421   0.409   1.774  1.00  0.00     0.000 A 
ENDBRANCH   6   7
ENDBRANCH   1   6
TORSDOF 4
ENDMDL
MODEL 3
REMARK VINA RESULT:      -6.8      3.372      5.080
REMARK SMILES O=C(O)CCc1ccccc1
REMARK SMILES IDX 4 1 2 2 1 3 3 4 5 6 6 7 7 8 11 9 8 10 10 11 9 12
REMARK H PARENT 3 5
REMARK Flexibility Score: inf
ROOT
ATOM      1  C   UNL     1       5.006   1.785   0.713  1.00  0.00     0.127 C 
ENDROOT
BRANCH   1   2
ATOM      2  C   UNL     1       4.505   1.095   1.926  1.00  0.00     0.303 C 
ATOM      3  O   UNL     1       5.177   0.207   2.474  1.00  0.00    -0.252 OA
BRANCH   2   4
ATOM      4  O   UNL     1       3.276   1.444   2.451  1.00  0.00    -0.481 OA
ATOM      5  H   UNL     1       2.401   1.127   2.043  1.00  0.00     0.296 HD
ENDBRANCH   2   4
ENDBRANCH   1   2
BRANCH   1   6
ATOM      6  C   UNL     1       6.513   1.830   0.713  1.00  0.00     0.047 C 
BRANCH   6   7
ATOM      7  C   UNL     1       7.110   1.022  -0.368  1.00  0.00    -0.047 A 
ATOM      8  C   UNL     1       6.427   0.085  -1.099  1.00  0.00     0.004 A 
ATOM      9  C   UNL     1       8.439   1.227  -0.657  1.00  0.00     0.004 A 
ATOM     10  C   UNL     1       7.067  -0.628  -2.095  1.00  0.00     0.000 A 
ATOM     11  C   UNL     1       9.088   0.534  -1.636  1.00  0.00     0.000 A 
ATOM     12  C   UNL     1       8.401  -0.408  -2.371  1.00  0.00     0.000 A 
ENDBRANCH   6   7
ENDBRANCH   1   6
TORSDOF 4
ENDMDL
MODEL 4
REMARK VINA RESULT:      -6.7      1.951      2.266
REMARK SMILES O=C(O)CCc1ccccc1
REMARK SMILES IDX 4 1 2 2 1 3 3 4 5 6 6 7 7 8 11 9 8 10 10 11 9 12
REMARK H PARENT 3 5
REMARK Flexibility Score: inf
ROOT
ATOM      1  C   UNL     1       8.220   0.277  -2.078  1.00  0.00     0.127 C 
ENDROOT
BRANCH   1   2
ATOM      2  C   UNL     1       9.386   0.374  -1.168  1.00  0.00     0.303 C 
ATOM      3  O   UNL     1       9.491  -0.380  -0.188  1.00  0.00    -0.252 OA
BRANCH   2   4
ATOM      4  O   UNL     1      10.367   1.314  -1.415  1.00  0.00    -0.481 OA
ATOM      5  H   UNL     1      10.153   2.295  -1.569  1.00  0.00     0.296 HD
ENDBRANCH   2   4
ENDBRANCH   1   2
BRANCH   1   6
ATOM      6  C   UNL     1       7.133  -0.567  -1.459  1.00  0.00     0.047 C 
BRANCH   6   7
ATOM      7  C   UNL     1       6.340   0.167  -0.455  1.00  0.00    -0.047 A 
ATOM      8  C   UNL     1       5.776   1.399  -0.667  1.00  0.00     0.004 A 
ATOM      9  C   UNL     1       6.159  -0.426   0.772  1.00  0.00     0.004 A 
ATOM     10  C   UNL     1       5.048   2.016   0.332  1.00  0.00     0.000 A 
ATOM     11  C   UNL     1       5.444   0.167   1.772  1.00  0.00     0.000 A 
ATOM     12  C   UNL     1       4.876   1.405   1.558  1.00  0.00     0.000 A 
ENDBRANCH   6   7
ENDBRANCH   1   6
TORSDOF 4
ENDMDL
MODEL 5
REMARK VINA RESULT:      -6.6      3.814      4.965
REMARK SMILES O=C(O)CCc1ccccc1
REMARK SMILES IDX 4 1 2 2 1 3 3 4 5 6 6 7 7 8 11 9 8 10 10 11 9 12
REMARK H PARENT 3 5
REMARK Flexibility Score: inf
ROOT
ATOM      1  C   UNL     1       5.484   2.895   0.033  1.00  0.00     0.127 C 
ENDROOT
BRANCH   1   2
ATOM      2  C   UNL     1       6.203   3.883   0.871  1.00  0.00     0.303 C 
ATOM      3  O   UNL     1       6.031   3.919   2.099  1.00  0.00    -0.252 OA
BRANCH   2   4
ATOM      4  O   UNL     1       7.076   4.775   0.278  1.00  0.00    -0.481 OA
ATOM      5  H   UNL     1       6.783   5.697  -0.031  1.00  0.00     0.296 HD
ENDBRANCH   2   4
ENDBRANCH   1   2
BRANCH   1   6
ATOM      6  C   UNL     1       4.918   1.787   0.886  1.00  0.00     0.047 C 
BRANCH   6   7
ATOM      7  C   UNL     1       5.761   0.576   0.885  1.00  0.00    -0.047 A 
ATOM      8  C   UNL     1       6.506   0.155  -0.187  1.00  0.00     0.004 A 
ATOM      9  C   UNL     1       5.798  -0.176   2.035  1.00  0.00     0.004 A 
ATOM     10  C   UNL     1       7.267  -0.994  -0.101  1.00  0.00     0.000 A 
ATOM     11  C   UNL     1       6.543  -1.313   2.140  1.00  0.00     0.000 A 
ATOM     12  C   UNL     1       7.292  -1.736   1.063  1.00  0.00     0.000 A 
ENDBRANCH   6   7
ENDBRANCH   1   6
TORSDOF 4
ENDMDL
