@<TRIPOS>MOLECULE
/home/cewinharhar/GITHUB/reincatalyze/data/processed/docking_pred/2023-Apr-25-1630_maxeplen5_maxtrainstep200_exh32_gamma099_lrac3e-4_lrcr1e-3/650932a4c96e02f0afcc120cab6b741f416c7ae8_ligand_2.pdbqt
 12 12 0 0 0
SMALL
GASTEIGER

@<TRIPOS>ATOM
      1  C          5.0060    1.7850    0.7130 C.3     1  UNL1        0.1270
      2  C          4.5050    1.0950    1.9260 C.2     1  UNL1        0.3030
      3  O          5.1770    0.2070    2.4740 O.2     1  UNL1       -0.2520
      4  O          3.2760    1.4440    2.4510 O.3     1  UNL1       -0.4810
      5  H          2.4010    1.1270    2.0430 H       1  UNL1        0.2960
      6  C          6.5130    1.8300    0.7130 C.3     1  UNL1        0.0470
      7  C          7.1100    1.0220   -0.3680 C.2     1  UNL1       -0.0470
      8  C          6.4270    0.0850   -1.0990 C.2     1  UNL1        0.0040
      9  C          8.4390    1.2270   -0.6570 C.2     1  UNL1        0.0040
     10  C          7.0670   -0.6280   -2.0950 C.2     1  UNL1        0.0000
     11  C          9.0880    0.5340   -1.6360 C.2     1  UNL1        0.0000
     12  C          8.4010   -0.4080   -2.3710 C.2     1  UNL1        0.0000
@<TRIPOS>BOND
     1    12    10    2
     2    12    11    1
     3    10     8    1
     4    11     9    2
     5     8     7    2
     6     9     7    1
     7     7     6    1
     8     1     6    1
     9     1     2    1
    10     2     4    1
    11     2     3    2
    12     5     4    1
