@<TRIPOS>MOLECULE
/home/cewinharhar/GITHUB/reincatalyze/data/processed/docking_pred/2023-Apr-25-1630_maxeplen5_maxtrainstep200_exh32_gamma099_lrac3e-4_lrcr1e-3/650932a4c96e02f0afcc120cab6b741f416c7ae8_ligand_2.pdbqt
 12 12 0 0 0
SMALL
GASTEIGER

@<TRIPOS>ATOM
      1  C          8.4340   -0.6090   -2.1750 C.3     1  UNL1        0.1270
      2  C          8.4780   -1.8950   -2.9100 C.2     1  UNL1        0.3030
      3  O          9.5530   -2.4880   -3.0900 O.2     1  UNL1       -0.2520
      4  O          7.3070   -2.4400   -3.4010 O.3     1  UNL1       -0.4810
      5  H          6.5670   -1.8690   -3.7990 H       1  UNL1        0.2960
      6  C          7.0270   -0.0690   -2.1350 C.3     1  UNL1        0.0470
      7  C          6.4920    0.0360   -0.7630 C.2     1  UNL1       -0.0470
      8  C          6.5940   -0.9510    0.1830 C.2     1  UNL1        0.0040
      9  C          5.8500    1.2010   -0.4170 C.2     1  UNL1        0.0040
     10  C          6.0630   -0.7680    1.4440 C.2     1  UNL1        0.0000
     11  C          5.3180    1.4020    0.8220 C.2     1  UNL1        0.0000
     12  C          5.4210    0.4090    1.7740 C.2     1  UNL1        0.0000
@<TRIPOS>BOND
     1     5     4    1
     2     4     2    1
     3     3     2    2
     4     2     1    1
     5     1     6    1
     6     6     7    1
     7     7     9    2
     8     7     8    1
     9     9    11    1
    10     8    10    2
    11    11    12    2
    12    10    12    1
