@<TRIPOS>MOLECULE
/home/cewinharhar/GITHUB/reincatalyze/data/processed/docking_pred/2023-Apr-25-1630_maxeplen5_maxtrainstep200_exh32_gamma099_lrac3e-4_lrcr1e-3/650932a4c96e02f0afcc120cab6b741f416c7ae8_ligand_2.pdbqt
 12 12 0 0 0
SMALL
GASTEIGER

@<TRIPOS>ATOM
      1  C          8.2200    0.2770   -2.0780 C.3     1  UNL1        0.1270
      2  C          9.3860    0.3740   -1.1680 C.2     1  UNL1        0.3030
      3  O          9.4910   -0.3800   -0.1880 O.2     1  UNL1       -0.2520
      4  O         10.3670    1.3140   -1.4150 O.3     1  UNL1       -0.4810
      5  H         10.1530    2.2950   -1.5690 H       1  UNL1        0.2960
      6  C          7.1330   -0.5670   -1.4590 C.3     1  UNL1        0.0470
      7  C          6.3400    0.1670   -0.4550 C.2     1  UNL1       -0.0470
      8  C          5.7760    1.3990   -0.6670 C.2     1  UNL1        0.0040
      9  C          6.1590   -0.4260    0.7720 C.2     1  UNL1        0.0040
     10  C          5.0480    2.0160    0.3320 C.2     1  UNL1        0.0000
     11  C          5.4440    0.1670    1.7720 C.2     1  UNL1        0.0000
     12  C          4.8760    1.4050    1.5580 C.2     1  UNL1        0.0000
@<TRIPOS>BOND
     1     1     6    1
     2     1     2    1
     3     5     4    1
     4     6     7    1
     5     4     2    1
     6     2     3    2
     7     8     7    2
     8     8    10    1
     9     7     9    1
    10    10    12    2
    11     9    11    2
    12    12    11    1
