@<TRIPOS>MOLECULE
/home/cewinharhar/GITHUB/reincatalyze/data/processed/docking_pred/2023-Apr-25-1630_maxeplen5_maxtrainstep200_exh32_gamma099_lrac3e-4_lrcr1e-3/650932a4c96e02f0afcc120cab6b741f416c7ae8_ligand_2.pdbqt
 12 12 0 0 0
SMALL
GASTEIGER

@<TRIPOS>ATOM
      1  C          8.4100   -0.6600   -2.1080 C.3     1  UNL1        0.1270
      2  C          8.4670   -1.9120   -2.9000 C.2     1  UNL1        0.3030
      3  O          9.5480   -2.4880   -3.1010 O.2     1  UNL1       -0.2520
      4  O          7.3040   -2.4450   -3.4200 O.3     1  UNL1       -0.4810
      5  H          7.1190   -2.4740   -4.4190 H       1  UNL1        0.2960
      6  C          7.0160   -0.0850   -2.1270 C.3     1  UNL1        0.0470
      7  C          6.4550    0.1020   -0.7750 C.2     1  UNL1       -0.0470
      8  C          5.8120    1.2390   -0.3570 C.2     1  UNL1        0.0040
      9  C          6.5900   -0.9320    0.1190 C.2     1  UNL1        0.0040
     10  C          5.3190    1.3290    0.9300 C.2     1  UNL1        0.0000
     11  C          6.1100   -0.8630    1.3940 C.2     1  UNL1        0.0000
     12  C          5.4630    0.2790    1.8150 C.2     1  UNL1        0.0000
@<TRIPOS>BOND
     1     5     4    1
     2     4     2    1
     3     3     2    2
     4     2     1    1
     5     6     1    1
     6     6     7    1
     7     7     8    2
     8     7     9    1
     9     8    10    1
    10     9    11    2
    11    10    12    2
    12    11    12    1
