@<TRIPOS>MOLECULE
/home/cewinharhar/GITHUB/reincatalyze/data/processed/docking_pred/2023-Apr-25-1630_maxeplen5_maxtrainstep200_exh32_gamma099_lrac3e-4_lrcr1e-3/65610c622cc3bd86a4d466f03d6f61670904542e_ligand_2.pdbqt
 12 12 0 0 0
SMALL
GASTEIGER

@<TRIPOS>ATOM
      1  C          8.3950   -0.7920   -1.9260 C.3     1  UNL1        0.1270
      2  C          8.3610   -1.9530   -2.8460 C.2     1  UNL1        0.3030
      3  O          7.2810   -2.4100   -3.2530 O.2     1  UNL1       -0.2520
      4  O          9.5460   -2.5340   -3.2550 O.3     1  UNL1       -0.4810
      5  H         10.4530   -2.1480   -3.0100 H       1  UNL1        0.2960
      6  C          7.1190    0.0060   -2.0330 C.3     1  UNL1        0.0470
      7  C          6.4700    0.2250   -0.7260 C.2     1  UNL1       -0.0470
      8  C          5.7860    1.3630   -0.3850 C.2     1  UNL1        0.0040
      9  C          6.5610   -0.7810    0.2070 C.2     1  UNL1        0.0040
     10  C          5.2090    1.4840    0.8650 C.2     1  UNL1        0.0000
     11  C          5.9990   -0.6810    1.4460 C.2     1  UNL1        0.0000
     12  C          5.3110    0.4630    1.7890 C.2     1  UNL1        0.0000
@<TRIPOS>BOND
     1     4     5    1
     2     4     2    1
     3     3     2    2
     4     2     1    1
     5     6     1    1
     6     6     7    1
     7     7     8    2
     8     7     9    1
     9     8    10    1
    10     9    11    2
    11    10    12    2
    12    11    12    1
