MODEL 1
REMARK VINA RESULT:      -7.3      0.000      0.000
REMARK SMILES O=C(O)CCc1ccccc1
REMARK SMILES IDX 4 1 2 2 1 3 3 4 5 6 6 7 7 8 11 9 8 10 10 11 9 12
REMARK H PARENT 3 5
REMARK Flexibility Score: inf
ROOT
ATOM      1  C   UNL     1       8.425  -0.548  -2.260  1.00  0.00     0.127 C 
ENDROOT
BRANCH   1   2
ATOM      2  C   UNL     1       8.489  -1.878  -2.911  1.00  0.00     0.303 C 
ATOM      3  O   UNL     1       9.569  -2.480  -3.020  1.00  0.00    -0.252 OA
BRANCH   2   4
ATOM      4  O   UNL     1       7.334  -2.454  -3.403  1.00  0.00    -0.481 OA
ATOM      5  H   UNL     1       6.428  -2.315  -2.963  1.00  0.00     0.296 HD
ENDBRANCH   2   4
ENDBRANCH   1   2
BRANCH   1   6
ATOM      6  C   UNL     1       7.001  -0.054  -2.203  1.00  0.00     0.047 C 
BRANCH   6   7
ATOM      7  C   UNL     1       6.488   0.056  -0.824  1.00  0.00    -0.047 A 
ATOM      8  C   UNL     1       6.618  -0.922   0.128  1.00  0.00     0.004 A 
ATOM      9  C   UNL     1       5.837   1.216  -0.478  1.00  0.00     0.004 A 
ATOM     10  C   UNL     1       6.105  -0.734   1.397  1.00  0.00     0.000 A 
ATOM     11  C   UNL     1       5.323   1.421   0.769  1.00  0.00     0.000 A 
ATOM     12  C   UNL     1       5.454   0.438   1.727  1.00  0.00     0.000 A 
ENDBRANCH   6   7
ENDBRANCH   1   6
TORSDOF 4
ENDMDL
MODEL 2
REMARK VINA RESULT:      -7.3      0.213      1.732
REMARK SMILES O=C(O)CCc1ccccc1
REMARK SMILES IDX 4 1 2 2 1 3 3 4 5 6 6 7 7 8 11 9 8 10 10 11 9 12
REMARK H PARENT 3 5
REMARK Flexibility Score: inf
ROOT
ATOM      1  C   UNL     1       8.395  -0.792  -1.926  1.00  0.00     0.127 C 
ENDROOT
BRANCH   1   2
ATOM      2  C   UNL     1       8.361  -1.953  -2.846  1.00  0.00     0.303 C 
ATOM      3  O   UNL     1       7.281  -2.410  -3.253  1.00  0.00    -0.252 OA
BRANCH   2   4
ATOM      4  O   UNL     1       9.546  -2.534  -3.255  1.00  0.00    -0.481 OA
ATOM      5  H   UNL     1      10.453  -2.148  -3.010  1.00  0.00     0.296 HD
ENDBRANCH   2   4
ENDBRANCH   1   2
BRANCH   1   6
ATOM      6  C   UNL     1       7.119   0.006  -2.033  1.00  0.00     0.047 C 
BRANCH   6   7
ATOM      7  C   UNL     1       6.470   0.225  -0.726  1.00  0.00    -0.047 A 
ATOM      8  C   UNL     1       5.786   1.363  -0.385  1.00  0.00     0.004 A 
ATOM      9  C   UNL     1       6.561  -0.781   0.207  1.00  0.00     0.004 A 
ATOM     10  C   UNL     1       5.209   1.484   0.865  1.00  0.00     0.000 A 
ATOM     11  C   UNL     1       5.999  -0.681   1.446  1.00  0.00     0.000 A 
ATOM     12  C   UNL     1       5.311   0.463   1.789  1.00  0.00     0.000 A 
ENDBRANCH   6   7
ENDBRANCH   1   6
TORSDOF 4
ENDMDL
MODEL 3
REMARK VINA RESULT:      -6.8      3.372      5.047
REMARK SMILES O=C(O)CCc1ccccc1
REMARK SMILES IDX 4 1 2 2 1 3 3 4 5 6 6 7 7 8 11 9 8 10 10 11 9 12
REMARK H PARENT 3 5
REMARK Flexibility Score: inf
ROOT
ATOM      1  C   UNL     1       5.019   1.768   0.739  1.00  0.00     0.127 C 
ENDROOT
BRANCH   1   2
ATOM      2  C   UNL     1       4.480   1.085   1.939  1.00  0.00     0.303 C 
ATOM      3  O   UNL     1       5.116   0.173   2.490  1.00  0.00    -0.252 OA
BRANCH   2   4
ATOM      4  O   UNL     1       3.255   1.469   2.449  1.00  0.00    -0.481 OA
ATOM      5  H   UNL     1       2.410   0.925   2.300  1.00  0.00     0.296 HD
ENDBRANCH   2   4
ENDBRANCH   1   2
BRANCH   1   6
ATOM      6  C   UNL     1       6.528   1.765   0.760  1.00  0.00     0.047 C 
BRANCH   6   7
ATOM      7  C   UNL     1       7.114   0.971  -0.336  1.00  0.00    -0.047 A 
ATOM      8  C   UNL     1       6.441  -0.000  -1.032  1.00  0.00     0.004 A 
ATOM      9  C   UNL     1       8.421   1.225  -0.678  1.00  0.00     0.004 A 
ATOM     10  C   UNL     1       7.070  -0.697  -2.046  1.00  0.00     0.000 A 
ATOM     11  C   UNL     1       9.060   0.549  -1.675  1.00  0.00     0.000 A 
ATOM     12  C   UNL     1       8.383  -0.427  -2.375  1.00  0.00     0.000 A 
ENDBRANCH   6   7
ENDBRANCH   1   6
TORSDOF 4
ENDMDL
MODEL 4
REMARK VINA RESULT:      -6.6      3.715      4.950
REMARK SMILES O=C(O)CCc1ccccc1
REMARK SMILES IDX 4 1 2 2 1 3 3 4 5 6 6 7 7 8 11 9 8 10 10 11 9 12
REMARK H PARENT 3 5
REMARK Flexibility Score: inf
ROOT
ATOM      1  C   UNL     1       5.371   2.977   0.075  1.00  0.00     0.127 C 
ENDROOT
BRANCH   1   2
ATOM      2  C   UNL     1       6.249   3.886   0.849  1.00  0.00     0.303 C 
ATOM      3  O   UNL     1       6.903   4.774   0.281  1.00  0.00    -0.252 OA
BRANCH   2   4
ATOM      4  O   UNL     1       6.341   3.743   2.220  1.00  0.00    -0.481 OA
ATOM      5  H   UNL     1       6.172   4.514   2.860  1.00  0.00     0.296 HD
ENDBRANCH   2   4
ENDBRANCH   1   2
BRANCH   1   6
ATOM      6  C   UNL     1       5.156   1.685   0.822  1.00  0.00     0.047 C 
BRANCH   6   7
ATOM      7  C   UNL     1       5.958   0.571   0.282  1.00  0.00    -0.047 A 
ATOM      8  C   UNL     1       6.389  -0.501   1.021  1.00  0.00     0.004 A 
ATOM      9  C   UNL     1       6.293   0.615  -1.051  1.00  0.00     0.004 A 
ATOM     10  C   UNL     1       7.138  -1.501   0.432  1.00  0.00     0.000 A 
ATOM     11  C   UNL     1       7.032  -0.361  -1.651  1.00  0.00     0.000 A 
ATOM     12  C   UNL     1       7.465  -1.439  -0.908  1.00  0.00     0.000 A 
ENDBRANCH   6   7
ENDBRANCH   1   6
TORSDOF 4
ENDMDL
MODEL 5
REMARK VINA RESULT:      -6.6      2.057      2.345
REMARK SMILES O=C(O)CCc1ccccc1
REMARK SMILES IDX 4 1 2 2 1 3 3 4 5 6 6 7 7 8 11 9 8 10 10 11 9 12
REMARK H PARENT 3 5
REMARK Flexibility Score: inf
ROOT
ATOM      1  C   UNL     1       8.517   0.668  -1.650  1.00  0.00     0.127 C 
ENDROOT
BRANCH   1   2
ATOM      2  C   UNL     1       9.664   0.264  -0.802  1.00  0.00     0.303 C 
ATOM      3  O   UNL     1       9.505  -0.511   0.153  1.00  0.00    -0.252 OA
BRANCH   2   4
ATOM      4  O   UNL     1      10.924   0.759  -1.078  1.00  0.00    -0.481 OA
ATOM      5  H   UNL     1      11.267   0.871  -2.028  1.00  0.00     0.296 HD
ENDBRANCH   2   4
ENDBRANCH   1   2
BRANCH   1   6
ATOM      6  C   UNL     1       7.333  -0.233  -1.403  1.00  0.00     0.047 C 
BRANCH   6   7
ATOM      7  C   UNL     1       6.443   0.270  -0.339  1.00  0.00    -0.047 A 
ATOM      8  C   UNL     1       6.196  -0.392   0.837  1.00  0.00     0.004 A 
ATOM      9  C   UNL     1       5.824   1.480  -0.544  1.00  0.00     0.004 A 
ATOM     10  C   UNL     1       5.347   0.153   1.780  1.00  0.00     0.000 A 
ATOM     11  C   UNL     1       4.982   2.034   0.374  1.00  0.00     0.000 A 
ATOM     12  C   UNL     1       4.734   1.370   1.556  1.00  0.00     0.000 A 
ENDBRANCH   6   7
ENDBRANCH   1   6
TORSDOF 4
ENDMDL
