@<TRIPOS>MOLECULE
/home/cewinharhar/GITHUB/reincatalyze/data/processed/docking_pred/2023-Apr-25-1630_maxeplen5_maxtrainstep200_exh32_gamma099_lrac3e-4_lrcr1e-3/65610c622cc3bd86a4d466f03d6f61670904542e_ligand_2.pdbqt
 12 12 0 0 0
SMALL
GASTEIGER

@<TRIPOS>ATOM
      1  C          5.0190    1.7680    0.7390 C.3     1  UNL1        0.1270
      2  C          4.4800    1.0850    1.9390 C.2     1  UNL1        0.3030
      3  O          5.1160    0.1730    2.4900 O.2     1  UNL1       -0.2520
      4  O          3.2550    1.4690    2.4490 O.3     1  UNL1       -0.4810
      5  H          2.4100    0.9250    2.3000 H       1  UNL1        0.2960
      6  C          6.5280    1.7650    0.7600 C.3     1  UNL1        0.0470
      7  C          7.1140    0.9710   -0.3360 C.2     1  UNL1       -0.0470
      8  C          6.4410   -0.0000   -1.0320 C.2     1  UNL1        0.0040
      9  C          8.4210    1.2250   -0.6780 C.2     1  UNL1        0.0040
     10  C          7.0700   -0.6970   -2.0460 C.2     1  UNL1        0.0000
     11  C          9.0600    0.5490   -1.6750 C.2     1  UNL1        0.0000
     12  C          8.3830   -0.4270   -2.3750 C.2     1  UNL1        0.0000
@<TRIPOS>BOND
     1    12    10    2
     2    12    11    1
     3    10     8    1
     4    11     9    2
     5     8     7    2
     6     9     7    1
     7     7     6    1
     8     1     6    1
     9     1     2    1
    10     2     4    1
    11     2     3    2
    12     5     4    1
