@<TRIPOS>MOLECULE
/home/cewinharhar/GITHUB/reincatalyze/data/processed/docking_pred/2023-Apr-25-1630_maxeplen5_maxtrainstep200_exh32_gamma099_lrac3e-4_lrcr1e-3/65610c622cc3bd86a4d466f03d6f61670904542e_ligand_2.pdbqt
 12 12 0 0 0
SMALL
GASTEIGER

@<TRIPOS>ATOM
      1  C          8.5170    0.6680   -1.6500 C.3     1  UNL1        0.1270
      2  C          9.6640    0.2640   -0.8020 C.2     1  UNL1        0.3030
      3  O          9.5050   -0.5110    0.1530 O.2     1  UNL1       -0.2520
      4  O         10.9240    0.7590   -1.0780 O.3     1  UNL1       -0.4810
      5  H         11.2670    0.8710   -2.0280 H       1  UNL1        0.2960
      6  C          7.3330   -0.2330   -1.4030 C.3     1  UNL1        0.0470
      7  C          6.4430    0.2700   -0.3390 C.2     1  UNL1       -0.0470
      8  C          6.1960   -0.3920    0.8370 C.2     1  UNL1        0.0040
      9  C          5.8240    1.4800   -0.5440 C.2     1  UNL1        0.0040
     10  C          5.3470    0.1530    1.7800 C.2     1  UNL1        0.0000
     11  C          4.9820    2.0340    0.3740 C.2     1  UNL1        0.0000
     12  C          4.7340    1.3700    1.5560 C.2     1  UNL1        0.0000
@<TRIPOS>BOND
     1     5     4    1
     2     1     6    1
     3     1     2    1
     4     6     7    1
     5     4     2    1
     6     2     3    2
     7     9     7    2
     8     9    11    1
     9     7     8    1
    10    11    12    2
    11     8    10    2
    12    12    10    1
