@<TRIPOS>MOLECULE
/home/cewinharhar/GITHUB/reincatalyze/data/processed/docking_pred/2023-Apr-25-1630_maxeplen5_maxtrainstep200_exh32_gamma099_lrac3e-4_lrcr1e-3/65610c622cc3bd86a4d466f03d6f61670904542e_ligand_2.pdbqt
 12 12 0 0 0
SMALL
GASTEIGER

@<TRIPOS>ATOM
      1  C          5.3710    2.9770    0.0750 C.3     1  UNL1        0.1270
      2  C          6.2490    3.8860    0.8490 C.2     1  UNL1        0.3030
      3  O          6.9030    4.7740    0.2810 O.2     1  UNL1       -0.2520
      4  O          6.3410    3.7430    2.2200 O.3     1  UNL1       -0.4810
      5  H          6.1720    4.5140    2.8600 H       1  UNL1        0.2960
      6  C          5.1560    1.6850    0.8220 C.3     1  UNL1        0.0470
      7  C          5.9580    0.5710    0.2820 C.2     1  UNL1       -0.0470
      8  C          6.3890   -0.5010    1.0210 C.2     1  UNL1        0.0040
      9  C          6.2930    0.6150   -1.0510 C.2     1  UNL1        0.0040
     10  C          7.1380   -1.5010    0.4320 C.2     1  UNL1        0.0000
     11  C          7.0320   -0.3610   -1.6510 C.2     1  UNL1        0.0000
     12  C          7.4650   -1.4390   -0.9080 C.2     1  UNL1        0.0000
@<TRIPOS>BOND
     1    11     9    1
     2    11    12    2
     3     9     7    2
     4    12    10    1
     5     1     6    1
     6     1     2    1
     7     3     2    2
     8     7     6    1
     9     7     8    1
    10    10     8    2
    11     2     4    1
    12     4     5    1
