@<TRIPOS>MOLECULE
/home/cewinharhar/GITHUB/reincatalyze/data/processed/docking_pred/2023-Apr-25-1630_maxeplen5_maxtrainstep200_exh32_gamma099_lrac3e-4_lrcr1e-3/65610c622cc3bd86a4d466f03d6f61670904542e_ligand_2.pdbqt
 12 12 0 0 0
SMALL
GASTEIGER

@<TRIPOS>ATOM
      1  C          8.4250   -0.5480   -2.2600 C.3     1  UNL1        0.1270
      2  C          8.4890   -1.8780   -2.9110 C.2     1  UNL1        0.3030
      3  O          9.5690   -2.4800   -3.0200 O.2     1  UNL1       -0.2520
      4  O          7.3340   -2.4540   -3.4030 O.3     1  UNL1       -0.4810
      5  H          6.4280   -2.3150   -2.9630 H       1  UNL1        0.2960
      6  C          7.0010   -0.0540   -2.2030 C.3     1  UNL1        0.0470
      7  C          6.4880    0.0560   -0.8240 C.2     1  UNL1       -0.0470
      8  C          6.6180   -0.9220    0.1280 C.2     1  UNL1        0.0040
      9  C          5.8370    1.2160   -0.4780 C.2     1  UNL1        0.0040
     10  C          6.1050   -0.7340    1.3970 C.2     1  UNL1        0.0000
     11  C          5.3230    1.4210    0.7690 C.2     1  UNL1        0.0000
     12  C          5.4540    0.4380    1.7270 C.2     1  UNL1        0.0000
@<TRIPOS>BOND
     1     4     5    1
     2     4     2    1
     3     3     2    2
     4     2     1    1
     5     1     6    1
     6     6     7    1
     7     7     9    2
     8     7     8    1
     9     9    11    1
    10     8    10    2
    11    11    12    2
    12    10    12    1
