@<TRIPOS>MOLECULE
/home/cewinharhar/GITHUB/reincatalyze/data/processed/docking_pred/2023-Apr-25-1630_maxeplen5_maxtrainstep200_exh32_gamma099_lrac3e-4_lrcr1e-3/661305b30cebe31e235170a50c1781f21e405ac9_ligand_2.pdbqt
 12 12 0 0 0
SMALL
GASTEIGER

@<TRIPOS>ATOM
      1  C          8.1850   -1.6330    1.0930 C.3     1  UNL1        0.1270
      2  C          8.5220   -2.8520    0.3220 C.2     1  UNL1        0.3030
      3  O          9.1830   -3.7680    0.8370 O.2     1  UNL1       -0.2520
      4  O          8.0970   -2.9710   -0.9870 O.3     1  UNL1       -0.4810
      5  H          8.7270   -3.2250   -1.7430 H       1  UNL1        0.2960
      6  C          6.6930   -1.5250    1.2890 C.3     1  UNL1        0.0470
      7  C          6.1450   -0.2400    0.8140 C.2     1  UNL1       -0.0470
      8  C          5.4050    0.6170    1.5880 C.2     1  UNL1        0.0040
      9  C          6.3950    0.1170   -0.4900 C.2     1  UNL1        0.0040
     10  C          4.9290    1.8010    1.0600 C.2     1  UNL1        0.0000
     11  C          5.9340    1.2810   -1.0300 C.2     1  UNL1        0.0000
     12  C          5.1900    2.1420   -0.2520 C.2     1  UNL1        0.0000
@<TRIPOS>BOND
     1     5     4    1
     2    11     9    1
     3    11    12    2
     4     4     2    1
     5     9     7    2
     6    12    10    1
     7     2     3    2
     8     2     1    1
     9     7     6    1
    10     7     8    1
    11    10     8    2
    12     1     6    1
