@<TRIPOS>MOLECULE
/home/cewinharhar/GITHUB/reincatalyze/data/processed/docking_pred/2023-Apr-25-1630_maxeplen5_maxtrainstep200_exh32_gamma099_lrac3e-4_lrcr1e-3/661305b30cebe31e235170a50c1781f21e405ac9_ligand_2.pdbqt
 12 12 0 0 0
SMALL
GASTEIGER

@<TRIPOS>ATOM
      1  C          8.3950   -0.7010   -2.0430 C.3     1  UNL1        0.1270
      2  C          8.3630   -1.9260   -2.8770 C.2     1  UNL1        0.3030
      3  O          7.2840   -2.4110   -3.2520 O.2     1  UNL1       -0.2520
      4  O          9.5480   -2.5350   -3.2410 O.3     1  UNL1       -0.4810
      5  H         10.4380   -2.0450   -3.2270 H       1  UNL1        0.2960
      6  C          7.0660    0.0090   -2.0930 C.3     1  UNL1        0.0470
      7  C          6.4640    0.1920   -0.7580 C.2     1  UNL1       -0.0470
      8  C          5.7880    1.3170   -0.3630 C.2     1  UNL1        0.0040
      9  C          6.5940   -0.8370    0.1450 C.2     1  UNL1        0.0040
     10  C          5.2560    1.4030    0.9090 C.2     1  UNL1        0.0000
     11  C          6.0770   -0.7720    1.4050 C.2     1  UNL1        0.0000
     12  C          5.3960    0.3600    1.8020 C.2     1  UNL1        0.0000
@<TRIPOS>BOND
     1     3     2    2
     2     4     5    1
     3     4     2    1
     4     2     1    1
     5     6     1    1
     6     6     7    1
     7     7     8    2
     8     7     9    1
     9     8    10    1
    10     9    11    2
    11    10    12    2
    12    11    12    1
