@<TRIPOS>MOLECULE
/home/cewinharhar/GITHUB/reincatalyze/data/processed/docking_pred/2023-Apr-25-1630_maxeplen5_maxtrainstep200_exh32_gamma099_lrac3e-4_lrcr1e-3/661305b30cebe31e235170a50c1781f21e405ac9_ligand_2.pdbqt
 12 12 0 0 0
SMALL
GASTEIGER

@<TRIPOS>ATOM
      1  C          8.2090    0.2750   -2.0780 C.3     1  UNL1        0.1270
      2  C          9.3750    0.3640   -1.1670 C.2     1  UNL1        0.3030
      3  O          9.4800   -0.3990   -0.1940 O.2     1  UNL1       -0.2520
      4  O         10.3560    1.3080   -1.4040 O.3     1  UNL1       -0.4810
      5  H         11.0620    1.5420   -0.7120 H       1  UNL1        0.2960
      6  C          7.1180   -0.5660   -1.4630 C.3     1  UNL1        0.0470
      7  C          6.3350    0.1660   -0.4490 C.2     1  UNL1       -0.0470
      8  C          5.7680    1.3980   -0.6520 C.2     1  UNL1        0.0040
      9  C          6.1660   -0.4310    0.7780 C.2     1  UNL1        0.0040
     10  C          5.0510    2.0110    0.3570 C.2     1  UNL1        0.0000
     11  C          5.4620    0.1580    1.7860 C.2     1  UNL1        0.0000
     12  C          4.8920    1.3960    1.5830 C.2     1  UNL1        0.0000
@<TRIPOS>BOND
     1     1     6    1
     2     1     2    1
     3     6     7    1
     4     4     2    1
     5     4     5    1
     6     2     3    2
     7     8     7    2
     8     8    10    1
     9     7     9    1
    10    10    12    2
    11     9    11    2
    12    12    11    1
