@<TRIPOS>MOLECULE
/home/cewinharhar/GITHUB/reincatalyze/data/processed/docking_pred/2023-Apr-25-1630_maxeplen5_maxtrainstep200_exh32_gamma099_lrac3e-4_lrcr1e-3/661305b30cebe31e235170a50c1781f21e405ac9_ligand_2.pdbqt
 12 12 0 0 0
SMALL
GASTEIGER

@<TRIPOS>ATOM
      1  C          5.0300    1.7940    0.7550 C.3     1  UNL1        0.1270
      2  C          4.4910    1.0880    1.9420 C.2     1  UNL1        0.3030
      3  O          5.1300    0.1710    2.4800 O.2     1  UNL1       -0.2520
      4  O          3.2620    1.4560    2.4540 O.3     1  UNL1       -0.4810
      5  H          3.1690    1.9810    3.3190 H       1  UNL1        0.2960
      6  C          6.5380    1.7750    0.7670 C.3     1  UNL1        0.0470
      7  C          7.1100    0.9900   -0.3430 C.2     1  UNL1       -0.0470
      8  C          6.4150    0.0560   -1.0670 C.2     1  UNL1        0.0040
      9  C          8.4270    1.2120   -0.6680 C.2     1  UNL1        0.0040
     10  C          7.0310   -0.6350   -2.0910 C.2     1  UNL1        0.0000
     11  C          9.0550    0.5400   -1.6760 C.2     1  UNL1        0.0000
     12  C          8.3550   -0.3980   -2.4040 C.2     1  UNL1        0.0000
@<TRIPOS>BOND
     1    12    10    2
     2    12    11    1
     3    10     8    1
     4    11     9    2
     5     8     7    2
     6     9     7    1
     7     7     6    1
     8     1     6    1
     9     1     2    1
    10     2     4    1
    11     2     3    2
    12     4     5    1
