MODEL 1
REMARK VINA RESULT:      -7.3      0.000      0.000
REMARK SMILES O=C(O)CCc1ccccc1
REMARK SMILES IDX 4 1 2 2 1 3 3 4 5 6 6 7 7 8 11 9 8 10 10 11 9 12
REMARK H PARENT 3 5
REMARK Flexibility Score: inf
ROOT
ATOM      1  C   UNL     1       8.426  -0.588  -2.240  1.00  0.00     0.127 C 
ENDROOT
BRANCH   1   2
ATOM      2  C   UNL     1       8.482  -1.901  -2.925  1.00  0.00     0.303 C 
ATOM      3  O   UNL     1       9.560  -2.497  -3.069  1.00  0.00    -0.252 OA
BRANCH   2   4
ATOM      4  O   UNL     1       7.318  -2.467  -3.410  1.00  0.00    -0.481 OA
ATOM      5  H   UNL     1       6.475  -2.541  -2.849  1.00  0.00     0.296 HD
ENDBRANCH   2   4
ENDBRANCH   1   2
BRANCH   1   6
ATOM      6  C   UNL     1       7.007  -0.080  -2.182  1.00  0.00     0.047 C 
BRANCH   6   7
ATOM      7  C   UNL     1       6.491   0.024  -0.804  1.00  0.00    -0.047 A 
ATOM      8  C   UNL     1       6.601  -0.966   0.138  1.00  0.00     0.004 A 
ATOM      9  C   UNL     1       5.859   1.192  -0.446  1.00  0.00     0.004 A 
ATOM     10  C   UNL     1       6.087  -0.783   1.408  1.00  0.00     0.000 A 
ATOM     11  C   UNL     1       5.345   1.392   0.801  1.00  0.00     0.000 A 
ATOM     12  C   UNL     1       5.456   0.396   1.748  1.00  0.00     0.000 A 
ENDBRANCH   6   7
ENDBRANCH   1   6
TORSDOF 4
ENDMDL
MODEL 2
REMARK VINA RESULT:      -7.3      0.152      1.726
REMARK SMILES O=C(O)CCc1ccccc1
REMARK SMILES IDX 4 1 2 2 1 3 3 4 5 6 6 7 7 8 11 9 8 10 10 11 9 12
REMARK H PARENT 3 5
REMARK Flexibility Score: inf
ROOT
ATOM      1  C   UNL     1       8.395  -0.701  -2.043  1.00  0.00     0.127 C 
ENDROOT
BRANCH   1   2
ATOM      2  C   UNL     1       8.363  -1.926  -2.877  1.00  0.00     0.303 C 
ATOM      3  O   UNL     1       7.284  -2.411  -3.252  1.00  0.00    -0.252 OA
BRANCH   2   4
ATOM      4  O   UNL     1       9.548  -2.535  -3.241  1.00  0.00    -0.481 OA
ATOM      5  H   UNL     1      10.438  -2.045  -3.227  1.00  0.00     0.296 HD
ENDBRANCH   2   4
ENDBRANCH   1   2
BRANCH   1   6
ATOM      6  C   UNL     1       7.066   0.009  -2.093  1.00  0.00     0.047 C 
BRANCH   6   7
ATOM      7  C   UNL     1       6.464   0.192  -0.758  1.00  0.00    -0.047 A 
ATOM      8  C   UNL     1       5.788   1.317  -0.363  1.00  0.00     0.004 A 
ATOM      9  C   UNL     1       6.594  -0.837   0.145  1.00  0.00     0.004 A 
ATOM     10  C   UNL     1       5.256   1.403   0.909  1.00  0.00     0.000 A 
ATOM     11  C   UNL     1       6.077  -0.772   1.405  1.00  0.00     0.000 A 
ATOM     12  C   UNL     1       5.396   0.360   1.802  1.00  0.00     0.000 A 
ENDBRANCH   6   7
ENDBRANCH   1   6
TORSDOF 4
ENDMDL
MODEL 3
REMARK VINA RESULT:      -6.8      3.373      5.060
REMARK SMILES O=C(O)CCc1ccccc1
REMARK SMILES IDX 4 1 2 2 1 3 3 4 5 6 6 7 7 8 11 9 8 10 10 11 9 12
REMARK H PARENT 3 5
REMARK Flexibility Score: inf
ROOT
ATOM      1  C   UNL     1       5.030   1.794   0.755  1.00  0.00     0.127 C 
ENDROOT
BRANCH   1   2
ATOM      2  C   UNL     1       4.491   1.088   1.942  1.00  0.00     0.303 C 
ATOM      3  O   UNL     1       5.130   0.171   2.480  1.00  0.00    -0.252 OA
BRANCH   2   4
ATOM      4  O   UNL     1       3.262   1.456   2.454  1.00  0.00    -0.481 OA
ATOM      5  H   UNL     1       3.169   1.981   3.319  1.00  0.00     0.296 HD
ENDBRANCH   2   4
ENDBRANCH   1   2
BRANCH   1   6
ATOM      6  C   UNL     1       6.538   1.775   0.767  1.00  0.00     0.047 C 
BRANCH   6   7
ATOM      7  C   UNL     1       7.110   0.990  -0.343  1.00  0.00    -0.047 A 
ATOM      8  C   UNL     1       6.415   0.056  -1.067  1.00  0.00     0.004 A 
ATOM      9  C   UNL     1       8.427   1.212  -0.668  1.00  0.00     0.004 A 
ATOM     10  C   UNL     1       7.031  -0.635  -2.091  1.00  0.00     0.000 A 
ATOM     11  C   UNL     1       9.055   0.540  -1.676  1.00  0.00     0.000 A 
ATOM     12  C   UNL     1       8.355  -0.398  -2.404  1.00  0.00     0.000 A 
ENDBRANCH   6   7
ENDBRANCH   1   6
TORSDOF 4
ENDMDL
MODEL 4
REMARK VINA RESULT:      -6.6      1.942      2.627
REMARK SMILES O=C(O)CCc1ccccc1
REMARK SMILES IDX 4 1 2 2 1 3 3 4 5 6 6 7 7 8 11 9 8 10 10 11 9 12
REMARK H PARENT 3 5
REMARK Flexibility Score: inf
ROOT
ATOM      1  C   UNL     1       8.209   0.275  -2.078  1.00  0.00     0.127 C 
ENDROOT
BRANCH   1   2
ATOM      2  C   UNL     1       9.375   0.364  -1.167  1.00  0.00     0.303 C 
ATOM      3  O   UNL     1       9.480  -0.399  -0.194  1.00  0.00    -0.252 OA
BRANCH   2   4
ATOM      4  O   UNL     1      10.356   1.308  -1.404  1.00  0.00    -0.481 OA
ATOM      5  H   UNL     1      11.062   1.542  -0.712  1.00  0.00     0.296 HD
ENDBRANCH   2   4
ENDBRANCH   1   2
BRANCH   1   6
ATOM      6  C   UNL     1       7.118  -0.566  -1.463  1.00  0.00     0.047 C 
BRANCH   6   7
ATOM      7  C   UNL     1       6.335   0.166  -0.449  1.00  0.00    -0.047 A 
ATOM      8  C   UNL     1       5.768   1.398  -0.652  1.00  0.00     0.004 A 
ATOM      9  C   UNL     1       6.166  -0.431   0.778  1.00  0.00     0.004 A 
ATOM     10  C   UNL     1       5.051   2.011   0.357  1.00  0.00     0.000 A 
ATOM     11  C   UNL     1       5.462   0.158   1.786  1.00  0.00     0.000 A 
ATOM     12  C   UNL     1       4.892   1.396   1.583  1.00  0.00     0.000 A 
ENDBRANCH   6   7
ENDBRANCH   1   6
TORSDOF 4
ENDMDL
MODEL 5
REMARK VINA RESULT:      -6.6      1.878      2.875
REMARK SMILES O=C(O)CCc1ccccc1
REMARK SMILES IDX 4 1 2 2 1 3 3 4 5 6 6 7 7 8 11 9 8 10 10 11 9 12
REMARK H PARENT 3 5
REMARK Flexibility Score: inf
ROOT
ATOM      1  C   UNL     1       8.185  -1.633   1.093  1.00  0.00     0.127 C 
ENDROOT
BRANCH   1   2
ATOM      2  C   UNL     1       8.522  -2.852   0.322  1.00  0.00     0.303 C 
ATOM      3  O   UNL     1       9.183  -3.768   0.837  1.00  0.00    -0.252 OA
BRANCH   2   4
ATOM      4  O   UNL     1       8.097  -2.971  -0.987  1.00  0.00    -0.481 OA
ATOM      5  H   UNL     1       8.727  -3.225  -1.743  1.00  0.00     0.296 HD
ENDBRANCH   2   4
ENDBRANCH   1   2
BRANCH   1   6
ATOM      6  C   UNL     1       6.693  -1.525   1.289  1.00  0.00     0.047 C 
BRANCH   6   7
ATOM      7  C   UNL     1       6.145  -0.240   0.814  1.00  0.00    -0.047 A 
ATOM      8  C   UNL     1       5.405   0.617   1.588  1.00  0.00     0.004 A 
ATOM      9  C   UNL     1       6.395   0.117  -0.490  1.00  0.00     0.004 A 
ATOM     10  C   UNL     1       4.929   1.801   1.060  1.00  0.00     0.000 A 
ATOM     11  C   UNL     1       5.934   1.281  -1.030  1.00  0.00     0.000 A 
ATOM     12  C   UNL     1       5.190   2.142  -0.252  1.00  0.00     0.000 A 
ENDBRANCH   6   7
ENDBRANCH   1   6
TORSDOF 4
ENDMDL
