@<TRIPOS>MOLECULE
/home/cewinharhar/GITHUB/reincatalyze/data/processed/docking_pred/2023-Apr-25-1630_maxeplen5_maxtrainstep200_exh32_gamma099_lrac3e-4_lrcr1e-3/69e2ce579100b0ee4b56c8bb4a95d1562fd611af_ligand_2.pdbqt
 12 12 0 0 0
SMALL
GASTEIGER

@<TRIPOS>ATOM
      1  C          8.4280   -0.5580   -2.2510 C.3     1  UNL1        0.1270
      2  C          8.4880   -1.8700   -2.9370 C.2     1  UNL1        0.3030
      3  O          9.5670   -2.4650   -3.0780 O.2     1  UNL1       -0.2520
      4  O          7.3270   -2.4370   -3.4270 O.3     1  UNL1       -0.4810
      5  H          7.2200   -3.4410   -3.5430 H       1  UNL1        0.2960
      6  C          7.0080   -0.0520   -2.1970 C.3     1  UNL1        0.0470
      7  C          6.4900    0.0540   -0.8190 C.2     1  UNL1       -0.0470
      8  C          6.6030   -0.9330    0.1260 C.2     1  UNL1        0.0040
      9  C          5.8520    1.2190   -0.4660 C.2     1  UNL1        0.0040
     10  C          6.0860   -0.7490    1.3940 C.2     1  UNL1        0.0000
     11  C          5.3350    1.4210    0.7790 C.2     1  UNL1        0.0000
     12  C          5.4490    0.4290    1.7300 C.2     1  UNL1        0.0000
@<TRIPOS>BOND
     1     5     4    1
     2     4     2    1
     3     3     2    2
     4     2     1    1
     5     1     6    1
     6     6     7    1
     7     7     9    2
     8     7     8    1
     9     9    11    1
    10     8    10    2
    11    11    12    2
    12    10    12    1
