@<TRIPOS>MOLECULE
/home/cewinharhar/GITHUB/reincatalyze/data/processed/docking_pred/2023-Apr-25-1630_maxeplen5_maxtrainstep200_exh32_gamma099_lrac3e-4_lrcr1e-3/69e2ce579100b0ee4b56c8bb4a95d1562fd611af_ligand_2.pdbqt
 12 12 0 0 0
SMALL
GASTEIGER

@<TRIPOS>ATOM
      1  C          8.4120   -0.6820   -2.0840 C.3     1  UNL1        0.1270
      2  C          8.4660   -1.9270   -2.8860 C.2     1  UNL1        0.3030
      3  O          9.5450   -2.5040   -3.0910 O.2     1  UNL1       -0.2520
      4  O          7.3000   -2.4510   -3.4110 O.3     1  UNL1       -0.4810
      5  H          6.5270   -2.7520   -2.8240 H       1  UNL1        0.2960
      6  C          7.0240   -0.0920   -2.1130 C.3     1  UNL1        0.0470
      7  C          6.4560    0.1010   -0.7650 C.2     1  UNL1       -0.0470
      8  C          5.8030    1.2360   -0.3570 C.2     1  UNL1        0.0040
      9  C          6.5940   -0.9260    0.1380 C.2     1  UNL1        0.0040
     10  C          5.3030    1.3320    0.9270 C.2     1  UNL1        0.0000
     11  C          6.1080   -0.8520    1.4100 C.2     1  UNL1        0.0000
     12  C          5.4510    0.2890    1.8200 C.2     1  UNL1        0.0000
@<TRIPOS>BOND
     1     4     2    1
     2     4     5    1
     3     3     2    2
     4     2     1    1
     5     6     1    1
     6     6     7    1
     7     7     8    2
     8     7     9    1
     9     8    10    1
    10     9    11    2
    11    10    12    2
    12    11    12    1
