@<TRIPOS>MOLECULE
/home/cewinharhar/GITHUB/reincatalyze/data/processed/docking_pred/2023-Apr-25-1630_maxeplen5_maxtrainstep200_exh32_gamma099_lrac3e-4_lrcr1e-3/69e2ce579100b0ee4b56c8bb4a95d1562fd611af_ligand_2.pdbqt
 12 12 0 0 0
SMALL
GASTEIGER

@<TRIPOS>ATOM
      1  C          5.0000    1.7950    0.7330 C.3     1  UNL1        0.1270
      2  C          4.4850    1.0960    1.9340 C.2     1  UNL1        0.3030
      3  O          5.1430    0.1930    2.4740 O.2     1  UNL1       -0.2520
      4  O          3.2580    1.4530    2.4580 O.3     1  UNL1       -0.4810
      5  H          2.5660    0.7650    2.7390 H       1  UNL1        0.2960
      6  C          6.5080    1.8190    0.7390 C.3     1  UNL1        0.0470
      7  C          7.0980    1.0180   -0.3510 C.2     1  UNL1       -0.0470
      8  C          6.4090    0.0880   -1.0850 C.2     1  UNL1        0.0040
      9  C          8.4250    1.2220   -0.6450 C.2     1  UNL1        0.0040
     10  C          7.0420   -0.6190   -2.0900 C.2     1  UNL1        0.0000
     11  C          9.0690    0.5350   -1.6320 C.2     1  UNL1        0.0000
     12  C          8.3760   -0.4000   -2.3710 C.2     1  UNL1        0.0000
@<TRIPOS>BOND
     1    12    10    2
     2    12    11    1
     3    10     8    1
     4    11     9    2
     5     8     7    2
     6     9     7    1
     7     7     6    1
     8     1     6    1
     9     1     2    1
    10     2     4    1
    11     2     3    2
    12     4     5    1
