@<TRIPOS>MOLECULE
/home/cewinharhar/GITHUB/reincatalyze/data/processed/docking_pred/2023-Apr-25-1630_maxeplen5_maxtrainstep200_exh32_gamma099_lrac3e-4_lrcr1e-3/69e2ce579100b0ee4b56c8bb4a95d1562fd611af_ligand_2.pdbqt
 12 12 0 0 0
SMALL
GASTEIGER

@<TRIPOS>ATOM
      1  C          8.2090    0.2530   -2.0950 C.3     1  UNL1        0.1270
      2  C          9.3770    0.3640   -1.1890 C.2     1  UNL1        0.3030
      3  O          9.4810   -0.3700   -0.1940 O.2     1  UNL1       -0.2520
      4  O         10.3610    1.2960   -1.4560 O.3     1  UNL1       -0.4810
      5  H         10.6290    1.5470   -2.4040 H       1  UNL1        0.2960
      6  C          7.1250   -0.5840   -1.4620 C.3     1  UNL1        0.0470
      7  C          6.3420    0.1590   -0.4550 C.2     1  UNL1       -0.0470
      8  C          5.7880    1.3950   -0.6670 C.2     1  UNL1        0.0040
      9  C          6.1610   -0.4300    0.7730 C.2     1  UNL1        0.0040
     10  C          5.0690    2.0200    0.3340 C.2     1  UNL1        0.0000
     11  C          5.4560    0.1700    1.7750 C.2     1  UNL1        0.0000
     12  C          4.8980    1.4120    1.5620 C.2     1  UNL1        0.0000
@<TRIPOS>BOND
     1     5     4    1
     2     1     6    1
     3     1     2    1
     4     6     7    1
     5     4     2    1
     6     2     3    2
     7     8     7    2
     8     8    10    1
     9     7     9    1
    10    10    12    2
    11     9    11    2
    12    12    11    1
