MODEL 1
REMARK VINA RESULT:      -7.3      0.000      0.000
REMARK SMILES O=C(O)CCc1ccccc1
REMARK SMILES IDX 4 1 2 2 1 3 3 4 5 6 6 7 7 8 11 9 8 10 10 11 9 12
REMARK H PARENT 3 5
REMARK Flexibility Score: inf
ROOT
ATOM      1  C   UNL     1       8.412  -0.682  -2.084  1.00  0.00     0.127 C 
ENDROOT
BRANCH   1   2
ATOM      2  C   UNL     1       8.466  -1.927  -2.886  1.00  0.00     0.303 C 
ATOM      3  O   UNL     1       9.545  -2.504  -3.091  1.00  0.00    -0.252 OA
BRANCH   2   4
ATOM      4  O   UNL     1       7.300  -2.451  -3.411  1.00  0.00    -0.481 OA
ATOM      5  H   UNL     1       6.527  -2.752  -2.824  1.00  0.00     0.296 HD
ENDBRANCH   2   4
ENDBRANCH   1   2
BRANCH   1   6
ATOM      6  C   UNL     1       7.024  -0.092  -2.113  1.00  0.00     0.047 C 
BRANCH   6   7
ATOM      7  C   UNL     1       6.456   0.101  -0.765  1.00  0.00    -0.047 A 
ATOM      8  C   UNL     1       5.803   1.236  -0.357  1.00  0.00     0.004 A 
ATOM      9  C   UNL     1       6.594  -0.926   0.138  1.00  0.00     0.004 A 
ATOM     10  C   UNL     1       5.303   1.332   0.927  1.00  0.00     0.000 A 
ATOM     11  C   UNL     1       6.108  -0.852   1.410  1.00  0.00     0.000 A 
ATOM     12  C   UNL     1       5.451   0.289   1.820  1.00  0.00     0.000 A 
ENDBRANCH   6   7
ENDBRANCH   1   6
TORSDOF 4
ENDMDL
MODEL 2
REMARK VINA RESULT:      -7.3      0.118      1.431
REMARK SMILES O=C(O)CCc1ccccc1
REMARK SMILES IDX 4 1 2 2 1 3 3 4 5 6 6 7 7 8 11 9 8 10 10 11 9 12
REMARK H PARENT 3 5
REMARK Flexibility Score: inf
ROOT
ATOM      1  C   UNL     1       8.428  -0.558  -2.251  1.00  0.00     0.127 C 
ENDROOT
BRANCH   1   2
ATOM      2  C   UNL     1       8.488  -1.870  -2.937  1.00  0.00     0.303 C 
ATOM      3  O   UNL     1       9.567  -2.465  -3.078  1.00  0.00    -0.252 OA
BRANCH   2   4
ATOM      4  O   UNL     1       7.327  -2.437  -3.427  1.00  0.00    -0.481 OA
ATOM      5  H   UNL     1       7.220  -3.441  -3.543  1.00  0.00     0.296 HD
ENDBRANCH   2   4
ENDBRANCH   1   2
BRANCH   1   6
ATOM      6  C   UNL     1       7.008  -0.052  -2.197  1.00  0.00     0.047 C 
BRANCH   6   7
ATOM      7  C   UNL     1       6.490   0.054  -0.819  1.00  0.00    -0.047 A 
ATOM      8  C   UNL     1       6.603  -0.933   0.126  1.00  0.00     0.004 A 
ATOM      9  C   UNL     1       5.852   1.219  -0.466  1.00  0.00     0.004 A 
ATOM     10  C   UNL     1       6.086  -0.749   1.394  1.00  0.00     0.000 A 
ATOM     11  C   UNL     1       5.335   1.421   0.779  1.00  0.00     0.000 A 
ATOM     12  C   UNL     1       5.449   0.429   1.730  1.00  0.00     0.000 A 
ENDBRANCH   6   7
ENDBRANCH   1   6
TORSDOF 4
ENDMDL
MODEL 3
REMARK VINA RESULT:      -7.2      0.667      1.136
REMARK SMILES O=C(O)CCc1ccccc1
REMARK SMILES IDX 4 1 2 2 1 3 3 4 5 6 6 7 7 8 11 9 8 10 10 11 9 12
REMARK H PARENT 3 5
REMARK Flexibility Score: inf
ROOT
ATOM      1  C   UNL     1       8.315  -0.991  -1.792  1.00  0.00     0.127 C 
ENDROOT
BRANCH   1   2
ATOM      2  C   UNL     1       8.447  -2.046  -2.824  1.00  0.00     0.303 C 
ATOM      3  O   UNL     1       9.556  -2.532  -3.097  1.00  0.00    -0.252 OA
BRANCH   2   4
ATOM      4  O   UNL     1       7.323  -2.493  -3.491  1.00  0.00    -0.481 OA
ATOM      5  H   UNL     1       6.382  -2.311  -3.153  1.00  0.00     0.296 HD
ENDBRANCH   2   4
ENDBRANCH   1   2
BRANCH   1   6
ATOM      6  C   UNL     1       7.353  -1.423  -0.713  1.00  0.00     0.047 C 
BRANCH   6   7
ATOM      7  C   UNL     1       6.540  -0.307  -0.191  1.00  0.00    -0.047 A 
ATOM      8  C   UNL     1       6.207   0.809  -0.914  1.00  0.00     0.004 A 
ATOM      9  C   UNL     1       6.092  -0.398   1.105  1.00  0.00     0.004 A 
ATOM     10  C   UNL     1       5.441   1.808  -0.344  1.00  0.00     0.000 A 
ATOM     11  C   UNL     1       5.335   0.576   1.686  1.00  0.00     0.000 A 
ATOM     12  C   UNL     1       4.999   1.699   0.959  1.00  0.00     0.000 A 
ENDBRANCH   6   7
ENDBRANCH   1   6
TORSDOF 4
ENDMDL
MODEL 4
REMARK VINA RESULT:      -6.8      3.374      5.084
REMARK SMILES O=C(O)CCc1ccccc1
REMARK SMILES IDX 4 1 2 2 1 3 3 4 5 6 6 7 7 8 11 9 8 10 10 11 9 12
REMARK H PARENT 3 5
REMARK Flexibility Score: inf
ROOT
ATOM      1  C   UNL     1       5.000   1.795   0.733  1.00  0.00     0.127 C 
ENDROOT
BRANCH   1   2
ATOM      2  C   UNL     1       4.485   1.096   1.934  1.00  0.00     0.303 C 
ATOM      3  O   UNL     1       5.143   0.193   2.474  1.00  0.00    -0.252 OA
BRANCH   2   4
ATOM      4  O   UNL     1       3.258   1.453   2.458  1.00  0.00    -0.481 OA
ATOM      5  H   UNL     1       2.566   0.765   2.739  1.00  0.00     0.296 HD
ENDBRANCH   2   4
ENDBRANCH   1   2
BRANCH   1   6
ATOM      6  C   UNL     1       6.508   1.819   0.739  1.00  0.00     0.047 C 
BRANCH   6   7
ATOM      7  C   UNL     1       7.098   1.018  -0.351  1.00  0.00    -0.047 A 
ATOM      8  C   UNL     1       6.409   0.088  -1.085  1.00  0.00     0.004 A 
ATOM      9  C   UNL     1       8.425   1.222  -0.645  1.00  0.00     0.004 A 
ATOM     10  C   UNL     1       7.042  -0.619  -2.090  1.00  0.00     0.000 A 
ATOM     11  C   UNL     1       9.069   0.535  -1.632  1.00  0.00     0.000 A 
ATOM     12  C   UNL     1       8.376  -0.400  -2.371  1.00  0.00     0.000 A 
ENDBRANCH   6   7
ENDBRANCH   1   6
TORSDOF 4
ENDMDL
MODEL 5
REMARK VINA RESULT:      -6.6      1.946      2.255
REMARK SMILES O=C(O)CCc1ccccc1
REMARK SMILES IDX 4 1 2 2 1 3 3 4 5 6 6 7 7 8 11 9 8 10 10 11 9 12
REMARK H PARENT 3 5
REMARK Flexibility Score: inf
ROOT
ATOM      1  C   UNL     1       8.209   0.253  -2.095  1.00  0.00     0.127 C 
ENDROOT
BRANCH   1   2
ATOM      2  C   UNL     1       9.377   0.364  -1.189  1.00  0.00     0.303 C 
ATOM      3  O   UNL     1       9.481  -0.370  -0.194  1.00  0.00    -0.252 OA
BRANCH   2   4
ATOM      4  O   UNL     1      10.361   1.296  -1.456  1.00  0.00    -0.481 OA
ATOM      5  H   UNL     1      10.629   1.547  -2.404  1.00  0.00     0.296 HD
ENDBRANCH   2   4
ENDBRANCH   1   2
BRANCH   1   6
ATOM      6  C   UNL     1       7.125  -0.584  -1.462  1.00  0.00     0.047 C 
BRANCH   6   7
ATOM      7  C   UNL     1       6.342   0.159  -0.455  1.00  0.00    -0.047 A 
ATOM      8  C   UNL     1       5.788   1.395  -0.667  1.00  0.00     0.004 A 
ATOM      9  C   UNL     1       6.161  -0.430   0.773  1.00  0.00     0.004 A 
ATOM     10  C   UNL     1       5.069   2.020   0.334  1.00  0.00     0.000 A 
ATOM     11  C   UNL     1       5.456   0.170   1.775  1.00  0.00     0.000 A 
ATOM     12  C   UNL     1       4.898   1.412   1.562  1.00  0.00     0.000 A 
ENDBRANCH   6   7
ENDBRANCH   1   6
TORSDOF 4
ENDMDL
