@<TRIPOS>MOLECULE
/home/cewinharhar/GITHUB/reincatalyze/data/processed/docking_pred/2023-Apr-25-1630_maxeplen5_maxtrainstep200_exh32_gamma099_lrac3e-4_lrcr1e-3/6b061a7890d75c8b26c884693b3b8f9ee5a9c423_ligand_2.pdbqt
 12 12 0 0 0
SMALL
GASTEIGER

@<TRIPOS>ATOM
      1  C          8.4150   -0.6210   -2.1580 C.3     1  UNL1        0.1270
      2  C          8.4700   -1.8980   -2.9080 C.2     1  UNL1        0.3030
      3  O          9.5500   -2.4830   -3.0870 O.2     1  UNL1       -0.2520
      4  O          7.3060   -2.4430   -3.4140 O.3     1  UNL1       -0.4810
      5  H          7.0100   -2.2960   -4.3750 H       1  UNL1        0.2960
      6  C          7.0120   -0.0660   -2.1590 C.3     1  UNL1        0.0470
      7  C          6.4660    0.1120   -0.8000 C.2     1  UNL1       -0.0470
      8  C          5.8420    1.2510   -0.3610 C.2     1  UNL1        0.0040
      9  C          6.5940   -0.9360    0.0810 C.2     1  UNL1        0.0040
     10  C          5.3600    1.3320    0.9310 C.2     1  UNL1        0.0000
     11  C          6.1270   -0.8770    1.3600 C.2     1  UNL1        0.0000
     12  C          5.4990    0.2690    1.8010 C.2     1  UNL1        0.0000
@<TRIPOS>BOND
     1     5     4    1
     2     4     2    1
     3     3     2    2
     4     2     1    1
     5     6     1    1
     6     6     7    1
     7     7     8    2
     8     7     9    1
     9     8    10    1
    10     9    11    2
    11    10    12    2
    12    11    12    1
