@<TRIPOS>MOLECULE
/home/cewinharhar/GITHUB/reincatalyze/data/processed/docking_pred/2023-Apr-25-1630_maxeplen5_maxtrainstep200_exh32_gamma099_lrac3e-4_lrcr1e-3/6b061a7890d75c8b26c884693b3b8f9ee5a9c423_ligand_2.pdbqt
 12 12 0 0 0
SMALL
GASTEIGER

@<TRIPOS>ATOM
      1  C          5.0150    1.7690    0.7220 C.3     1  UNL1        0.1270
      2  C          4.4930    1.0890    1.9310 C.2     1  UNL1        0.3030
      3  O          5.1450    0.1910    2.4860 O.2     1  UNL1       -0.2520
      4  O          3.2660    1.4590    2.4470 O.3     1  UNL1       -0.4810
      5  H          2.5330    1.8630    1.8690 H       1  UNL1        0.2960
      6  C          6.5190    1.8610    0.7730 C.3     1  UNL1        0.0470
      7  C          7.1760    1.1140   -0.3160 C.2     1  UNL1       -0.0470
      8  C          8.5040    1.2270   -0.6380 C.2     1  UNL1        0.0040
      9  C          6.4010    0.2500   -1.0530 C.2     1  UNL1        0.0040
     10  C          9.0360    0.4870   -1.6770 C.2     1  UNL1        0.0000
     11  C          6.9070   -0.4880   -2.0820 C.2     1  UNL1        0.0000
     12  C          8.2430   -0.3760   -2.4060 C.2     1  UNL1        0.0000
@<TRIPOS>BOND
     1    12    11    2
     2    12    10    1
     3    11     9    1
     4    10     8    2
     5     9     7    2
     6     8     7    1
     7     7     6    1
     8     1     6    1
     9     1     2    1
    10     5     4    1
    11     2     4    1
    12     2     3    2
