@<TRIPOS>MOLECULE
/home/cewinharhar/GITHUB/reincatalyze/data/processed/docking_pred/2023-Apr-25-1630_maxeplen5_maxtrainstep200_exh32_gamma099_lrac3e-4_lrcr1e-3/6b061a7890d75c8b26c884693b3b8f9ee5a9c423_ligand_2.pdbqt
 12 12 0 0 0
SMALL
GASTEIGER

@<TRIPOS>ATOM
      1  C          5.0190    1.8130    0.7530 C.3     1  UNL1        0.1270
      2  C          4.4890    1.1020    1.9400 C.2     1  UNL1        0.3030
      3  O          5.1390    0.1910    2.4770 O.2     1  UNL1       -0.2520
      4  O          3.2570    1.4570    2.4540 O.3     1  UNL1       -0.4810
      5  H          2.8000    0.9220    3.1870 H       1  UNL1        0.2960
      6  C          6.5280    1.8090    0.7630 C.3     1  UNL1        0.0470
      7  C          7.1050    1.0150   -0.3390 C.2     1  UNL1       -0.0470
      8  C          6.4080    0.0870   -1.0690 C.2     1  UNL1        0.0040
      9  C          8.4290    1.2220   -0.6470 C.2     1  UNL1        0.0040
     10  C          7.0300   -0.6130   -2.0850 C.2     1  UNL1        0.0000
     11  C          9.0610    0.5410   -1.6450 C.2     1  UNL1        0.0000
     12  C          8.3610   -0.3910   -2.3810 C.2     1  UNL1        0.0000
@<TRIPOS>BOND
     1    12    10    2
     2    12    11    1
     3    10     8    1
     4    11     9    2
     5     8     7    2
     6     9     7    1
     7     7     6    1
     8     1     6    1
     9     1     2    1
    10     2     4    1
    11     2     3    2
    12     4     5    1
