MODEL 1
REMARK VINA RESULT:      -7.4      0.000      0.000
REMARK SMILES O=C(O)CCc1ccccc1
REMARK SMILES IDX 4 1 2 2 1 3 3 4 5 6 6 7 7 8 11 9 8 10 10 11 9 12
REMARK H PARENT 3 5
REMARK Flexibility Score: inf
ROOT
ATOM      1  C   UNL     1       8.440  -0.643  -2.165  1.00  0.00     0.127 C 
ENDROOT
BRANCH   1   2
ATOM      2  C   UNL     1       8.486  -1.920  -2.915  1.00  0.00     0.303 C 
ATOM      3  O   UNL     1       9.561  -2.514  -3.094  1.00  0.00    -0.252 OA
BRANCH   2   4
ATOM      4  O   UNL     1       7.318  -2.456  -3.422  1.00  0.00    -0.481 OA
ATOM      5  H   UNL     1       7.241  -3.433  -3.693  1.00  0.00     0.296 HD
ENDBRANCH   2   4
ENDBRANCH   1   2
BRANCH   1   6
ATOM      6  C   UNL     1       7.036  -0.094  -2.138  1.00  0.00     0.047 C 
BRANCH   6   7
ATOM      7  C   UNL     1       6.493   0.022  -0.771  1.00  0.00    -0.047 A 
ATOM      8  C   UNL     1       6.587  -0.958   0.183  1.00  0.00     0.004 A 
ATOM      9  C   UNL     1       5.850   1.191  -0.438  1.00  0.00     0.004 A 
ATOM     10  C   UNL     1       6.047  -0.764   1.440  1.00  0.00     0.000 A 
ATOM     11  C   UNL     1       5.310   1.402   0.797  1.00  0.00     0.000 A 
ATOM     12  C   UNL     1       5.406   0.416   1.756  1.00  0.00     0.000 A 
ENDBRANCH   6   7
ENDBRANCH   1   6
TORSDOF 4
ENDMDL
MODEL 2
REMARK VINA RESULT:      -7.3      0.104      1.428
REMARK SMILES O=C(O)CCc1ccccc1
REMARK SMILES IDX 4 1 2 2 1 3 3 4 5 6 6 7 7 8 11 9 8 10 10 11 9 12
REMARK H PARENT 3 5
REMARK Flexibility Score: inf
ROOT
ATOM      1  C   UNL     1       8.415  -0.621  -2.158  1.00  0.00     0.127 C 
ENDROOT
BRANCH   1   2
ATOM      2  C   UNL     1       8.470  -1.898  -2.908  1.00  0.00     0.303 C 
ATOM      3  O   UNL     1       9.550  -2.483  -3.087  1.00  0.00    -0.252 OA
BRANCH   2   4
ATOM      4  O   UNL     1       7.306  -2.443  -3.414  1.00  0.00    -0.481 OA
ATOM      5  H   UNL     1       7.010  -2.296  -4.375  1.00  0.00     0.296 HD
ENDBRANCH   2   4
ENDBRANCH   1   2
BRANCH   1   6
ATOM      6  C   UNL     1       7.012  -0.066  -2.159  1.00  0.00     0.047 C 
BRANCH   6   7
ATOM      7  C   UNL     1       6.466   0.112  -0.800  1.00  0.00    -0.047 A 
ATOM      8  C   UNL     1       5.842   1.251  -0.361  1.00  0.00     0.004 A 
ATOM      9  C   UNL     1       6.594  -0.936   0.081  1.00  0.00     0.004 A 
ATOM     10  C   UNL     1       5.360   1.332   0.931  1.00  0.00     0.000 A 
ATOM     11  C   UNL     1       6.127  -0.877   1.360  1.00  0.00     0.000 A 
ATOM     12  C   UNL     1       5.499   0.269   1.801  1.00  0.00     0.000 A 
ENDBRANCH   6   7
ENDBRANCH   1   6
TORSDOF 4
ENDMDL
MODEL 3
REMARK VINA RESULT:      -7.2      0.610      1.101
REMARK SMILES O=C(O)CCc1ccccc1
REMARK SMILES IDX 4 1 2 2 1 3 3 4 5 6 6 7 7 8 11 9 8 10 10 11 9 12
REMARK H PARENT 3 5
REMARK Flexibility Score: inf
ROOT
ATOM      1  C   UNL     1       8.115  -0.898  -1.933  1.00  0.00     0.127 C 
ENDROOT
BRANCH   1   2
ATOM      2  C   UNL     1       8.344  -2.012  -2.883  1.00  0.00     0.303 C 
ATOM      3  O   UNL     1       9.488  -2.451  -3.083  1.00  0.00    -0.252 OA
BRANCH   2   4
ATOM      4  O   UNL     1       7.273  -2.569  -3.554  1.00  0.00    -0.481 OA
ATOM      5  H   UNL     1       6.312  -2.429  -3.255  1.00  0.00     0.296 HD
ENDBRANCH   2   4
ENDBRANCH   1   2
BRANCH   1   6
ATOM      6  C   UNL     1       7.400  -1.392  -0.700  1.00  0.00     0.047 C 
BRANCH   6   7
ATOM      7  C   UNL     1       6.562  -0.354  -0.070  1.00  0.00    -0.047 A 
ATOM      8  C   UNL     1       6.087  -0.420   1.215  1.00  0.00     0.004 A 
ATOM      9  C   UNL     1       6.236   0.747  -0.825  1.00  0.00     0.004 A 
ATOM     10  C   UNL     1       5.306   0.599   1.725  1.00  0.00     0.000 A 
ATOM     11  C   UNL     1       5.466   1.764  -0.341  1.00  0.00     0.000 A 
ATOM     12  C   UNL     1       4.990   1.698   0.951  1.00  0.00     0.000 A 
ENDBRANCH   6   7
ENDBRANCH   1   6
TORSDOF 4
ENDMDL
MODEL 4
REMARK VINA RESULT:      -6.8      3.380      5.084
REMARK SMILES O=C(O)CCc1ccccc1
REMARK SMILES IDX 4 1 2 2 1 3 3 4 5 6 6 7 7 8 11 9 8 10 10 11 9 12
REMARK H PARENT 3 5
REMARK Flexibility Score: inf
ROOT
ATOM      1  C   UNL     1       5.015   1.769   0.722  1.00  0.00     0.127 C 
ENDROOT
BRANCH   1   2
ATOM      2  C   UNL     1       4.493   1.089   1.931  1.00  0.00     0.303 C 
ATOM      3  O   UNL     1       5.145   0.191   2.486  1.00  0.00    -0.252 OA
BRANCH   2   4
ATOM      4  O   UNL     1       3.266   1.459   2.447  1.00  0.00    -0.481 OA
ATOM      5  H   UNL     1       2.533   1.863   1.869  1.00  0.00     0.296 HD
ENDBRANCH   2   4
ENDBRANCH   1   2
BRANCH   1   6
ATOM      6  C   UNL     1       6.519   1.861   0.773  1.00  0.00     0.047 C 
BRANCH   6   7
ATOM      7  C   UNL     1       7.176   1.114  -0.316  1.00  0.00    -0.047 A 
ATOM      8  C   UNL     1       8.504   1.227  -0.638  1.00  0.00     0.004 A 
ATOM      9  C   UNL     1       6.401   0.250  -1.053  1.00  0.00     0.004 A 
ATOM     10  C   UNL     1       9.036   0.487  -1.677  1.00  0.00     0.000 A 
ATOM     11  C   UNL     1       6.907  -0.488  -2.082  1.00  0.00     0.000 A 
ATOM     12  C   UNL     1       8.243  -0.376  -2.406  1.00  0.00     0.000 A 
ENDBRANCH   6   7
ENDBRANCH   1   6
TORSDOF 4
ENDMDL
MODEL 5
REMARK VINA RESULT:      -6.8      3.377      5.073
REMARK SMILES O=C(O)CCc1ccccc1
REMARK SMILES IDX 4 1 2 2 1 3 3 4 5 6 6 7 7 8 11 9 8 10 10 11 9 12
REMARK H PARENT 3 5
REMARK Flexibility Score: inf
ROOT
ATOM      1  C   UNL     1       5.019   1.813   0.753  1.00  0.00     0.127 C 
ENDROOT
BRANCH   1   2
ATOM      2  C   UNL     1       4.489   1.102   1.940  1.00  0.00     0.303 C 
ATOM      3  O   UNL     1       5.139   0.191   2.477  1.00  0.00    -0.252 OA
BRANCH   2   4
ATOM      4  O   UNL     1       3.257   1.457   2.454  1.00  0.00    -0.481 OA
ATOM      5  H   UNL     1       2.800   0.922   3.187  1.00  0.00     0.296 HD
ENDBRANCH   2   4
ENDBRANCH   1   2
BRANCH   1   6
ATOM      6  C   UNL     1       6.528   1.809   0.763  1.00  0.00     0.047 C 
BRANCH   6   7
ATOM      7  C   UNL     1       7.105   1.015  -0.339  1.00  0.00    -0.047 A 
ATOM      8  C   UNL     1       6.408   0.087  -1.069  1.00  0.00     0.004 A 
ATOM      9  C   UNL     1       8.429   1.222  -0.647  1.00  0.00     0.004 A 
ATOM     10  C   UNL     1       7.030  -0.613  -2.085  1.00  0.00     0.000 A 
ATOM     11  C   UNL     1       9.061   0.541  -1.645  1.00  0.00     0.000 A 
ATOM     12  C   UNL     1       8.361  -0.391  -2.381  1.00  0.00     0.000 A 
ENDBRANCH   6   7
ENDBRANCH   1   6
TORSDOF 4
ENDMDL
