@<TRIPOS>MOLECULE
/home/cewinharhar/GITHUB/reincatalyze/data/processed/docking_pred/2023-Apr-25-1630_maxeplen5_maxtrainstep200_exh32_gamma099_lrac3e-4_lrcr1e-3/6b061a7890d75c8b26c884693b3b8f9ee5a9c423_ligand_2.pdbqt
 12 12 0 0 0
SMALL
GASTEIGER

@<TRIPOS>ATOM
      1  C          8.4400   -0.6430   -2.1650 C.3     1  UNL1        0.1270
      2  C          8.4860   -1.9200   -2.9150 C.2     1  UNL1        0.3030
      3  O          9.5610   -2.5140   -3.0940 O.2     1  UNL1       -0.2520
      4  O          7.3180   -2.4560   -3.4220 O.3     1  UNL1       -0.4810
      5  H          7.2410   -3.4330   -3.6930 H       1  UNL1        0.2960
      6  C          7.0360   -0.0940   -2.1380 C.3     1  UNL1        0.0470
      7  C          6.4930    0.0220   -0.7710 C.2     1  UNL1       -0.0470
      8  C          6.5870   -0.9580    0.1830 C.2     1  UNL1        0.0040
      9  C          5.8500    1.1910   -0.4380 C.2     1  UNL1        0.0040
     10  C          6.0470   -0.7640    1.4400 C.2     1  UNL1        0.0000
     11  C          5.3100    1.4020    0.7970 C.2     1  UNL1        0.0000
     12  C          5.4060    0.4160    1.7560 C.2     1  UNL1        0.0000
@<TRIPOS>BOND
     1     5     4    1
     2     4     2    1
     3     3     2    2
     4     2     1    1
     5     1     6    1
     6     6     7    1
     7     7     9    2
     8     7     8    1
     9     9    11    1
    10     8    10    2
    11    11    12    2
    12    10    12    1
