@<TRIPOS>MOLECULE
/home/cewinharhar/GITHUB/reincatalyze/data/processed/docking_pred/2023-Apr-25-1630_maxeplen5_maxtrainstep200_exh32_gamma099_lrac3e-4_lrcr1e-3/6b061a7890d75c8b26c884693b3b8f9ee5a9c423_ligand_2.pdbqt
 12 12 0 0 0
SMALL
GASTEIGER

@<TRIPOS>ATOM
      1  C          8.1150   -0.8980   -1.9330 C.3     1  UNL1        0.1270
      2  C          8.3440   -2.0120   -2.8830 C.2     1  UNL1        0.3030
      3  O          9.4880   -2.4510   -3.0830 O.2     1  UNL1       -0.2520
      4  O          7.2730   -2.5690   -3.5540 O.3     1  UNL1       -0.4810
      5  H          6.3120   -2.4290   -3.2550 H       1  UNL1        0.2960
      6  C          7.4000   -1.3920   -0.7000 C.3     1  UNL1        0.0470
      7  C          6.5620   -0.3540   -0.0700 C.2     1  UNL1       -0.0470
      8  C          6.0870   -0.4200    1.2150 C.2     1  UNL1        0.0040
      9  C          6.2360    0.7470   -0.8250 C.2     1  UNL1        0.0040
     10  C          5.3060    0.5990    1.7250 C.2     1  UNL1        0.0000
     11  C          5.4660    1.7640   -0.3410 C.2     1  UNL1        0.0000
     12  C          4.9900    1.6980    0.9510 C.2     1  UNL1        0.0000
@<TRIPOS>BOND
     1     4     5    1
     2     4     2    1
     3     3     2    2
     4     2     1    1
     5     1     6    1
     6     9    11    1
     7     9     7    2
     8     6     7    1
     9    11    12    2
    10     7     8    1
    11    12    10    1
    12     8    10    2
