@<TRIPOS>MOLECULE
/home/cewinharhar/GITHUB/reincatalyze/data/processed/docking_pred/2023-Apr-25-1630_maxeplen5_maxtrainstep200_exh32_gamma099_lrac3e-4_lrcr1e-3/6b66a19e3843729fbb18dde59d8ef2ce5f9236cc_ligand_2.pdbqt
 12 12 0 0 0
SMALL
GASTEIGER

@<TRIPOS>ATOM
      1  C          8.7560    0.6960   -1.5970 C.3     1  UNL1        0.1270
      2  C          9.8820   -0.1810   -1.1970 C.2     1  UNL1        0.3030
      3  O          9.7610   -1.4160   -1.2130 O.2     1  UNL1       -0.2520
      4  O         11.0790    0.3820   -0.8020 O.3     1  UNL1       -0.4810
      5  H         11.7120    0.8300   -1.4580 H       1  UNL1        0.2960
      6  C          7.4600   -0.0750   -1.6070 C.3     1  UNL1        0.0470
      7  C          6.6120    0.2160   -0.4360 C.2     1  UNL1       -0.0470
      8  C          5.8510    1.3480   -0.2950 C.2     1  UNL1        0.0040
      9  C          6.5870   -0.7120    0.5790 C.2     1  UNL1        0.0040
     10  C          5.0860    1.5390    0.8390 C.2     1  UNL1        0.0000
     11  C          5.8390   -0.5410    1.7060 C.2     1  UNL1        0.0000
     12  C          5.0740    0.5970    1.8470 C.2     1  UNL1        0.0000
@<TRIPOS>BOND
     1     6     1    1
     2     6     7    1
     3     1     2    1
     4     5     4    1
     5     3     2    2
     6     2     4    1
     7     7     8    2
     8     7     9    1
     9     8    10    1
    10     9    11    2
    11    10    12    2
    12    11    12    1
