@<TRIPOS>MOLECULE
/home/cewinharhar/GITHUB/reincatalyze/data/processed/docking_pred/2023-Apr-25-1630_maxeplen5_maxtrainstep200_exh32_gamma099_lrac3e-4_lrcr1e-3/6b66a19e3843729fbb18dde59d8ef2ce5f9236cc_ligand_2.pdbqt
 12 12 0 0 0
SMALL
GASTEIGER

@<TRIPOS>ATOM
      1  C          8.5310   -0.6580   -2.1170 C.3     1  UNL1        0.1270
      2  C          8.5550   -1.9230   -2.8890 C.2     1  UNL1        0.3030
      3  O          9.6240   -2.5140   -3.1050 O.2     1  UNL1       -0.2520
      4  O          7.3740   -2.4500   -3.3730 O.3     1  UNL1       -0.4810
      5  H          6.7770   -1.9420   -4.0210 H       1  UNL1        0.2960
      6  C          7.1460   -0.0600   -2.1240 C.3     1  UNL1        0.0470
      7  C          6.5610    0.0440   -0.7730 C.2     1  UNL1       -0.0470
      8  C          6.6550   -0.9310    0.1860 C.2     1  UNL1        0.0040
      9  C          5.8780    1.1960   -0.4620 C.2     1  UNL1        0.0040
     10  C          6.0750   -0.7490    1.4270 C.2     1  UNL1        0.0000
     11  C          5.2970    1.3940    0.7560 C.2     1  UNL1        0.0000
     12  C          5.3920    0.4140    1.7210 C.2     1  UNL1        0.0000
@<TRIPOS>BOND
     1     5     4    1
     2     4     2    1
     3     3     2    2
     4     2     1    1
     5     6     1    1
     6     6     7    1
     7     7     9    2
     8     7     8    1
     9     9    11    1
    10     8    10    2
    11    11    12    2
    12    10    12    1
