MODEL 1
REMARK VINA RESULT:      -7.0      0.000      0.000
REMARK SMILES O=C(O)CCc1ccccc1
REMARK SMILES IDX 4 1 2 2 1 3 3 4 5 6 6 7 7 8 11 9 8 10 10 11 9 12
REMARK H PARENT 3 5
REMARK Flexibility Score: inf
ROOT
ATOM      1  C   UNL     1       8.531  -0.658  -2.117  1.00  0.00     0.127 C 
ENDROOT
BRANCH   1   2
ATOM      2  C   UNL     1       8.555  -1.923  -2.889  1.00  0.00     0.303 C 
ATOM      3  O   UNL     1       9.624  -2.514  -3.105  1.00  0.00    -0.252 OA
BRANCH   2   4
ATOM      4  O   UNL     1       7.374  -2.450  -3.373  1.00  0.00    -0.481 OA
ATOM      5  H   UNL     1       6.777  -1.942  -4.021  1.00  0.00     0.296 HD
ENDBRANCH   2   4
ENDBRANCH   1   2
BRANCH   1   6
ATOM      6  C   UNL     1       7.146  -0.060  -2.124  1.00  0.00     0.047 C 
BRANCH   6   7
ATOM      7  C   UNL     1       6.561   0.044  -0.773  1.00  0.00    -0.047 A 
ATOM      8  C   UNL     1       6.655  -0.931   0.186  1.00  0.00     0.004 A 
ATOM      9  C   UNL     1       5.878   1.196  -0.462  1.00  0.00     0.004 A 
ATOM     10  C   UNL     1       6.075  -0.749   1.427  1.00  0.00     0.000 A 
ATOM     11  C   UNL     1       5.297   1.394   0.756  1.00  0.00     0.000 A 
ATOM     12  C   UNL     1       5.392   0.414   1.721  1.00  0.00     0.000 A 
ENDBRANCH   6   7
ENDBRANCH   1   6
TORSDOF 4
ENDMDL
MODEL 2
REMARK VINA RESULT:      -6.9      0.142      1.726
REMARK SMILES O=C(O)CCc1ccccc1
REMARK SMILES IDX 4 1 2 2 1 3 3 4 5 6 6 7 7 8 11 9 8 10 10 11 9 12
REMARK H PARENT 3 5
REMARK Flexibility Score: inf
ROOT
ATOM      1  C   UNL     1       8.445  -0.773  -1.981  1.00  0.00     0.127 C 
ENDROOT
BRANCH   1   2
ATOM      2  C   UNL     1       8.387  -1.968  -2.856  1.00  0.00     0.303 C 
ATOM      3  O   UNL     1       7.298  -2.423  -3.240  1.00  0.00    -0.252 OA
BRANCH   2   4
ATOM      4  O   UNL     1       9.560  -2.583  -3.250  1.00  0.00    -0.481 OA
ATOM      5  H   UNL     1      10.474  -2.187  -3.051  1.00  0.00     0.296 HD
ENDBRANCH   2   4
ENDBRANCH   1   2
BRANCH   1   6
ATOM      6  C   UNL     1       7.153   0.001  -2.055  1.00  0.00     0.047 C 
BRANCH   6   7
ATOM      7  C   UNL     1       6.514   0.175  -0.737  1.00  0.00    -0.047 A 
ATOM      8  C   UNL     1       5.812   1.292  -0.361  1.00  0.00     0.004 A 
ATOM      9  C   UNL     1       6.634  -0.851   0.170  1.00  0.00     0.004 A 
ATOM     10  C   UNL     1       5.246   1.371   0.897  1.00  0.00     0.000 A 
ATOM     11  C   UNL     1       6.083  -0.792   1.416  1.00  0.00     0.000 A 
ATOM     12  C   UNL     1       5.377   0.330   1.795  1.00  0.00     0.000 A 
ENDBRANCH   6   7
ENDBRANCH   1   6
TORSDOF 4
ENDMDL
MODEL 3
REMARK VINA RESULT:      -6.6      3.339      5.052
REMARK SMILES O=C(O)CCc1ccccc1
REMARK SMILES IDX 4 1 2 2 1 3 3 4 5 6 6 7 7 8 11 9 8 10 10 11 9 12
REMARK H PARENT 3 5
REMARK Flexibility Score: inf
ROOT
ATOM      1  C   UNL     1       5.032   1.700   0.725  1.00  0.00     0.127 C 
ENDROOT
BRANCH   1   2
ATOM      2  C   UNL     1       4.579   1.004   1.953  1.00  0.00     0.303 C 
ATOM      3  O   UNL     1       5.292   0.145   2.495  1.00  0.00    -0.252 OA
BRANCH   2   4
ATOM      4  O   UNL     1       3.349   1.315   2.500  1.00  0.00    -0.481 OA
ATOM      5  H   UNL     1       2.906   0.734   3.205  1.00  0.00     0.296 HD
ENDBRANCH   2   4
ENDBRANCH   1   2
BRANCH   1   6
ATOM      6  C   UNL     1       6.531   1.863   0.730  1.00  0.00     0.047 C 
BRANCH   6   7
ATOM      7  C   UNL     1       7.193   1.105  -0.349  1.00  0.00    -0.047 A 
ATOM      8  C   UNL     1       8.525   1.205  -0.658  1.00  0.00     0.004 A 
ATOM      9  C   UNL     1       6.418   0.246  -1.092  1.00  0.00     0.004 A 
ATOM     10  C   UNL     1       9.062   0.457  -1.689  1.00  0.00     0.000 A 
ATOM     11  C   UNL     1       6.928  -0.500  -2.113  1.00  0.00     0.000 A 
ATOM     12  C   UNL     1       8.268  -0.400  -2.424  1.00  0.00     0.000 A 
ENDBRANCH   6   7
ENDBRANCH   1   6
TORSDOF 4
ENDMDL
MODEL 4
REMARK VINA RESULT:      -6.6      3.846      4.976
REMARK SMILES O=C(O)CCc1ccccc1
REMARK SMILES IDX 4 1 2 2 1 3 3 4 5 6 6 7 7 8 11 9 8 10 10 11 9 12
REMARK H PARENT 3 5
REMARK Flexibility Score: inf
ROOT
ATOM      1  C   UNL     1       5.488   2.916   0.066  1.00  0.00     0.127 C 
ENDROOT
BRANCH   1   2
ATOM      2  C   UNL     1       6.265   3.916   0.836  1.00  0.00     0.303 C 
ATOM      3  O   UNL     1       6.946   4.775   0.255  1.00  0.00    -0.252 OA
BRANCH   2   4
ATOM      4  O   UNL     1       6.231   3.890   2.217  1.00  0.00    -0.481 OA
ATOM      5  H   UNL     1       5.807   3.126   2.736  1.00  0.00     0.296 HD
ENDBRANCH   2   4
ENDBRANCH   1   2
BRANCH   1   6
ATOM      6  C   UNL     1       4.880   1.890   0.991  1.00  0.00     0.047 C 
BRANCH   6   7
ATOM      7  C   UNL     1       5.659   0.639   1.049  1.00  0.00    -0.047 A 
ATOM      8  C   UNL     1       5.740  -0.170   2.153  1.00  0.00     0.004 A 
ATOM      9  C   UNL     1       6.348   0.264  -0.081  1.00  0.00     0.004 A 
ATOM     10  C   UNL     1       6.496  -1.326   2.119  1.00  0.00     0.000 A 
ATOM     11  C   UNL     1       7.099  -0.873  -0.134  1.00  0.00     0.000 A 
ATOM     12  C   UNL     1       7.180  -1.686   0.976  1.00  0.00     0.000 A 
ENDBRANCH   6   7
ENDBRANCH   1   6
TORSDOF 4
ENDMDL
MODEL 5
REMARK VINA RESULT:      -6.5      1.562      2.458
REMARK SMILES O=C(O)CCc1ccccc1
REMARK SMILES IDX 4 1 2 2 1 3 3 4 5 6 6 7 7 8 11 9 8 10 10 11 9 12
REMARK H PARENT 3 5
REMARK Flexibility Score: inf
ROOT
ATOM      1  C   UNL     1       8.756   0.696  -1.597  1.00  0.00     0.127 C 
ENDROOT
BRANCH   1   2
ATOM      2  C   UNL     1       9.882  -0.181  -1.197  1.00  0.00     0.303 C 
ATOM      3  O   UNL     1       9.761  -1.416  -1.213  1.00  0.00    -0.252 OA
BRANCH   2   4
ATOM      4  O   UNL     1      11.079   0.382  -0.802  1.00  0.00    -0.481 OA
ATOM      5  H   UNL     1      11.712   0.830  -1.458  1.00  0.00     0.296 HD
ENDBRANCH   2   4
ENDBRANCH   1   2
BRANCH   1   6
ATOM      6  C   UNL     1       7.460  -0.075  -1.607  1.00  0.00     0.047 C 
BRANCH   6   7
ATOM      7  C   UNL     1       6.612   0.216  -0.436  1.00  0.00    -0.047 A 
ATOM      8  C   UNL     1       5.851   1.348  -0.295  1.00  0.00     0.004 A 
ATOM      9  C   UNL     1       6.587  -0.712   0.579  1.00  0.00     0.004 A 
ATOM     10  C   UNL     1       5.086   1.539   0.839  1.00  0.00     0.000 A 
ATOM     11  C   UNL     1       5.839  -0.541   1.706  1.00  0.00     0.000 A 
ATOM     12  C   UNL     1       5.074   0.597   1.847  1.00  0.00     0.000 A 
ENDBRANCH   6   7
ENDBRANCH   1   6
TORSDOF 4
ENDMDL
