@<TRIPOS>MOLECULE
/home/cewinharhar/GITHUB/reincatalyze/data/processed/docking_pred/2023-Apr-25-1630_maxeplen5_maxtrainstep200_exh32_gamma099_lrac3e-4_lrcr1e-3/6b66a19e3843729fbb18dde59d8ef2ce5f9236cc_ligand_2.pdbqt
 12 12 0 0 0
SMALL
GASTEIGER

@<TRIPOS>ATOM
      1  C          5.4880    2.9160    0.0660 C.3     1  UNL1        0.1270
      2  C          6.2650    3.9160    0.8360 C.2     1  UNL1        0.3030
      3  O          6.9460    4.7750    0.2550 O.2     1  UNL1       -0.2520
      4  O          6.2310    3.8900    2.2170 O.3     1  UNL1       -0.4810
      5  H          5.8070    3.1260    2.7360 H       1  UNL1        0.2960
      6  C          4.8800    1.8900    0.9910 C.3     1  UNL1        0.0470
      7  C          5.6590    0.6390    1.0490 C.2     1  UNL1       -0.0470
      8  C          5.7400   -0.1700    2.1530 C.2     1  UNL1        0.0040
      9  C          6.3480    0.2640   -0.0810 C.2     1  UNL1        0.0040
     10  C          6.4960   -1.3260    2.1190 C.2     1  UNL1        0.0000
     11  C          7.0990   -0.8730   -0.1340 C.2     1  UNL1        0.0000
     12  C          7.1800   -1.6860    0.9760 C.2     1  UNL1        0.0000
@<TRIPOS>BOND
     1    11     9    1
     2    11    12    2
     3     9     7    2
     4     1     2    1
     5     1     6    1
     6     3     2    2
     7     2     4    1
     8    12    10    1
     9     6     7    1
    10     7     8    1
    11    10     8    2
    12     4     5    1
