@<TRIPOS>MOLECULE
/home/cewinharhar/GITHUB/reincatalyze/data/processed/docking_pred/2023-Apr-25-1630_maxeplen5_maxtrainstep200_exh32_gamma099_lrac3e-4_lrcr1e-3/6b66a19e3843729fbb18dde59d8ef2ce5f9236cc_ligand_2.pdbqt
 12 12 0 0 0
SMALL
GASTEIGER

@<TRIPOS>ATOM
      1  C          5.0320    1.7000    0.7250 C.3     1  UNL1        0.1270
      2  C          4.5790    1.0040    1.9530 C.2     1  UNL1        0.3030
      3  O          5.2920    0.1450    2.4950 O.2     1  UNL1       -0.2520
      4  O          3.3490    1.3150    2.5000 O.3     1  UNL1       -0.4810
      5  H          2.9060    0.7340    3.2050 H       1  UNL1        0.2960
      6  C          6.5310    1.8630    0.7300 C.3     1  UNL1        0.0470
      7  C          7.1930    1.1050   -0.3490 C.2     1  UNL1       -0.0470
      8  C          8.5250    1.2050   -0.6580 C.2     1  UNL1        0.0040
      9  C          6.4180    0.2460   -1.0920 C.2     1  UNL1        0.0040
     10  C          9.0620    0.4570   -1.6890 C.2     1  UNL1        0.0000
     11  C          6.9280   -0.5000   -2.1130 C.2     1  UNL1        0.0000
     12  C          8.2680   -0.4000   -2.4240 C.2     1  UNL1        0.0000
@<TRIPOS>BOND
     1    12    11    2
     2    12    10    1
     3    11     9    1
     4    10     8    2
     5     9     7    2
     6     8     7    1
     7     7     6    1
     8     1     6    1
     9     1     2    1
    10     2     3    2
    11     2     4    1
    12     4     5    1
