@<TRIPOS>MOLECULE
/home/cewinharhar/GITHUB/reincatalyze/data/processed/docking_pred/2023-Apr-25-1630_maxeplen5_maxtrainstep200_exh32_gamma099_lrac3e-4_lrcr1e-3/6dc168e099aae66a1c19408847f7f9495b2b5216_ligand_2.pdbqt
 12 12 0 0 0
SMALL
GASTEIGER

@<TRIPOS>ATOM
      1  C          8.2290   -1.6380    1.0940 C.3     1  UNL1        0.1270
      2  C          8.5400   -2.8670    0.3270 C.2     1  UNL1        0.3030
      3  O          9.1850   -3.7920    0.8440 O.2     1  UNL1       -0.2520
      4  O          8.1070   -2.9840   -0.9800 O.3     1  UNL1       -0.4810
      5  H          8.3560   -2.3080   -1.6970 H       1  UNL1        0.2960
      6  C          6.7440   -1.5270    1.3360 C.3     1  UNL1        0.0470
      7  C          6.1780   -0.2530    0.8500 C.2     1  UNL1       -0.0470
      8  C          5.4090    0.5890    1.6110 C.2     1  UNL1        0.0040
      9  C          6.4420    0.1060   -0.4500 C.2     1  UNL1        0.0040
     10  C          4.9180    1.7640    1.0730 C.2     1  UNL1        0.0000
     11  C          5.9670    1.2600   -1.0000 C.2     1  UNL1        0.0000
     12  C          5.1940    2.1080   -0.2360 C.2     1  UNL1        0.0000
@<TRIPOS>BOND
     1     5     4    1
     2    11     9    1
     3    11    12    2
     4     4     2    1
     5     9     7    2
     6    12    10    1
     7     2     3    2
     8     2     1    1
     9     7     6    1
    10     7     8    1
    11    10     8    2
    12     1     6    1
