@<TRIPOS>MOLECULE
/home/cewinharhar/GITHUB/reincatalyze/data/processed/docking_pred/2023-Apr-25-1630_maxeplen5_maxtrainstep200_exh32_gamma099_lrac3e-4_lrcr1e-3/6dc168e099aae66a1c19408847f7f9495b2b5216_ligand_2.pdbqt
 12 12 0 0 0
SMALL
GASTEIGER

@<TRIPOS>ATOM
      1  C          8.2890    0.3350   -1.9890 C.3     1  UNL1        0.1270
      2  C          9.4680    0.3990   -1.0940 C.2     1  UNL1        0.3030
      3  O          9.5560   -0.3460   -0.1050 O.2     1  UNL1       -0.2520
      4  O         10.4820    1.2980   -1.3630 O.3     1  UNL1       -0.4810
      5  H         10.2980    2.2380   -1.7010 H       1  UNL1        0.2960
      6  C          7.2140   -0.5360   -1.3890 C.3     1  UNL1        0.0470
      7  C          6.3800    0.1810   -0.4050 C.2     1  UNL1       -0.0470
      8  C          5.8020    1.4040   -0.6280 C.2     1  UNL1        0.0040
      9  C          6.1740   -0.4210    0.8140 C.2     1  UNL1        0.0040
     10  C          5.0350    2.0040    0.3530 C.2     1  UNL1        0.0000
     11  C          5.4220    0.1550    1.7950 C.2     1  UNL1        0.0000
     12  C          4.8390    1.3840    1.5710 C.2     1  UNL1        0.0000
@<TRIPOS>BOND
     1     1     6    1
     2     1     2    1
     3     5     4    1
     4     6     7    1
     5     4     2    1
     6     2     3    2
     7     8     7    2
     8     8    10    1
     9     7     9    1
    10    10    12    2
    11     9    11    2
    12    12    11    1
