@<TRIPOS>MOLECULE
/home/cewinharhar/GITHUB/reincatalyze/data/processed/docking_pred/2023-Apr-25-1630_maxeplen5_maxtrainstep200_exh32_gamma099_lrac3e-4_lrcr1e-3/6dc168e099aae66a1c19408847f7f9495b2b5216_ligand_2.pdbqt
 12 12 0 0 0
SMALL
GASTEIGER

@<TRIPOS>ATOM
      1  C          5.0200    1.8080    0.7650 C.3     1  UNL1        0.1270
      2  C          4.4790    1.0990    1.9480 C.2     1  UNL1        0.3030
      3  O          5.1190    0.1830    2.4880 O.2     1  UNL1       -0.2520
      4  O          3.2470    1.4620    2.4570 O.3     1  UNL1       -0.4810
      5  H          2.3770    1.0720    2.1040 H       1  UNL1        0.2960
      6  C          6.5280    1.7890    0.7790 C.3     1  UNL1        0.0470
      7  C          7.1010    1.0000   -0.3290 C.2     1  UNL1       -0.0470
      8  C          6.4120    0.0490   -1.0360 C.2     1  UNL1        0.0040
      9  C          8.4110    1.2380   -0.6700 C.2     1  UNL1        0.0040
     10  C          7.0280   -0.6440   -2.0600 C.2     1  UNL1        0.0000
     11  C          9.0380    0.5650   -1.6760 C.2     1  UNL1        0.0000
     12  C          8.3450   -0.3920   -2.3880 C.2     1  UNL1        0.0000
@<TRIPOS>BOND
     1    12    10    2
     2    12    11    1
     3    10     8    1
     4    11     9    2
     5     8     7    2
     6     9     7    1
     7     7     6    1
     8     1     6    1
     9     1     2    1
    10     2     4    1
    11     2     3    2
    12     5     4    1
