MODEL 1
REMARK VINA RESULT:      -7.4      0.000      0.000
REMARK SMILES O=C(O)CCc1ccccc1
REMARK SMILES IDX 4 1 2 2 1 3 3 4 5 6 6 7 7 8 11 9 8 10 10 11 9 12
REMARK H PARENT 3 5
REMARK Flexibility Score: inf
ROOT
ATOM      1  C   UNL     1       8.459  -0.652  -2.128  1.00  0.00     0.127 C 
ENDROOT
BRANCH   1   2
ATOM      2  C   UNL     1       8.495  -1.912  -2.908  1.00  0.00     0.303 C 
ATOM      3  O   UNL     1       9.567  -2.504  -3.110  1.00  0.00    -0.252 OA
BRANCH   2   4
ATOM      4  O   UNL     1       7.321  -2.433  -3.418  1.00  0.00    -0.481 OA
ATOM      5  H   UNL     1       7.215  -3.419  -3.637  1.00  0.00     0.296 HD
ENDBRANCH   2   4
ENDBRANCH   1   2
BRANCH   1   6
ATOM      6  C   UNL     1       7.066  -0.073  -2.120  1.00  0.00     0.047 C 
BRANCH   6   7
ATOM      7  C   UNL     1       6.505   0.049  -0.762  1.00  0.00    -0.047 A 
ATOM      8  C   UNL     1       6.597  -0.923   0.202  1.00  0.00     0.004 A 
ATOM      9  C   UNL     1       5.845   1.213  -0.447  1.00  0.00     0.004 A 
ATOM     10  C   UNL     1       6.040  -0.724   1.450  1.00  0.00     0.000 A 
ATOM     11  C   UNL     1       5.287   1.428   0.779  1.00  0.00     0.000 A 
ATOM     12  C   UNL     1       5.381   0.452   1.748  1.00  0.00     0.000 A 
ENDBRANCH   6   7
ENDBRANCH   1   6
TORSDOF 4
ENDMDL
MODEL 2
REMARK VINA RESULT:      -7.3      0.116      1.429
REMARK SMILES O=C(O)CCc1ccccc1
REMARK SMILES IDX 4 1 2 2 1 3 3 4 5 6 6 7 7 8 11 9 8 10 10 11 9 12
REMARK H PARENT 3 5
REMARK Flexibility Score: inf
ROOT
ATOM      1  C   UNL     1       8.421  -0.650  -2.125  1.00  0.00     0.127 C 
ENDROOT
BRANCH   1   2
ATOM      2  C   UNL     1       8.471  -1.914  -2.897  1.00  0.00     0.303 C 
ATOM      3  O   UNL     1       9.549  -2.499  -3.090  1.00  0.00    -0.252 OA
BRANCH   2   4
ATOM      4  O   UNL     1       7.304  -2.448  -3.409  1.00  0.00    -0.481 OA
ATOM      5  H   UNL     1       7.006  -2.283  -4.366  1.00  0.00     0.296 HD
ENDBRANCH   2   4
ENDBRANCH   1   2
BRANCH   1   6
ATOM      6  C   UNL     1       7.027  -0.074  -2.141  1.00  0.00     0.047 C 
BRANCH   6   7
ATOM      7  C   UNL     1       6.465   0.104  -0.789  1.00  0.00    -0.047 A 
ATOM      8  C   UNL     1       5.818   1.236  -0.364  1.00  0.00     0.004 A 
ATOM      9  C   UNL     1       6.602  -0.936   0.100  1.00  0.00     0.004 A 
ATOM     10  C   UNL     1       5.323   1.316   0.923  1.00  0.00     0.000 A 
ATOM     11  C   UNL     1       6.121  -0.877   1.374  1.00  0.00     0.000 A 
ATOM     12  C   UNL     1       5.470   0.261   1.801  1.00  0.00     0.000 A 
ENDBRANCH   6   7
ENDBRANCH   1   6
TORSDOF 4
ENDMDL
MODEL 3
REMARK VINA RESULT:      -6.8      3.372      5.074
REMARK SMILES O=C(O)CCc1ccccc1
REMARK SMILES IDX 4 1 2 2 1 3 3 4 5 6 6 7 7 8 11 9 8 10 10 11 9 12
REMARK H PARENT 3 5
REMARK Flexibility Score: inf
ROOT
ATOM      1  C   UNL     1       5.020   1.808   0.765  1.00  0.00     0.127 C 
ENDROOT
BRANCH   1   2
ATOM      2  C   UNL     1       4.479   1.099   1.948  1.00  0.00     0.303 C 
ATOM      3  O   UNL     1       5.119   0.183   2.488  1.00  0.00    -0.252 OA
BRANCH   2   4
ATOM      4  O   UNL     1       3.247   1.462   2.457  1.00  0.00    -0.481 OA
ATOM      5  H   UNL     1       2.377   1.072   2.104  1.00  0.00     0.296 HD
ENDBRANCH   2   4
ENDBRANCH   1   2
BRANCH   1   6
ATOM      6  C   UNL     1       6.528   1.789   0.779  1.00  0.00     0.047 C 
BRANCH   6   7
ATOM      7  C   UNL     1       7.101   1.000  -0.329  1.00  0.00    -0.047 A 
ATOM      8  C   UNL     1       6.412   0.049  -1.036  1.00  0.00     0.004 A 
ATOM      9  C   UNL     1       8.411   1.238  -0.670  1.00  0.00     0.004 A 
ATOM     10  C   UNL     1       7.028  -0.644  -2.060  1.00  0.00     0.000 A 
ATOM     11  C   UNL     1       9.038   0.565  -1.676  1.00  0.00     0.000 A 
ATOM     12  C   UNL     1       8.345  -0.392  -2.388  1.00  0.00     0.000 A 
ENDBRANCH   6   7
ENDBRANCH   1   6
TORSDOF 4
ENDMDL
MODEL 4
REMARK VINA RESULT:      -6.6      1.997      2.662
REMARK SMILES O=C(O)CCc1ccccc1
REMARK SMILES IDX 4 1 2 2 1 3 3 4 5 6 6 7 7 8 11 9 8 10 10 11 9 12
REMARK H PARENT 3 5
REMARK Flexibility Score: inf
ROOT
ATOM      1  C   UNL     1       8.289   0.335  -1.989  1.00  0.00     0.127 C 
ENDROOT
BRANCH   1   2
ATOM      2  C   UNL     1       9.468   0.399  -1.094  1.00  0.00     0.303 C 
ATOM      3  O   UNL     1       9.556  -0.346  -0.105  1.00  0.00    -0.252 OA
BRANCH   2   4
ATOM      4  O   UNL     1      10.482   1.298  -1.363  1.00  0.00    -0.481 OA
ATOM      5  H   UNL     1      10.298   2.238  -1.701  1.00  0.00     0.296 HD
ENDBRANCH   2   4
ENDBRANCH   1   2
BRANCH   1   6
ATOM      6  C   UNL     1       7.214  -0.536  -1.389  1.00  0.00     0.047 C 
BRANCH   6   7
ATOM      7  C   UNL     1       6.380   0.181  -0.405  1.00  0.00    -0.047 A 
ATOM      8  C   UNL     1       5.802   1.404  -0.628  1.00  0.00     0.004 A 
ATOM      9  C   UNL     1       6.174  -0.421   0.814  1.00  0.00     0.004 A 
ATOM     10  C   UNL     1       5.035   2.004   0.353  1.00  0.00     0.000 A 
ATOM     11  C   UNL     1       5.422   0.155   1.795  1.00  0.00     0.000 A 
ATOM     12  C   UNL     1       4.839   1.384   1.571  1.00  0.00     0.000 A 
ENDBRANCH   6   7
ENDBRANCH   1   6
TORSDOF 4
ENDMDL
MODEL 5
REMARK VINA RESULT:      -6.6      1.899      2.849
REMARK SMILES O=C(O)CCc1ccccc1
REMARK SMILES IDX 4 1 2 2 1 3 3 4 5 6 6 7 7 8 11 9 8 10 10 11 9 12
REMARK H PARENT 3 5
REMARK Flexibility Score: inf
ROOT
ATOM      1  C   UNL     1       8.229  -1.638   1.094  1.00  0.00     0.127 C 
ENDROOT
BRANCH   1   2
ATOM      2  C   UNL     1       8.540  -2.867   0.327  1.00  0.00     0.303 C 
ATOM      3  O   UNL     1       9.185  -3.792   0.844  1.00  0.00    -0.252 OA
BRANCH   2   4
ATOM      4  O   UNL     1       8.107  -2.984  -0.980  1.00  0.00    -0.481 OA
ATOM      5  H   UNL     1       8.356  -2.308  -1.697  1.00  0.00     0.296 HD
ENDBRANCH   2   4
ENDBRANCH   1   2
BRANCH   1   6
ATOM      6  C   UNL     1       6.744  -1.527   1.336  1.00  0.00     0.047 C 
BRANCH   6   7
ATOM      7  C   UNL     1       6.178  -0.253   0.850  1.00  0.00    -0.047 A 
ATOM      8  C   UNL     1       5.409   0.589   1.611  1.00  0.00     0.004 A 
ATOM      9  C   UNL     1       6.442   0.106  -0.450  1.00  0.00     0.004 A 
ATOM     10  C   UNL     1       4.918   1.764   1.073  1.00  0.00     0.000 A 
ATOM     11  C   UNL     1       5.967   1.260  -1.000  1.00  0.00     0.000 A 
ATOM     12  C   UNL     1       5.194   2.108  -0.236  1.00  0.00     0.000 A 
ENDBRANCH   6   7
ENDBRANCH   1   6
TORSDOF 4
ENDMDL
