@<TRIPOS>MOLECULE
/home/cewinharhar/GITHUB/reincatalyze/data/processed/docking_pred/2023-Apr-25-1630_maxeplen5_maxtrainstep200_exh32_gamma099_lrac3e-4_lrcr1e-3/6dc168e099aae66a1c19408847f7f9495b2b5216_ligand_2.pdbqt
 12 12 0 0 0
SMALL
GASTEIGER

@<TRIPOS>ATOM
      1  C          8.4210   -0.6500   -2.1250 C.3     1  UNL1        0.1270
      2  C          8.4710   -1.9140   -2.8970 C.2     1  UNL1        0.3030
      3  O          9.5490   -2.4990   -3.0900 O.2     1  UNL1       -0.2520
      4  O          7.3040   -2.4480   -3.4090 O.3     1  UNL1       -0.4810
      5  H          7.0060   -2.2830   -4.3660 H       1  UNL1        0.2960
      6  C          7.0270   -0.0740   -2.1410 C.3     1  UNL1        0.0470
      7  C          6.4650    0.1040   -0.7890 C.2     1  UNL1       -0.0470
      8  C          5.8180    1.2360   -0.3640 C.2     1  UNL1        0.0040
      9  C          6.6020   -0.9360    0.1000 C.2     1  UNL1        0.0040
     10  C          5.3230    1.3160    0.9230 C.2     1  UNL1        0.0000
     11  C          6.1210   -0.8770    1.3740 C.2     1  UNL1        0.0000
     12  C          5.4700    0.2610    1.8010 C.2     1  UNL1        0.0000
@<TRIPOS>BOND
     1     5     4    1
     2     4     2    1
     3     3     2    2
     4     2     1    1
     5     6     1    1
     6     6     7    1
     7     7     8    2
     8     7     9    1
     9     8    10    1
    10     9    11    2
    11    10    12    2
    12    11    12    1
