@<TRIPOS>MOLECULE
/home/cewinharhar/GITHUB/reincatalyze/data/processed/docking_pred/2023-Apr-25-1630_maxeplen5_maxtrainstep200_exh32_gamma099_lrac3e-4_lrcr1e-3/6dc168e099aae66a1c19408847f7f9495b2b5216_ligand_2.pdbqt
 12 12 0 0 0
SMALL
GASTEIGER

@<TRIPOS>ATOM
      1  C          8.4590   -0.6520   -2.1280 C.3     1  UNL1        0.1270
      2  C          8.4950   -1.9120   -2.9080 C.2     1  UNL1        0.3030
      3  O          9.5670   -2.5040   -3.1100 O.2     1  UNL1       -0.2520
      4  O          7.3210   -2.4330   -3.4180 O.3     1  UNL1       -0.4810
      5  H          7.2150   -3.4190   -3.6370 H       1  UNL1        0.2960
      6  C          7.0660   -0.0730   -2.1200 C.3     1  UNL1        0.0470
      7  C          6.5050    0.0490   -0.7620 C.2     1  UNL1       -0.0470
      8  C          6.5970   -0.9230    0.2020 C.2     1  UNL1        0.0040
      9  C          5.8450    1.2130   -0.4470 C.2     1  UNL1        0.0040
     10  C          6.0400   -0.7240    1.4500 C.2     1  UNL1        0.0000
     11  C          5.2870    1.4280    0.7790 C.2     1  UNL1        0.0000
     12  C          5.3810    0.4520    1.7480 C.2     1  UNL1        0.0000
@<TRIPOS>BOND
     1     5     4    1
     2     4     2    1
     3     3     2    2
     4     2     1    1
     5     1     6    1
     6     6     7    1
     7     7     9    2
     8     7     8    1
     9     9    11    1
    10     8    10    2
    11    11    12    2
    12    10    12    1
