@<TRIPOS>MOLECULE
/home/cewinharhar/GITHUB/reincatalyze/data/processed/docking_pred/2023-Apr-25-1630_maxeplen5_maxtrainstep200_exh32_gamma099_lrac3e-4_lrcr1e-3/6e01533e6265e20f53eb8495178921d7241890ed_ligand_2.pdbqt
 12 12 0 0 0
SMALL
GASTEIGER

@<TRIPOS>ATOM
      1  C          8.4250   -0.6280   -2.1530 C.3     1  UNL1        0.1270
      2  C          8.5030   -1.8970   -2.9150 C.2     1  UNL1        0.3030
      3  O          9.5880   -2.4770   -3.0730 O.2     1  UNL1       -0.2520
      4  O          7.3530   -2.4390   -3.4570 O.3     1  UNL1       -0.4810
      5  H          7.1370   -3.4300   -3.3920 H       1  UNL1        0.2960
      6  C          7.0160   -0.0900   -2.1620 C.3     1  UNL1        0.0470
      7  C          6.4590    0.0810   -0.8070 C.2     1  UNL1       -0.0470
      8  C          5.8030    1.2060   -0.3780 C.2     1  UNL1        0.0040
      9  C          6.6120   -0.9580    0.0800 C.2     1  UNL1        0.0040
     10  C          5.3140    1.2810    0.9120 C.2     1  UNL1        0.0000
     11  C          6.1370   -0.9040    1.3580 C.2     1  UNL1        0.0000
     12  C          5.4770    0.2270    1.7890 C.2     1  UNL1        0.0000
@<TRIPOS>BOND
     1     4     5    1
     2     4     2    1
     3     3     2    2
     4     2     1    1
     5     6     1    1
     6     6     7    1
     7     7     8    2
     8     7     9    1
     9     8    10    1
    10     9    11    2
    11    10    12    2
    12    11    12    1
