@<TRIPOS>MOLECULE
/home/cewinharhar/GITHUB/reincatalyze/data/processed/docking_pred/2023-Apr-25-1630_maxeplen5_maxtrainstep200_exh32_gamma099_lrac3e-4_lrcr1e-3/6e01533e6265e20f53eb8495178921d7241890ed_ligand_2.pdbqt
 12 12 0 0 0
SMALL
GASTEIGER

@<TRIPOS>ATOM
      1  C          8.3940   -0.6330   -2.1530 C.3     1  UNL1        0.1270
      2  C          8.4570   -1.9110   -2.9010 C.2     1  UNL1        0.3030
      3  O          9.5350   -2.5060   -3.0530 O.2     1  UNL1       -0.2520
      4  O          7.3010   -2.4460   -3.4360 O.3     1  UNL1       -0.4810
      5  H          7.2840   -2.9060   -4.3420 H       1  UNL1        0.2960
      6  C          6.9770   -0.1180   -2.1020 C.3     1  UNL1        0.0470
      7  C          6.4590   -0.0020   -0.7250 C.2     1  UNL1       -0.0470
      8  C          6.5620   -0.9870    0.2240 C.2     1  UNL1        0.0040
      9  C          5.8330    1.1700   -0.3760 C.2     1  UNL1        0.0040
     10  C          6.0470   -0.7930    1.4910 C.2     1  UNL1        0.0000
     11  C          5.3170    1.3810    0.8690 C.2     1  UNL1        0.0000
     12  C          5.4210    0.3920    1.8230 C.2     1  UNL1        0.0000
@<TRIPOS>BOND
     1     5     4    1
     2     4     2    1
     3     3     2    2
     4     2     1    1
     5     1     6    1
     6     6     7    1
     7     7     9    2
     8     7     8    1
     9     9    11    1
    10     8    10    2
    11    11    12    2
    12    10    12    1
