@<TRIPOS>MOLECULE
/home/cewinharhar/GITHUB/reincatalyze/data/processed/docking_pred/2023-Apr-25-1630_maxeplen5_maxtrainstep200_exh32_gamma099_lrac3e-4_lrcr1e-3/6e01533e6265e20f53eb8495178921d7241890ed_ligand_2.pdbqt
 12 12 0 0 0
SMALL
GASTEIGER

@<TRIPOS>ATOM
      1  C          8.1400   -0.8750   -1.9540 C.3     1  UNL1        0.1270
      2  C          8.3560   -2.0100   -2.8820 C.2     1  UNL1        0.3030
      3  O          9.4940   -2.4670   -3.0720 O.2     1  UNL1       -0.2520
      4  O          7.2780   -2.5660   -3.5430 O.3     1  UNL1       -0.4810
      5  H          7.3810   -3.0830   -4.4110 H       1  UNL1        0.2960
      6  C          7.5250   -1.3540   -0.6630 C.3     1  UNL1        0.0470
      7  C          6.6400   -0.3500   -0.0430 C.2     1  UNL1       -0.0470
      8  C          6.1480   -0.4380    1.2340 C.2     1  UNL1        0.0040
      9  C          6.2880    0.7430   -0.7990 C.2     1  UNL1        0.0040
     10  C          5.3240    0.5500    1.7350 C.2     1  UNL1        0.0000
     11  C          5.4750    1.7290   -0.3230 C.2     1  UNL1        0.0000
     12  C          4.9810    1.6410    0.9610 C.2     1  UNL1        0.0000
@<TRIPOS>BOND
     1     5     4    1
     2     4     2    1
     3     3     2    2
     4     2     1    1
     5     1     6    1
     6     9    11    1
     7     9     7    2
     8     6     7    1
     9    11    12    2
    10     7     8    1
    11    12    10    1
    12     8    10    2
