@<TRIPOS>MOLECULE
/home/cewinharhar/GITHUB/reincatalyze/data/processed/docking_pred/2023-Apr-25-1630_maxeplen5_maxtrainstep200_exh32_gamma099_lrac3e-4_lrcr1e-3/6e01533e6265e20f53eb8495178921d7241890ed_ligand_2.pdbqt
 12 12 0 0 0
SMALL
GASTEIGER

@<TRIPOS>ATOM
      1  C          5.0010    1.7910    0.7410 C.3     1  UNL1        0.1270
      2  C          4.4760    1.0950    1.9400 C.2     1  UNL1        0.3030
      3  O          5.1250    0.1870    2.4820 O.2     1  UNL1       -0.2520
      4  O          3.2480    1.4600    2.4580 O.3     1  UNL1       -0.4810
      5  H          3.0250    1.3620    3.4450 H       1  UNL1        0.2960
      6  C          6.5090    1.8070    0.7560 C.3     1  UNL1        0.0470
      7  C          7.1010    1.0090   -0.3350 C.2     1  UNL1       -0.0470
      8  C          6.4230    0.0540   -1.0480 C.2     1  UNL1        0.0040
      9  C          8.4180    1.2420   -0.6530 C.2     1  UNL1        0.0040
     10  C          7.0570   -0.6470   -2.0560 C.2     1  UNL1        0.0000
     11  C          9.0620    0.5610   -1.6430 C.2     1  UNL1        0.0000
     12  C          8.3810   -0.3990   -2.3610 C.2     1  UNL1        0.0000
@<TRIPOS>BOND
     1    12    10    2
     2    12    11    1
     3    10     8    1
     4    11     9    2
     5     8     7    2
     6     9     7    1
     7     7     6    1
     8     1     6    1
     9     1     2    1
    10     2     4    1
    11     2     3    2
    12     4     5    1
