@<TRIPOS>MOLECULE
/home/cewinharhar/GITHUB/reincatalyze/data/processed/docking_pred/2023-Apr-25-1630_maxeplen5_maxtrainstep200_exh32_gamma099_lrac3e-4_lrcr1e-3/6e01533e6265e20f53eb8495178921d7241890ed_ligand_2.pdbqt
 12 12 0 0 0
SMALL
GASTEIGER

@<TRIPOS>ATOM
      1  C          8.1640   -1.5490    1.0650 C.3     1  UNL1        0.1270
      2  C          8.4730   -2.7880    0.3130 C.2     1  UNL1        0.3030
      3  O          9.0950   -3.7180    0.8490 O.2     1  UNL1       -0.2520
      4  O          8.0640   -2.9080   -1.0010 O.3     1  UNL1       -0.4810
      5  H          8.6970   -3.1900   -1.7440 H       1  UNL1        0.2960
      6  C          6.6800   -1.4340    1.3100 C.3     1  UNL1        0.0470
      7  C          6.1170   -0.1570    0.8290 C.2     1  UNL1       -0.0470
      8  C          5.3480    0.6840    1.5920 C.2     1  UNL1        0.0040
      9  C          6.3830    0.2070   -0.4700 C.2     1  UNL1        0.0040
     10  C          4.8610    1.8610    1.0580 C.2     1  UNL1        0.0000
     11  C          5.9110    1.3640   -1.0150 C.2     1  UNL1        0.0000
     12  C          5.1390    2.2100   -0.2490 C.2     1  UNL1        0.0000
@<TRIPOS>BOND
     1     5     4    1
     2    11     9    1
     3    11    12    2
     4     4     2    1
     5     9     7    2
     6    12    10    1
     7     2     3    2
     8     2     1    1
     9     7     6    1
    10     7     8    1
    11    10     8    2
    12     1     6    1
