MODEL 1
REMARK VINA RESULT:      -7.3      0.000      0.000
REMARK SMILES O=C(O)CCc1ccccc1
REMARK SMILES IDX 4 1 2 2 1 3 3 4 5 6 6 7 7 8 11 9 8 10 10 11 9 12
REMARK H PARENT 3 5
REMARK Flexibility Score: inf
ROOT
ATOM      1  C   UNL     1       8.425  -0.628  -2.153  1.00  0.00     0.127 C 
ENDROOT
BRANCH   1   2
ATOM      2  C   UNL     1       8.503  -1.897  -2.915  1.00  0.00     0.303 C 
ATOM      3  O   UNL     1       9.588  -2.477  -3.073  1.00  0.00    -0.252 OA
BRANCH   2   4
ATOM      4  O   UNL     1       7.353  -2.439  -3.457  1.00  0.00    -0.481 OA
ATOM      5  H   UNL     1       7.137  -3.430  -3.392  1.00  0.00     0.296 HD
ENDBRANCH   2   4
ENDBRANCH   1   2
BRANCH   1   6
ATOM      6  C   UNL     1       7.016  -0.090  -2.162  1.00  0.00     0.047 C 
BRANCH   6   7
ATOM      7  C   UNL     1       6.459   0.081  -0.807  1.00  0.00    -0.047 A 
ATOM      8  C   UNL     1       5.803   1.206  -0.378  1.00  0.00     0.004 A 
ATOM      9  C   UNL     1       6.612  -0.958   0.080  1.00  0.00     0.004 A 
ATOM     10  C   UNL     1       5.314   1.281   0.912  1.00  0.00     0.000 A 
ATOM     11  C   UNL     1       6.137  -0.904   1.358  1.00  0.00     0.000 A 
ATOM     12  C   UNL     1       5.477   0.227   1.789  1.00  0.00     0.000 A 
ENDBRANCH   6   7
ENDBRANCH   1   6
TORSDOF 4
ENDMDL
MODEL 2
REMARK VINA RESULT:      -7.3      0.112      1.429
REMARK SMILES O=C(O)CCc1ccccc1
REMARK SMILES IDX 4 1 2 2 1 3 3 4 5 6 6 7 7 8 11 9 8 10 10 11 9 12
REMARK H PARENT 3 5
REMARK Flexibility Score: inf
ROOT
ATOM      1  C   UNL     1       8.394  -0.633  -2.153  1.00  0.00     0.127 C 
ENDROOT
BRANCH   1   2
ATOM      2  C   UNL     1       8.457  -1.911  -2.901  1.00  0.00     0.303 C 
ATOM      3  O   UNL     1       9.535  -2.506  -3.053  1.00  0.00    -0.252 OA
BRANCH   2   4
ATOM      4  O   UNL     1       7.301  -2.446  -3.436  1.00  0.00    -0.481 OA
ATOM      5  H   UNL     1       7.284  -2.906  -4.342  1.00  0.00     0.296 HD
ENDBRANCH   2   4
ENDBRANCH   1   2
BRANCH   1   6
ATOM      6  C   UNL     1       6.977  -0.118  -2.102  1.00  0.00     0.047 C 
BRANCH   6   7
ATOM      7  C   UNL     1       6.459  -0.002  -0.725  1.00  0.00    -0.047 A 
ATOM      8  C   UNL     1       6.562  -0.987   0.224  1.00  0.00     0.004 A 
ATOM      9  C   UNL     1       5.833   1.170  -0.376  1.00  0.00     0.004 A 
ATOM     10  C   UNL     1       6.047  -0.793   1.491  1.00  0.00     0.000 A 
ATOM     11  C   UNL     1       5.317   1.381   0.869  1.00  0.00     0.000 A 
ATOM     12  C   UNL     1       5.421   0.392   1.823  1.00  0.00     0.000 A 
ENDBRANCH   6   7
ENDBRANCH   1   6
TORSDOF 4
ENDMDL
MODEL 3
REMARK VINA RESULT:      -7.2      0.605      1.615
REMARK SMILES O=C(O)CCc1ccccc1
REMARK SMILES IDX 4 1 2 2 1 3 3 4 5 6 6 7 7 8 11 9 8 10 10 11 9 12
REMARK H PARENT 3 5
REMARK Flexibility Score: inf
ROOT
ATOM      1  C   UNL     1       8.140  -0.875  -1.954  1.00  0.00     0.127 C 
ENDROOT
BRANCH   1   2
ATOM      2  C   UNL     1       8.356  -2.010  -2.882  1.00  0.00     0.303 C 
ATOM      3  O   UNL     1       9.494  -2.467  -3.072  1.00  0.00    -0.252 OA
BRANCH   2   4
ATOM      4  O   UNL     1       7.278  -2.566  -3.543  1.00  0.00    -0.481 OA
ATOM      5  H   UNL     1       7.381  -3.083  -4.411  1.00  0.00     0.296 HD
ENDBRANCH   2   4
ENDBRANCH   1   2
BRANCH   1   6
ATOM      6  C   UNL     1       7.525  -1.354  -0.663  1.00  0.00     0.047 C 
BRANCH   6   7
ATOM      7  C   UNL     1       6.640  -0.350  -0.043  1.00  0.00    -0.047 A 
ATOM      8  C   UNL     1       6.148  -0.438   1.234  1.00  0.00     0.004 A 
ATOM      9  C   UNL     1       6.288   0.743  -0.799  1.00  0.00     0.004 A 
ATOM     10  C   UNL     1       5.324   0.550   1.735  1.00  0.00     0.000 A 
ATOM     11  C   UNL     1       5.475   1.729  -0.323  1.00  0.00     0.000 A 
ATOM     12  C   UNL     1       4.981   1.641   0.961  1.00  0.00     0.000 A 
ENDBRANCH   6   7
ENDBRANCH   1   6
TORSDOF 4
ENDMDL
MODEL 4
REMARK VINA RESULT:      -6.8      3.402      5.095
REMARK SMILES O=C(O)CCc1ccccc1
REMARK SMILES IDX 4 1 2 2 1 3 3 4 5 6 6 7 7 8 11 9 8 10 10 11 9 12
REMARK H PARENT 3 5
REMARK Flexibility Score: inf
ROOT
ATOM      1  C   UNL     1       5.001   1.791   0.741  1.00  0.00     0.127 C 
ENDROOT
BRANCH   1   2
ATOM      2  C   UNL     1       4.476   1.095   1.940  1.00  0.00     0.303 C 
ATOM      3  O   UNL     1       5.125   0.187   2.482  1.00  0.00    -0.252 OA
BRANCH   2   4
ATOM      4  O   UNL     1       3.248   1.460   2.458  1.00  0.00    -0.481 OA
ATOM      5  H   UNL     1       3.025   1.362   3.445  1.00  0.00     0.296 HD
ENDBRANCH   2   4
ENDBRANCH   1   2
BRANCH   1   6
ATOM      6  C   UNL     1       6.509   1.807   0.756  1.00  0.00     0.047 C 
BRANCH   6   7
ATOM      7  C   UNL     1       7.101   1.009  -0.335  1.00  0.00    -0.047 A 
ATOM      8  C   UNL     1       6.423   0.054  -1.048  1.00  0.00     0.004 A 
ATOM      9  C   UNL     1       8.418   1.242  -0.653  1.00  0.00     0.004 A 
ATOM     10  C   UNL     1       7.057  -0.647  -2.056  1.00  0.00     0.000 A 
ATOM     11  C   UNL     1       9.062   0.561  -1.643  1.00  0.00     0.000 A 
ATOM     12  C   UNL     1       8.381  -0.399  -2.361  1.00  0.00     0.000 A 
ENDBRANCH   6   7
ENDBRANCH   1   6
TORSDOF 4
ENDMDL
MODEL 5
REMARK VINA RESULT:      -6.6      1.889      2.843
REMARK SMILES O=C(O)CCc1ccccc1
REMARK SMILES IDX 4 1 2 2 1 3 3 4 5 6 6 7 7 8 11 9 8 10 10 11 9 12
REMARK H PARENT 3 5
REMARK Flexibility Score: inf
ROOT
ATOM      1  C   UNL     1       8.164  -1.549   1.065  1.00  0.00     0.127 C 
ENDROOT
BRANCH   1   2
ATOM      2  C   UNL     1       8.473  -2.788   0.313  1.00  0.00     0.303 C 
ATOM      3  O   UNL     1       9.095  -3.718   0.849  1.00  0.00    -0.252 OA
BRANCH   2   4
ATOM      4  O   UNL     1       8.064  -2.908  -1.001  1.00  0.00    -0.481 OA
ATOM      5  H   UNL     1       8.697  -3.190  -1.744  1.00  0.00     0.296 HD
ENDBRANCH   2   4
ENDBRANCH   1   2
BRANCH   1   6
ATOM      6  C   UNL     1       6.680  -1.434   1.310  1.00  0.00     0.047 C 
BRANCH   6   7
ATOM      7  C   UNL     1       6.117  -0.157   0.829  1.00  0.00    -0.047 A 
ATOM      8  C   UNL     1       5.348   0.684   1.592  1.00  0.00     0.004 A 
ATOM      9  C   UNL     1       6.383   0.207  -0.470  1.00  0.00     0.004 A 
ATOM     10  C   UNL     1       4.861   1.861   1.058  1.00  0.00     0.000 A 
ATOM     11  C   UNL     1       5.911   1.364  -1.015  1.00  0.00     0.000 A 
ATOM     12  C   UNL     1       5.139   2.210  -0.249  1.00  0.00     0.000 A 
ENDBRANCH   6   7
ENDBRANCH   1   6
TORSDOF 4
ENDMDL
