@<TRIPOS>MOLECULE
/home/cewinharhar/GITHUB/reincatalyze/data/processed/docking_pred/2023-Apr-25-1630_maxeplen5_maxtrainstep200_exh32_gamma099_lrac3e-4_lrcr1e-3/6e6a373552f8835a6ba7a6c6fa001d8bbefa4498_ligand_2.pdbqt
 12 12 0 0 0
SMALL
GASTEIGER

@<TRIPOS>ATOM
      1  C          8.3240    0.3790   -2.0290 C.3     1  UNL1        0.1270
      2  C          9.4710    0.4240   -1.0910 C.2     1  UNL1        0.3030
      3  O          9.5360   -0.3580   -0.1300 O.2     1  UNL1       -0.2520
      4  O         10.4790    1.3470   -1.2890 O.3     1  UNL1       -0.4810
      5  H         10.3530    2.3380   -1.1010 H       1  UNL1        0.2960
      6  C          7.2190   -0.4860   -1.4750 C.3     1  UNL1        0.0470
      7  C          6.4010    0.2090   -0.4620 C.2     1  UNL1       -0.0470
      8  C          5.8090    1.4300   -0.6540 C.2     1  UNL1        0.0040
      9  C          6.2260   -0.4130    0.7510 C.2     1  UNL1        0.0040
     10  C          5.0590    2.0090    0.3520 C.2     1  UNL1        0.0000
     11  C          5.4910    0.1410    1.7570 C.2     1  UNL1        0.0000
     12  C          4.8940    1.3690    1.5640 C.2     1  UNL1        0.0000
@<TRIPOS>BOND
     1     1     6    1
     2     1     2    1
     3     6     7    1
     4     4     5    1
     5     4     2    1
     6     2     3    2
     7     8     7    2
     8     8    10    1
     9     7     9    1
    10    10    12    2
    11     9    11    2
    12    12    11    1
