@<TRIPOS>MOLECULE
/home/cewinharhar/GITHUB/reincatalyze/data/processed/docking_pred/2023-Apr-25-1630_maxeplen5_maxtrainstep200_exh32_gamma099_lrac3e-4_lrcr1e-3/6e6a373552f8835a6ba7a6c6fa001d8bbefa4498_ligand_2.pdbqt
 12 12 0 0 0
SMALL
GASTEIGER

@<TRIPOS>ATOM
      1  C          8.3880   -0.5490   -2.2770 C.3     1  UNL1        0.1270
      2  C          8.4500   -1.8740   -2.9370 C.2     1  UNL1        0.3030
      3  O          9.5330   -2.4620   -3.0820 O.2     1  UNL1       -0.2520
      4  O          7.2870   -2.4630   -3.3960 O.3     1  UNL1       -0.4810
      5  H          7.1900   -2.8020   -4.3490 H       1  UNL1        0.2960
      6  C          6.9630   -0.0610   -2.1990 C.3     1  UNL1        0.0470
      7  C          6.4660    0.0360   -0.8130 C.2     1  UNL1       -0.0470
      8  C          6.6030   -0.9530    0.1280 C.2     1  UNL1        0.0040
      9  C          5.8220    1.1940   -0.4470 C.2     1  UNL1        0.0040
     10  C          6.1050   -0.7770    1.4040 C.2     1  UNL1        0.0000
     11  C          5.3230    1.3870    0.8080 C.2     1  UNL1        0.0000
     12  C          5.4620    0.3940    1.7540 C.2     1  UNL1        0.0000
@<TRIPOS>BOND
     1     5     4    1
     2     4     2    1
     3     3     2    2
     4     2     1    1
     5     1     6    1
     6     6     7    1
     7     7     9    2
     8     7     8    1
     9     9    11    1
    10     8    10    2
    11    11    12    2
    12    10    12    1
