@<TRIPOS>MOLECULE
/home/cewinharhar/GITHUB/reincatalyze/data/processed/docking_pred/2023-Apr-25-1630_maxeplen5_maxtrainstep200_exh32_gamma099_lrac3e-4_lrcr1e-3/6e6a373552f8835a6ba7a6c6fa001d8bbefa4498_ligand_2.pdbqt
 12 12 0 0 0
SMALL
GASTEIGER

@<TRIPOS>ATOM
      1  C          8.3370   -0.7840   -1.9670 C.3     1  UNL1        0.1270
      2  C          8.3420   -1.9460   -2.8880 C.2     1  UNL1        0.3030
      3  O          7.2790   -2.4270   -3.3090 O.2     1  UNL1       -0.2520
      4  O          9.5450   -2.5000   -3.2800 O.3     1  UNL1       -0.4810
      5  H          9.6330   -3.0740   -4.1140 H       1  UNL1        0.2960
      6  C          7.7470   -1.1680   -0.6330 C.3     1  UNL1        0.0470
      7  C          6.7780   -0.1760   -0.1280 C.2     1  UNL1       -0.0470
      8  C          6.3160    0.8910   -0.8560 C.2     1  UNL1        0.0040
      9  C          6.3140   -0.3340    1.1560 C.2     1  UNL1        0.0040
     10  C          5.4080    1.7730   -0.3030 C.2     1  UNL1        0.0000
     11  C          5.4190    0.5260    1.7200 C.2     1  UNL1        0.0000
     12  C          4.9530    1.5970    0.9890 C.2     1  UNL1        0.0000
@<TRIPOS>BOND
     1     5     4    1
     2     3     2    2
     3     4     2    1
     4     2     1    1
     5     1     6    1
     6     8    10    1
     7     8     7    2
     8     6     7    1
     9    10    12    2
    10     7     9    1
    11    12    11    1
    12     9    11    2
