MODEL 1
REMARK VINA RESULT:      -7.3      0.000      0.000
REMARK SMILES O=C(O)CCc1ccccc1
REMARK SMILES IDX 4 1 2 2 1 3 3 4 5 6 6 7 7 8 11 9 8 10 10 11 9 12
REMARK H PARENT 3 5
REMARK Flexibility Score: inf
ROOT
ATOM      1  C   UNL     1       8.387  -0.650  -2.123  1.00  0.00     0.127 C 
ENDROOT
BRANCH   1   2
ATOM      2  C   UNL     1       8.457  -1.909  -2.901  1.00  0.00     0.303 C 
ATOM      3  O   UNL     1       9.543  -2.479  -3.090  1.00  0.00    -0.252 OA
BRANCH   2   4
ATOM      4  O   UNL     1       7.300  -2.455  -3.422  1.00  0.00    -0.481 OA
ATOM      5  H   UNL     1       6.843  -2.074  -4.246  1.00  0.00     0.296 HD
ENDBRANCH   2   4
ENDBRANCH   1   2
BRANCH   1   6
ATOM      6  C   UNL     1       6.983  -0.099  -2.132  1.00  0.00     0.047 C 
BRANCH   6   7
ATOM      7  C   UNL     1       6.437   0.101  -0.776  1.00  0.00    -0.047 A 
ATOM      8  C   UNL     1       5.806   1.245  -0.359  1.00  0.00     0.004 A 
ATOM      9  C   UNL     1       6.574  -0.928   0.124  1.00  0.00     0.004 A 
ATOM     10  C   UNL     1       5.326   1.347   0.932  1.00  0.00     0.000 A 
ATOM     11  C   UNL     1       6.108  -0.847   1.403  1.00  0.00     0.000 A 
ATOM     12  C   UNL     1       5.473   0.302   1.823  1.00  0.00     0.000 A 
ENDBRANCH   6   7
ENDBRANCH   1   6
TORSDOF 4
ENDMDL
MODEL 2
REMARK VINA RESULT:      -7.3      0.094      1.429
REMARK SMILES O=C(O)CCc1ccccc1
REMARK SMILES IDX 4 1 2 2 1 3 3 4 5 6 6 7 7 8 11 9 8 10 10 11 9 12
REMARK H PARENT 3 5
REMARK Flexibility Score: inf
ROOT
ATOM      1  C   UNL     1       8.388  -0.549  -2.277  1.00  0.00     0.127 C 
ENDROOT
BRANCH   1   2
ATOM      2  C   UNL     1       8.450  -1.874  -2.937  1.00  0.00     0.303 C 
ATOM      3  O   UNL     1       9.533  -2.462  -3.082  1.00  0.00    -0.252 OA
BRANCH   2   4
ATOM      4  O   UNL     1       7.287  -2.463  -3.396  1.00  0.00    -0.481 OA
ATOM      5  H   UNL     1       7.190  -2.802  -4.349  1.00  0.00     0.296 HD
ENDBRANCH   2   4
ENDBRANCH   1   2
BRANCH   1   6
ATOM      6  C   UNL     1       6.963  -0.061  -2.199  1.00  0.00     0.047 C 
BRANCH   6   7
ATOM      7  C   UNL     1       6.466   0.036  -0.813  1.00  0.00    -0.047 A 
ATOM      8  C   UNL     1       6.603  -0.953   0.128  1.00  0.00     0.004 A 
ATOM      9  C   UNL     1       5.822   1.194  -0.447  1.00  0.00     0.004 A 
ATOM     10  C   UNL     1       6.105  -0.777   1.404  1.00  0.00     0.000 A 
ATOM     11  C   UNL     1       5.323   1.387   0.808  1.00  0.00     0.000 A 
ATOM     12  C   UNL     1       5.462   0.394   1.754  1.00  0.00     0.000 A 
ENDBRANCH   6   7
ENDBRANCH   1   6
TORSDOF 4
ENDMDL
MODEL 3
REMARK VINA RESULT:      -7.0      0.661      1.472
REMARK SMILES O=C(O)CCc1ccccc1
REMARK SMILES IDX 4 1 2 2 1 3 3 4 5 6 6 7 7 8 11 9 8 10 10 11 9 12
REMARK H PARENT 3 5
REMARK Flexibility Score: inf
ROOT
ATOM      1  C   UNL     1       8.337  -0.784  -1.967  1.00  0.00     0.127 C 
ENDROOT
BRANCH   1   2
ATOM      2  C   UNL     1       8.342  -1.946  -2.888  1.00  0.00     0.303 C 
ATOM      3  O   UNL     1       7.279  -2.427  -3.309  1.00  0.00    -0.252 OA
BRANCH   2   4
ATOM      4  O   UNL     1       9.545  -2.500  -3.280  1.00  0.00    -0.481 OA
ATOM      5  H   UNL     1       9.633  -3.074  -4.114  1.00  0.00     0.296 HD
ENDBRANCH   2   4
ENDBRANCH   1   2
BRANCH   1   6
ATOM      6  C   UNL     1       7.747  -1.168  -0.633  1.00  0.00     0.047 C 
BRANCH   6   7
ATOM      7  C   UNL     1       6.778  -0.176  -0.128  1.00  0.00    -0.047 A 
ATOM      8  C   UNL     1       6.316   0.891  -0.856  1.00  0.00     0.004 A 
ATOM      9  C   UNL     1       6.314  -0.334   1.156  1.00  0.00     0.004 A 
ATOM     10  C   UNL     1       5.408   1.773  -0.303  1.00  0.00     0.000 A 
ATOM     11  C   UNL     1       5.419   0.526   1.720  1.00  0.00     0.000 A 
ATOM     12  C   UNL     1       4.953   1.597   0.989  1.00  0.00     0.000 A 
ENDBRANCH   6   7
ENDBRANCH   1   6
TORSDOF 4
ENDMDL
MODEL 4
REMARK VINA RESULT:      -6.8      3.386      5.062
REMARK SMILES O=C(O)CCc1ccccc1
REMARK SMILES IDX 4 1 2 2 1 3 3 4 5 6 6 7 7 8 11 9 8 10 10 11 9 12
REMARK H PARENT 3 5
REMARK Flexibility Score: inf
ROOT
ATOM      1  C   UNL     1       4.982   1.763   0.725  1.00  0.00     0.127 C 
ENDROOT
BRANCH   1   2
ATOM      2  C   UNL     1       4.477   1.079   1.939  1.00  0.00     0.303 C 
ATOM      3  O   UNL     1       5.137   0.180   2.482  1.00  0.00    -0.252 OA
BRANCH   2   4
ATOM      4  O   UNL     1       3.256   1.447   2.471  1.00  0.00    -0.481 OA
ATOM      5  H   UNL     1       3.020   1.290   3.447  1.00  0.00     0.296 HD
ENDBRANCH   2   4
ENDBRANCH   1   2
BRANCH   1   6
ATOM      6  C   UNL     1       6.484   1.886   0.772  1.00  0.00     0.047 C 
BRANCH   6   7
ATOM      7  C   UNL     1       7.154   1.134  -0.306  1.00  0.00    -0.047 A 
ATOM      8  C   UNL     1       8.487   1.243  -0.611  1.00  0.00     0.004 A 
ATOM      9  C   UNL     1       6.387   0.271  -1.053  1.00  0.00     0.004 A 
ATOM     10  C   UNL     1       9.031   0.500  -1.640  1.00  0.00     0.000 A 
ATOM     11  C   UNL     1       6.906  -0.470  -2.074  1.00  0.00     0.000 A 
ATOM     12  C   UNL     1       8.245  -0.362  -2.379  1.00  0.00     0.000 A 
ENDBRANCH   6   7
ENDBRANCH   1   6
TORSDOF 4
ENDMDL
MODEL 5
REMARK VINA RESULT:      -6.6      1.978      2.310
REMARK SMILES O=C(O)CCc1ccccc1
REMARK SMILES IDX 4 1 2 2 1 3 3 4 5 6 6 7 7 8 11 9 8 10 10 11 9 12
REMARK H PARENT 3 5
REMARK Flexibility Score: inf
ROOT
ATOM      1  C   UNL     1       8.324   0.379  -2.029  1.00  0.00     0.127 C 
ENDROOT
BRANCH   1   2
ATOM      2  C   UNL     1       9.471   0.424  -1.091  1.00  0.00     0.303 C 
ATOM      3  O   UNL     1       9.536  -0.358  -0.130  1.00  0.00    -0.252 OA
BRANCH   2   4
ATOM      4  O   UNL     1      10.479   1.347  -1.289  1.00  0.00    -0.481 OA
ATOM      5  H   UNL     1      10.353   2.338  -1.101  1.00  0.00     0.296 HD
ENDBRANCH   2   4
ENDBRANCH   1   2
BRANCH   1   6
ATOM      6  C   UNL     1       7.219  -0.486  -1.475  1.00  0.00     0.047 C 
BRANCH   6   7
ATOM      7  C   UNL     1       6.401   0.209  -0.462  1.00  0.00    -0.047 A 
ATOM      8  C   UNL     1       5.809   1.430  -0.654  1.00  0.00     0.004 A 
ATOM      9  C   UNL     1       6.226  -0.413   0.751  1.00  0.00     0.004 A 
ATOM     10  C   UNL     1       5.059   2.009   0.352  1.00  0.00     0.000 A 
ATOM     11  C   UNL     1       5.491   0.141   1.757  1.00  0.00     0.000 A 
ATOM     12  C   UNL     1       4.894   1.369   1.564  1.00  0.00     0.000 A 
ENDBRANCH   6   7
ENDBRANCH   1   6
TORSDOF 4
ENDMDL
