@<TRIPOS>MOLECULE
/home/cewinharhar/GITHUB/reincatalyze/data/processed/docking_pred/2023-Apr-25-1630_maxeplen5_maxtrainstep200_exh32_gamma099_lrac3e-4_lrcr1e-3/6e6a373552f8835a6ba7a6c6fa001d8bbefa4498_ligand_2.pdbqt
 12 12 0 0 0
SMALL
GASTEIGER

@<TRIPOS>ATOM
      1  C          8.3870   -0.6500   -2.1230 C.3     1  UNL1        0.1270
      2  C          8.4570   -1.9090   -2.9010 C.2     1  UNL1        0.3030
      3  O          9.5430   -2.4790   -3.0900 O.2     1  UNL1       -0.2520
      4  O          7.3000   -2.4550   -3.4220 O.3     1  UNL1       -0.4810
      5  H          6.8430   -2.0740   -4.2460 H       1  UNL1        0.2960
      6  C          6.9830   -0.0990   -2.1320 C.3     1  UNL1        0.0470
      7  C          6.4370    0.1010   -0.7760 C.2     1  UNL1       -0.0470
      8  C          5.8060    1.2450   -0.3590 C.2     1  UNL1        0.0040
      9  C          6.5740   -0.9280    0.1240 C.2     1  UNL1        0.0040
     10  C          5.3260    1.3470    0.9320 C.2     1  UNL1        0.0000
     11  C          6.1080   -0.8470    1.4030 C.2     1  UNL1        0.0000
     12  C          5.4730    0.3020    1.8230 C.2     1  UNL1        0.0000
@<TRIPOS>BOND
     1     5     4    1
     2     4     2    1
     3     3     2    2
     4     2     1    1
     5     6     1    1
     6     6     7    1
     7     7     8    2
     8     7     9    1
     9     8    10    1
    10     9    11    2
    11    10    12    2
    12    11    12    1
