@<TRIPOS>MOLECULE
/home/cewinharhar/GITHUB/reincatalyze/data/processed/docking_pred/2023-Apr-25-1630_maxeplen5_maxtrainstep200_exh32_gamma099_lrac3e-4_lrcr1e-3/6e6a373552f8835a6ba7a6c6fa001d8bbefa4498_ligand_2.pdbqt
 12 12 0 0 0
SMALL
GASTEIGER

@<TRIPOS>ATOM
      1  C          4.9820    1.7630    0.7250 C.3     1  UNL1        0.1270
      2  C          4.4770    1.0790    1.9390 C.2     1  UNL1        0.3030
      3  O          5.1370    0.1800    2.4820 O.2     1  UNL1       -0.2520
      4  O          3.2560    1.4470    2.4710 O.3     1  UNL1       -0.4810
      5  H          3.0200    1.2900    3.4470 H       1  UNL1        0.2960
      6  C          6.4840    1.8860    0.7720 C.3     1  UNL1        0.0470
      7  C          7.1540    1.1340   -0.3060 C.2     1  UNL1       -0.0470
      8  C          8.4870    1.2430   -0.6110 C.2     1  UNL1        0.0040
      9  C          6.3870    0.2710   -1.0530 C.2     1  UNL1        0.0040
     10  C          9.0310    0.5000   -1.6400 C.2     1  UNL1        0.0000
     11  C          6.9060   -0.4700   -2.0740 C.2     1  UNL1        0.0000
     12  C          8.2450   -0.3620   -2.3790 C.2     1  UNL1        0.0000
@<TRIPOS>BOND
     1    12    11    2
     2    12    10    1
     3    11     9    1
     4    10     8    2
     5     9     7    2
     6     8     7    1
     7     7     6    1
     8     1     6    1
     9     1     2    1
    10     2     4    1
    11     2     3    2
    12     4     5    1
