@<TRIPOS>MOLECULE
/home/cewinharhar/GITHUB/reincatalyze/data/processed/docking_pred/2023-Apr-25-1630_maxeplen5_maxtrainstep200_exh32_gamma099_lrac3e-4_lrcr1e-3/6eca206a948153dc2868ed9d680cd756ab453321_ligand_2.pdbqt
 12 12 0 0 0
SMALL
GASTEIGER

@<TRIPOS>ATOM
      1  C          5.0040    1.7940    0.7370 C.3     1  UNL1        0.1270
      2  C          4.4820    1.0950    1.9350 C.2     1  UNL1        0.3030
      3  O          5.1340    0.1880    2.4750 O.2     1  UNL1       -0.2520
      4  O          3.2550    1.4570    2.4560 O.3     1  UNL1       -0.4810
      5  H          2.8970    2.4060    2.3940 H       1  UNL1        0.2960
      6  C          6.5120    1.8080    0.7460 C.3     1  UNL1        0.0470
      7  C          7.0980    1.0080   -0.3470 C.2     1  UNL1       -0.0470
      8  C          6.4100    0.0680   -1.0700 C.2     1  UNL1        0.0040
      9  C          8.4210    1.2230   -0.6550 C.2     1  UNL1        0.0040
     10  C          7.0400   -0.6370   -2.0780 C.2     1  UNL1        0.0000
     11  C          9.0610    0.5380   -1.6450 C.2     1  UNL1        0.0000
     12  C          8.3690   -0.4070   -2.3730 C.2     1  UNL1        0.0000
@<TRIPOS>BOND
     1    12    10    2
     2    12    11    1
     3    10     8    1
     4    11     9    2
     5     8     7    2
     6     9     7    1
     7     7     6    1
     8     1     6    1
     9     1     2    1
    10     2     4    1
    11     2     3    2
    12     5     4    1
