@<TRIPOS>MOLECULE
/home/cewinharhar/GITHUB/reincatalyze/data/processed/docking_pred/2023-Apr-25-1630_maxeplen5_maxtrainstep200_exh32_gamma099_lrac3e-4_lrcr1e-3/6eca206a948153dc2868ed9d680cd756ab453321_ligand_2.pdbqt
 12 12 0 0 0
SMALL
GASTEIGER

@<TRIPOS>ATOM
      1  C          8.4480   -0.6570   -2.0980 C.3     1  UNL1        0.1270
      2  C          8.5050   -1.9160   -2.8790 C.2     1  UNL1        0.3030
      3  O          9.5880   -2.4820   -3.0930 O.2     1  UNL1       -0.2520
      4  O          7.3380   -2.4640   -3.3740 O.3     1  UNL1       -0.4810
      5  H          6.6300   -2.8730   -2.7700 H       1  UNL1        0.2960
      6  C          7.0680   -0.0540   -2.1640 C.3     1  UNL1        0.0470
      7  C          6.4730    0.1650   -0.8320 C.2     1  UNL1       -0.0470
      8  C          5.7850    1.2940   -0.4690 C.2     1  UNL1        0.0040
      9  C          6.6240   -0.8310    0.1040 C.2     1  UNL1        0.0040
     10  C          5.2610    1.4150    0.8040 C.2     1  UNL1        0.0000
     11  C          6.1150   -0.7310    1.3660 C.2     1  UNL1        0.0000
     12  C          5.4220    0.4040    1.7300 C.2     1  UNL1        0.0000
@<TRIPOS>BOND
     1     4     2    1
     2     4     5    1
     3     3     2    2
     4     2     1    1
     5     6     1    1
     6     6     7    1
     7     7     8    2
     8     7     9    1
     9     8    10    1
    10     9    11    2
    11    10    12    2
    12    11    12    1
