@<TRIPOS>MOLECULE
/home/cewinharhar/GITHUB/reincatalyze/data/processed/docking_pred/2023-Apr-25-1630_maxeplen5_maxtrainstep200_exh32_gamma099_lrac3e-4_lrcr1e-3/6eca206a948153dc2868ed9d680cd756ab453321_ligand_2.pdbqt
 12 12 0 0 0
SMALL
GASTEIGER

@<TRIPOS>ATOM
      1  C          8.3800    0.3970   -2.0090 C.3     1  UNL1        0.1270
      2  C          9.5140    0.3970   -1.0550 C.2     1  UNL1        0.3030
      3  O          9.5270   -0.3750   -0.0840 O.2     1  UNL1       -0.2520
      4  O         10.5690    1.2680   -1.2480 O.3     1  UNL1       -0.4810
      5  H         11.4970    0.9470   -1.5090 H       1  UNL1        0.2960
      6  C          7.2540   -0.4650   -1.4940 C.3     1  UNL1        0.0470
      7  C          6.4320    0.2150   -0.4750 C.2     1  UNL1       -0.0470
      8  C          6.1960   -0.2790    0.7820 C.2     1  UNL1        0.0040
      9  C          5.8670    1.4210   -0.8140 C.2     1  UNL1        0.0040
     10  C          5.4110    0.4260    1.6740 C.2     1  UNL1        0.0000
     11  C          5.0880    2.1320    0.0520 C.2     1  UNL1        0.0000
     12  C          4.8520    1.6360    1.3160 C.2     1  UNL1        0.0000
@<TRIPOS>BOND
     1     1     6    1
     2     1     2    1
     3     5     4    1
     4     6     7    1
     5     4     2    1
     6     2     3    2
     7     9     7    2
     8     9    11    1
     9     7     8    1
    10    11    12    2
    11     8    10    2
    12    12    10    1
