@<TRIPOS>MOLECULE
/home/cewinharhar/GITHUB/reincatalyze/data/processed/docking_pred/2023-Apr-25-1630_maxeplen5_maxtrainstep200_exh32_gamma099_lrac3e-4_lrcr1e-3/6eca206a948153dc2868ed9d680cd756ab453321_ligand_2.pdbqt
 12 12 0 0 0
SMALL
GASTEIGER

@<TRIPOS>ATOM
      1  C          5.3760    2.9350    0.1090 C.3     1  UNL1        0.1270
      2  C          6.2150    3.9120    0.8430 C.2     1  UNL1        0.3030
      3  O          6.8660    4.7750    0.2340 O.2     1  UNL1       -0.2520
      4  O          6.2730    3.8600    2.2220 O.3     1  UNL1       -0.4810
      5  H          6.5000    4.6730    2.7880 H       1  UNL1        0.2960
      6  C          5.3060    1.6280    0.8580 C.3     1  UNL1        0.0470
      7  C          6.0420    0.5410    0.1840 C.2     1  UNL1       -0.0470
      8  C          6.5110   -0.5820    0.8160 C.2     1  UNL1        0.0040
      9  C          6.2710    0.6690   -1.1660 C.2     1  UNL1        0.0040
     10  C          7.1930   -1.5500    0.1050 C.2     1  UNL1        0.0000
     11  C          6.9430   -0.2760   -1.8850 C.2     1  UNL1        0.0000
     12  C          7.4130   -1.4050   -1.2500 C.2     1  UNL1        0.0000
@<TRIPOS>BOND
     1    11    12    2
     2    11     9    1
     3    12    10    1
     4     9     7    2
     5    10     8    2
     6     1     2    1
     7     1     6    1
     8     7     8    1
     9     7     6    1
    10     3     2    2
    11     2     4    1
    12     4     5    1
