@<TRIPOS>MOLECULE
/home/cewinharhar/GITHUB/reincatalyze/data/processed/docking_pred/2023-Apr-25-1630_maxeplen5_maxtrainstep200_exh32_gamma099_lrac3e-4_lrcr1e-3/6eca206a948153dc2868ed9d680cd756ab453321_ligand_2.pdbqt
 12 12 0 0 0
SMALL
GASTEIGER

@<TRIPOS>ATOM
      1  C          8.4730   -0.6170   -2.1830 C.3     1  UNL1        0.1270
      2  C          8.4880   -1.9050   -2.9150 C.2     1  UNL1        0.3030
      3  O          9.5490   -2.5210   -3.0950 O.2     1  UNL1       -0.2520
      4  O          7.3050   -2.4250   -3.4050 O.3     1  UNL1       -0.4810
      5  H          6.5400   -1.8350   -3.7170 H       1  UNL1        0.2960
      6  C          7.0760   -0.0480   -2.1390 C.3     1  UNL1        0.0470
      7  C          6.5310    0.0260   -0.7700 C.2     1  UNL1       -0.0470
      8  C          6.6260   -0.9820    0.1540 C.2     1  UNL1        0.0040
      9  C          5.8850    1.1830   -0.4040 C.2     1  UNL1        0.0040
     10  C          6.0850   -0.8260    1.4160 C.2     1  UNL1        0.0000
     11  C          5.3430    1.3560    0.8350 C.2     1  UNL1        0.0000
     12  C          5.4390    0.3430    1.7660 C.2     1  UNL1        0.0000
@<TRIPOS>BOND
     1     5     4    1
     2     4     2    1
     3     3     2    2
     4     2     1    1
     5     1     6    1
     6     6     7    1
     7     7     9    2
     8     7     8    1
     9     9    11    1
    10     8    10    2
    11    11    12    2
    12    10    12    1
