@<TRIPOS>MOLECULE
/home/cewinharhar/GITHUB/reincatalyze/data/processed/docking_pred/2023-Apr-25-1630_maxeplen5_maxtrainstep200_exh32_gamma099_lrac3e-4_lrcr1e-3/72c4800fcc396c08a923544a0defa9269110c5e0_ligand_2.pdbqt
 12 12 0 0 0
SMALL
GASTEIGER

@<TRIPOS>ATOM
      1  C          8.4220   -0.6230   -2.1510 C.3     1  UNL1        0.1270
      2  C          8.4830   -1.8900   -2.9180 C.2     1  UNL1        0.3030
      3  O          9.5650   -2.4650   -3.1090 O.2     1  UNL1       -0.2520
      4  O          7.3200   -2.4360   -3.4260 O.3     1  UNL1       -0.4810
      5  H          6.5850   -1.8660   -3.8350 H       1  UNL1        0.2960
      6  C          7.0170   -0.0740   -2.1450 C.3     1  UNL1        0.0470
      7  C          6.4730    0.0920   -0.7840 C.2     1  UNL1       -0.0470
      8  C          5.8460    1.2260   -0.3360 C.2     1  UNL1        0.0040
      9  C          6.6070   -0.9620    0.0890 C.2     1  UNL1        0.0040
     10  C          5.3670    1.2960    0.9580 C.2     1  UNL1        0.0000
     11  C          6.1410   -0.9130    1.3700 C.2     1  UNL1        0.0000
     12  C          5.5100    0.2270    1.8200 C.2     1  UNL1        0.0000
@<TRIPOS>BOND
     1     5     4    1
     2     4     2    1
     3     3     2    2
     4     2     1    1
     5     1     6    1
     6     6     7    1
     7     7     8    2
     8     7     9    1
     9     8    10    1
    10     9    11    2
    11    10    12    2
    12    11    12    1
