MODEL 1
REMARK VINA RESULT:      -7.4      0.000      0.000
REMARK SMILES O=C(O)CCc1ccccc1
REMARK SMILES IDX 4 1 2 2 1 3 3 4 5 6 6 7 7 8 11 9 8 10 10 11 9 12
REMARK H PARENT 3 5
REMARK Flexibility Score: inf
ROOT
ATOM      1  C   UNL     1       8.472  -0.641  -2.164  1.00  0.00     0.127 C 
ENDROOT
BRANCH   1   2
ATOM      2  C   UNL     1       8.498  -1.919  -2.915  1.00  0.00     0.303 C 
ATOM      3  O   UNL     1       9.567  -2.518  -3.112  1.00  0.00    -0.252 OA
BRANCH   2   4
ATOM      4  O   UNL     1       7.318  -2.449  -3.401  1.00  0.00    -0.481 OA
ATOM      5  H   UNL     1       6.707  -1.931  -4.026  1.00  0.00     0.296 HD
ENDBRANCH   2   4
ENDBRANCH   1   2
BRANCH   1   6
ATOM      6  C   UNL     1       7.078  -0.066  -2.145  1.00  0.00     0.047 C 
BRANCH   6   7
ATOM      7  C   UNL     1       6.520   0.040  -0.783  1.00  0.00    -0.047 A 
ATOM      8  C   UNL     1       6.622  -0.940   0.172  1.00  0.00     0.004 A 
ATOM      9  C   UNL     1       5.856   1.198  -0.455  1.00  0.00     0.004 A 
ATOM     10  C   UNL     1       6.069  -0.756   1.424  1.00  0.00     0.000 A 
ATOM     11  C   UNL     1       5.302   1.398   0.775  1.00  0.00     0.000 A 
ATOM     12  C   UNL     1       5.405   0.414   1.735  1.00  0.00     0.000 A 
ENDBRANCH   6   7
ENDBRANCH   1   6
TORSDOF 4
ENDMDL
MODEL 2
REMARK VINA RESULT:      -7.3      0.126      1.429
REMARK SMILES O=C(O)CCc1ccccc1
REMARK SMILES IDX 4 1 2 2 1 3 3 4 5 6 6 7 7 8 11 9 8 10 10 11 9 12
REMARK H PARENT 3 5
REMARK Flexibility Score: inf
ROOT
ATOM      1  C   UNL     1       8.422  -0.623  -2.151  1.00  0.00     0.127 C 
ENDROOT
BRANCH   1   2
ATOM      2  C   UNL     1       8.483  -1.890  -2.918  1.00  0.00     0.303 C 
ATOM      3  O   UNL     1       9.565  -2.465  -3.109  1.00  0.00    -0.252 OA
BRANCH   2   4
ATOM      4  O   UNL     1       7.320  -2.436  -3.426  1.00  0.00    -0.481 OA
ATOM      5  H   UNL     1       6.585  -1.866  -3.835  1.00  0.00     0.296 HD
ENDBRANCH   2   4
ENDBRANCH   1   2
BRANCH   1   6
ATOM      6  C   UNL     1       7.017  -0.074  -2.145  1.00  0.00     0.047 C 
BRANCH   6   7
ATOM      7  C   UNL     1       6.473   0.092  -0.784  1.00  0.00    -0.047 A 
ATOM      8  C   UNL     1       5.846   1.226  -0.336  1.00  0.00     0.004 A 
ATOM      9  C   UNL     1       6.607  -0.962   0.089  1.00  0.00     0.004 A 
ATOM     10  C   UNL     1       5.367   1.296   0.958  1.00  0.00     0.000 A 
ATOM     11  C   UNL     1       6.141  -0.913   1.370  1.00  0.00     0.000 A 
ATOM     12  C   UNL     1       5.510   0.227   1.820  1.00  0.00     0.000 A 
ENDBRANCH   6   7
ENDBRANCH   1   6
TORSDOF 4
ENDMDL
MODEL 3
REMARK VINA RESULT:      -7.2      0.653      1.601
REMARK SMILES O=C(O)CCc1ccccc1
REMARK SMILES IDX 4 1 2 2 1 3 3 4 5 6 6 7 7 8 11 9 8 10 10 11 9 12
REMARK H PARENT 3 5
REMARK Flexibility Score: inf
ROOT
ATOM      1  C   UNL     1       8.293  -0.971  -1.839  1.00  0.00     0.127 C 
ENDROOT
BRANCH   1   2
ATOM      2  C   UNL     1       8.442  -2.049  -2.845  1.00  0.00     0.303 C 
ATOM      3  O   UNL     1       9.560  -2.512  -3.120  1.00  0.00    -0.252 OA
BRANCH   2   4
ATOM      4  O   UNL     1       7.321  -2.545  -3.484  1.00  0.00    -0.481 OA
ATOM      5  H   UNL     1       7.334  -2.829  -4.459  1.00  0.00     0.296 HD
ENDBRANCH   2   4
ENDBRANCH   1   2
BRANCH   1   6
ATOM      6  C   UNL     1       7.355  -1.399  -0.738  1.00  0.00     0.047 C 
BRANCH   6   7
ATOM      7  C   UNL     1       6.544  -0.284  -0.212  1.00  0.00    -0.047 A 
ATOM      8  C   UNL     1       6.209   0.834  -0.932  1.00  0.00     0.004 A 
ATOM      9  C   UNL     1       6.098  -0.377   1.085  1.00  0.00     0.004 A 
ATOM     10  C   UNL     1       5.444   1.831  -0.359  1.00  0.00     0.000 A 
ATOM     11  C   UNL     1       5.343   0.596   1.670  1.00  0.00     0.000 A 
ATOM     12  C   UNL     1       5.005   1.720   0.946  1.00  0.00     0.000 A 
ENDBRANCH   6   7
ENDBRANCH   1   6
TORSDOF 4
ENDMDL
MODEL 4
REMARK VINA RESULT:      -7.2      0.612      1.129
REMARK SMILES O=C(O)CCc1ccccc1
REMARK SMILES IDX 4 1 2 2 1 3 3 4 5 6 6 7 7 8 11 9 8 10 10 11 9 12
REMARK H PARENT 3 5
REMARK Flexibility Score: inf
ROOT
ATOM      1  C   UNL     1       8.310  -0.990  -1.818  1.00  0.00     0.127 C 
ENDROOT
BRANCH   1   2
ATOM      2  C   UNL     1       8.426  -2.057  -2.839  1.00  0.00     0.303 C 
ATOM      3  O   UNL     1       9.527  -2.563  -3.108  1.00  0.00    -0.252 OA
BRANCH   2   4
ATOM      4  O   UNL     1       7.294  -2.495  -3.500  1.00  0.00    -0.481 OA
ATOM      5  H   UNL     1       6.511  -2.921  -3.013  1.00  0.00     0.296 HD
ENDBRANCH   2   4
ENDBRANCH   1   2
BRANCH   1   6
ATOM      6  C   UNL     1       7.520  -1.477  -0.629  1.00  0.00     0.047 C 
BRANCH   6   7
ATOM      7  C   UNL     1       6.654  -0.432  -0.051  1.00  0.00    -0.047 A 
ATOM      8  C   UNL     1       6.129  -0.478   1.215  1.00  0.00     0.004 A 
ATOM      9  C   UNL     1       6.356   0.656  -0.837  1.00  0.00     0.004 A 
ATOM     10  C   UNL     1       5.325   0.547   1.676  1.00  0.00     0.000 A 
ATOM     11  C   UNL     1       5.564   1.677  -0.401  1.00  0.00     0.000 A 
ATOM     12  C   UNL     1       5.037   1.632   0.872  1.00  0.00     0.000 A 
ENDBRANCH   6   7
ENDBRANCH   1   6
TORSDOF 4
ENDMDL
MODEL 5
REMARK VINA RESULT:      -6.7      3.336      5.040
REMARK SMILES O=C(O)CCc1ccccc1
REMARK SMILES IDX 4 1 2 2 1 3 3 4 5 6 6 7 7 8 11 9 8 10 10 11 9 12
REMARK H PARENT 3 5
REMARK Flexibility Score: inf
ROOT
ATOM      1  C   UNL     1       5.041   1.707   0.709  1.00  0.00     0.127 C 
ENDROOT
BRANCH   1   2
ATOM      2  C   UNL     1       4.594   1.014   1.940  1.00  0.00     0.303 C 
ATOM      3  O   UNL     1       5.312   0.162   2.487  1.00  0.00    -0.252 OA
BRANCH   2   4
ATOM      4  O   UNL     1       3.361   1.319   2.485  1.00  0.00    -0.481 OA
ATOM      5  H   UNL     1       2.506   0.859   2.186  1.00  0.00     0.296 HD
ENDBRANCH   2   4
ENDBRANCH   1   2
BRANCH   1   6
ATOM      6  C   UNL     1       6.541   1.872   0.709  1.00  0.00     0.047 C 
BRANCH   6   7
ATOM      7  C   UNL     1       7.202   1.095  -0.357  1.00  0.00    -0.047 A 
ATOM      8  C   UNL     1       8.535   1.188  -0.666  1.00  0.00     0.004 A 
ATOM      9  C   UNL     1       6.427   0.224  -1.085  1.00  0.00     0.004 A 
ATOM     10  C   UNL     1       9.071   0.422  -1.683  1.00  0.00     0.000 A 
ATOM     11  C   UNL     1       6.937  -0.540  -2.093  1.00  0.00     0.000 A 
ATOM     12  C   UNL     1       8.277  -0.447  -2.404  1.00  0.00     0.000 A 
ENDBRANCH   6   7
ENDBRANCH   1   6
TORSDOF 4
ENDMDL
