@<TRIPOS>MOLECULE
/home/cewinharhar/GITHUB/reincatalyze/data/processed/docking_pred/2023-Apr-25-1630_maxeplen5_maxtrainstep200_exh32_gamma099_lrac3e-4_lrcr1e-3/72c4800fcc396c08a923544a0defa9269110c5e0_ligand_2.pdbqt
 12 12 0 0 0
SMALL
GASTEIGER

@<TRIPOS>ATOM
      1  C          8.2930   -0.9710   -1.8390 C.3     1  UNL1        0.1270
      2  C          8.4420   -2.0490   -2.8450 C.2     1  UNL1        0.3030
      3  O          9.5600   -2.5120   -3.1200 O.2     1  UNL1       -0.2520
      4  O          7.3210   -2.5450   -3.4840 O.3     1  UNL1       -0.4810
      5  H          7.3340   -2.8290   -4.4590 H       1  UNL1        0.2960
      6  C          7.3550   -1.3990   -0.7380 C.3     1  UNL1        0.0470
      7  C          6.5440   -0.2840   -0.2120 C.2     1  UNL1       -0.0470
      8  C          6.2090    0.8340   -0.9320 C.2     1  UNL1        0.0040
      9  C          6.0980   -0.3770    1.0850 C.2     1  UNL1        0.0040
     10  C          5.4440    1.8310   -0.3590 C.2     1  UNL1        0.0000
     11  C          5.3430    0.5960    1.6700 C.2     1  UNL1        0.0000
     12  C          5.0050    1.7200    0.9460 C.2     1  UNL1        0.0000
@<TRIPOS>BOND
     1     5     4    1
     2     4     2    1
     3     3     2    2
     4     2     1    1
     5     1     6    1
     6     8    10    1
     7     8     7    2
     8     6     7    1
     9    10    12    2
    10     7     9    1
    11    12    11    1
    12     9    11    2
