@<TRIPOS>MOLECULE
/home/cewinharhar/GITHUB/reincatalyze/data/processed/docking_pred/2023-Apr-25-1630_maxeplen5_maxtrainstep200_exh32_gamma099_lrac3e-4_lrcr1e-3/72c4800fcc396c08a923544a0defa9269110c5e0_ligand_2.pdbqt
 12 12 0 0 0
SMALL
GASTEIGER

@<TRIPOS>ATOM
      1  C          8.4720   -0.6410   -2.1640 C.3     1  UNL1        0.1270
      2  C          8.4980   -1.9190   -2.9150 C.2     1  UNL1        0.3030
      3  O          9.5670   -2.5180   -3.1120 O.2     1  UNL1       -0.2520
      4  O          7.3180   -2.4490   -3.4010 O.3     1  UNL1       -0.4810
      5  H          6.7070   -1.9310   -4.0260 H       1  UNL1        0.2960
      6  C          7.0780   -0.0660   -2.1450 C.3     1  UNL1        0.0470
      7  C          6.5200    0.0400   -0.7830 C.2     1  UNL1       -0.0470
      8  C          6.6220   -0.9400    0.1720 C.2     1  UNL1        0.0040
      9  C          5.8560    1.1980   -0.4550 C.2     1  UNL1        0.0040
     10  C          6.0690   -0.7560    1.4240 C.2     1  UNL1        0.0000
     11  C          5.3020    1.3980    0.7750 C.2     1  UNL1        0.0000
     12  C          5.4050    0.4140    1.7350 C.2     1  UNL1        0.0000
@<TRIPOS>BOND
     1     5     4    1
     2     4     2    1
     3     3     2    2
     4     2     1    1
     5     1     6    1
     6     6     7    1
     7     7     9    2
     8     7     8    1
     9     9    11    1
    10     8    10    2
    11    11    12    2
    12    10    12    1
