@<TRIPOS>MOLECULE
/home/cewinharhar/GITHUB/reincatalyze/data/processed/docking_pred/2023-Apr-25-1630_maxeplen5_maxtrainstep200_exh32_gamma099_lrac3e-4_lrcr1e-3/72c4800fcc396c08a923544a0defa9269110c5e0_ligand_2.pdbqt
 12 12 0 0 0
SMALL
GASTEIGER

@<TRIPOS>ATOM
      1  C          8.3100   -0.9900   -1.8180 C.3     1  UNL1        0.1270
      2  C          8.4260   -2.0570   -2.8390 C.2     1  UNL1        0.3030
      3  O          9.5270   -2.5630   -3.1080 O.2     1  UNL1       -0.2520
      4  O          7.2940   -2.4950   -3.5000 O.3     1  UNL1       -0.4810
      5  H          6.5110   -2.9210   -3.0130 H       1  UNL1        0.2960
      6  C          7.5200   -1.4770   -0.6290 C.3     1  UNL1        0.0470
      7  C          6.6540   -0.4320   -0.0510 C.2     1  UNL1       -0.0470
      8  C          6.1290   -0.4780    1.2150 C.2     1  UNL1        0.0040
      9  C          6.3560    0.6560   -0.8370 C.2     1  UNL1        0.0040
     10  C          5.3250    0.5470    1.6760 C.2     1  UNL1        0.0000
     11  C          5.5640    1.6770   -0.4010 C.2     1  UNL1        0.0000
     12  C          5.0370    1.6320    0.8720 C.2     1  UNL1        0.0000
@<TRIPOS>BOND
     1     4     5    1
     2     4     2    1
     3     3     2    2
     4     2     1    1
     5     1     6    1
     6     9    11    1
     7     9     7    2
     8     6     7    1
     9    11    12    2
    10     7     8    1
    11    12    10    1
    12     8    10    2
