@<TRIPOS>MOLECULE
/home/cewinharhar/GITHUB/reincatalyze/data/processed/docking_pred/2023-Apr-25-1630_maxeplen5_maxtrainstep200_exh32_gamma099_lrac3e-4_lrcr1e-3/72c4800fcc396c08a923544a0defa9269110c5e0_ligand_2.pdbqt
 12 12 0 0 0
SMALL
GASTEIGER

@<TRIPOS>ATOM
      1  C          5.0410    1.7070    0.7090 C.3     1  UNL1        0.1270
      2  C          4.5940    1.0140    1.9400 C.2     1  UNL1        0.3030
      3  O          5.3120    0.1620    2.4870 O.2     1  UNL1       -0.2520
      4  O          3.3610    1.3190    2.4850 O.3     1  UNL1       -0.4810
      5  H          2.5060    0.8590    2.1860 H       1  UNL1        0.2960
      6  C          6.5410    1.8720    0.7090 C.3     1  UNL1        0.0470
      7  C          7.2020    1.0950   -0.3570 C.2     1  UNL1       -0.0470
      8  C          8.5350    1.1880   -0.6660 C.2     1  UNL1        0.0040
      9  C          6.4270    0.2240   -1.0850 C.2     1  UNL1        0.0040
     10  C          9.0710    0.4220   -1.6830 C.2     1  UNL1        0.0000
     11  C          6.9370   -0.5400   -2.0930 C.2     1  UNL1        0.0000
     12  C          8.2770   -0.4470   -2.4040 C.2     1  UNL1        0.0000
@<TRIPOS>BOND
     1    12    11    2
     2    12    10    1
     3    11     9    1
     4    10     8    2
     5     9     7    2
     6     8     7    1
     7     7     6    1
     8     1     6    1
     9     1     2    1
    10     2     4    1
    11     2     3    2
    12     5     4    1
