@<TRIPOS>MOLECULE
/home/cewinharhar/GITHUB/reincatalyze/data/processed/docking_pred/2023-Apr-25-1630_maxeplen5_maxtrainstep200_exh32_gamma099_lrac3e-4_lrcr1e-3/73f03501d88ed0f960f592fe5f6124e73644cb01_ligand_2.pdbqt
 12 12 0 0 0
SMALL
GASTEIGER

@<TRIPOS>ATOM
      1  C          8.4320   -0.6540   -2.1170 C.3     1  UNL1        0.1270
      2  C          8.4680   -1.9180   -2.8900 C.2     1  UNL1        0.3030
      3  O          9.5400   -2.5120   -3.0860 O.2     1  UNL1       -0.2520
      4  O          7.2950   -2.4400   -3.3990 O.3     1  UNL1       -0.4810
      5  H          6.9380   -2.1830   -4.3150 H       1  UNL1        0.2960
      6  C          7.0310   -0.0950   -2.0820 C.3     1  UNL1        0.0470
      7  C          6.4840   -0.0080   -0.7140 C.2     1  UNL1       -0.0470
      8  C          6.5720   -1.0100    0.2180 C.2     1  UNL1        0.0040
      9  C          5.8440    1.1550   -0.3570 C.2     1  UNL1        0.0040
     10  C          6.0300   -0.8430    1.4770 C.2     1  UNL1        0.0000
     11  C          5.3010    1.3400    0.8810 C.2     1  UNL1        0.0000
     12  C          5.3910    0.3330    1.8180 C.2     1  UNL1        0.0000
@<TRIPOS>BOND
     1     5     4    1
     2     4     2    1
     3     3     2    2
     4     2     1    1
     5     1     6    1
     6     6     7    1
     7     7     9    2
     8     7     8    1
     9     9    11    1
    10     8    10    2
    11    11    12    2
    12    10    12    1
