@<TRIPOS>MOLECULE
/home/cewinharhar/GITHUB/reincatalyze/data/processed/docking_pred/2023-Apr-25-1630_maxeplen5_maxtrainstep200_exh32_gamma099_lrac3e-4_lrcr1e-3/73f03501d88ed0f960f592fe5f6124e73644cb01_ligand_2.pdbqt
 12 12 0 0 0
SMALL
GASTEIGER

@<TRIPOS>ATOM
      1  C          8.4230   -0.6620   -2.1210 C.3     1  UNL1        0.1270
      2  C          8.4780   -1.9190   -2.9050 C.2     1  UNL1        0.3030
      3  O          9.5570   -2.5020   -3.0940 O.2     1  UNL1       -0.2520
      4  O          7.3150   -2.4460   -3.4310 O.3     1  UNL1       -0.4810
      5  H          7.0250   -2.2730   -4.3890 H       1  UNL1        0.2960
      6  C          7.0300   -0.0820   -2.1470 C.3     1  UNL1        0.0470
      7  C          6.4680    0.1180   -0.7980 C.2     1  UNL1       -0.0470
      8  C          5.8250    1.2590   -0.3910 C.2     1  UNL1        0.0040
      9  C          6.6030   -0.9080    0.1070 C.2     1  UNL1        0.0040
     10  C          5.3300    1.3610    0.8950 C.2     1  UNL1        0.0000
     11  C          6.1220   -0.8260    1.3810 C.2     1  UNL1        0.0000
     12  C          5.4740    0.3200    1.7900 C.2     1  UNL1        0.0000
@<TRIPOS>BOND
     1     5     4    1
     2     4     2    1
     3     3     2    2
     4     2     1    1
     5     6     1    1
     6     6     7    1
     7     7     8    2
     8     7     9    1
     9     8    10    1
    10     9    11    2
    11    10    12    2
    12    11    12    1
