@<TRIPOS>MOLECULE
/home/cewinharhar/GITHUB/reincatalyze/data/processed/docking_pred/2023-Apr-25-1630_maxeplen5_maxtrainstep200_exh32_gamma099_lrac3e-4_lrcr1e-3/73f03501d88ed0f960f592fe5f6124e73644cb01_ligand_2.pdbqt
 12 12 0 0 0
SMALL
GASTEIGER

@<TRIPOS>ATOM
      1  C          5.4970    2.8750    0.0060 C.3     1  UNL1        0.1270
      2  C          6.2600    3.8680    0.7980 C.2     1  UNL1        0.3030
      3  O          6.8950    4.7750    0.2380 O.2     1  UNL1       -0.2520
      4  O          6.2650    3.7820    2.1770 O.3     1  UNL1       -0.4810
      5  H          6.6540    2.9830    2.6700 H       1  UNL1        0.2960
      6  C          4.9270    1.8050    0.9040 C.3     1  UNL1        0.0470
      7  C          5.7410    0.5740    0.9160 C.2     1  UNL1       -0.0470
      8  C          6.4790    0.1260   -0.1490 C.2     1  UNL1        0.0040
      9  C          5.7550   -0.1680    2.0730 C.2     1  UNL1        0.0040
     10  C          7.2120   -1.0400   -0.0500 C.2     1  UNL1        0.0000
     11  C          6.4720   -1.3220    2.1910 C.2     1  UNL1        0.0000
     12  C          7.2150   -1.7730    1.1210 C.2     1  UNL1        0.0000
@<TRIPOS>BOND
     1     8    10    1
     2     8     7    2
     3    10    12    2
     4     1     2    1
     5     1     6    1
     6     3     2    2
     7     2     4    1
     8     6     7    1
     9     7     9    1
    10    12    11    1
    11     9    11    2
    12     4     5    1
