@<TRIPOS>MOLECULE
/home/cewinharhar/GITHUB/reincatalyze/data/processed/docking_pred/2023-Apr-25-1630_maxeplen5_maxtrainstep200_exh32_gamma099_lrac3e-4_lrcr1e-3/73f03501d88ed0f960f592fe5f6124e73644cb01_ligand_2.pdbqt
 12 12 0 0 0
SMALL
GASTEIGER

@<TRIPOS>ATOM
      1  C          8.2480    0.2290   -2.1900 C.3     1  UNL1        0.1270
      2  C          9.3740    0.3440   -1.2320 C.2     1  UNL1        0.3030
      3  O          9.4510   -0.4100   -0.2490 O.2     1  UNL1       -0.2520
      4  O         10.3480    1.3020   -1.4360 O.3     1  UNL1       -0.4810
      5  H         10.1230    2.2750   -1.6190 H       1  UNL1        0.2960
      6  C          7.1110   -0.5520   -1.5800 C.3     1  UNL1        0.0470
      7  C          6.3450    0.2290   -0.5910 C.2     1  UNL1       -0.0470
      8  C          6.1080   -0.1760    0.6970 C.2     1  UNL1        0.0040
      9  C          5.8350    1.4410   -0.9930 C.2     1  UNL1        0.0040
     10  C          5.3770    0.6210    1.5580 C.2     1  UNL1        0.0000
     11  C          5.1110    2.2420   -0.1600 C.2     1  UNL1        0.0000
     12  C          4.8740    1.8360    1.1360 C.2     1  UNL1        0.0000
@<TRIPOS>BOND
     1     1     6    1
     2     1     2    1
     3     5     4    1
     4     6     7    1
     5     4     2    1
     6     2     3    2
     7     9     7    2
     8     9    11    1
     9     7     8    1
    10    11    12    2
    11     8    10    2
    12    12    10    1
