MODEL 1
REMARK VINA RESULT:      -7.3      0.000      0.000
REMARK SMILES O=C(O)CCc1ccccc1
REMARK SMILES IDX 4 1 2 2 1 3 3 4 5 6 6 7 7 8 11 9 8 10 10 11 9 12
REMARK H PARENT 3 5
REMARK Flexibility Score: inf
ROOT
ATOM      1  C   UNL     1       8.432  -0.654  -2.117  1.00  0.00     0.127 C 
ENDROOT
BRANCH   1   2
ATOM      2  C   UNL     1       8.468  -1.918  -2.890  1.00  0.00     0.303 C 
ATOM      3  O   UNL     1       9.540  -2.512  -3.086  1.00  0.00    -0.252 OA
BRANCH   2   4
ATOM      4  O   UNL     1       7.295  -2.440  -3.399  1.00  0.00    -0.481 OA
ATOM      5  H   UNL     1       6.938  -2.183  -4.315  1.00  0.00     0.296 HD
ENDBRANCH   2   4
ENDBRANCH   1   2
BRANCH   1   6
ATOM      6  C   UNL     1       7.031  -0.095  -2.082  1.00  0.00     0.047 C 
BRANCH   6   7
ATOM      7  C   UNL     1       6.484  -0.008  -0.714  1.00  0.00    -0.047 A 
ATOM      8  C   UNL     1       6.572  -1.010   0.218  1.00  0.00     0.004 A 
ATOM      9  C   UNL     1       5.844   1.155  -0.357  1.00  0.00     0.004 A 
ATOM     10  C   UNL     1       6.030  -0.843   1.477  1.00  0.00     0.000 A 
ATOM     11  C   UNL     1       5.301   1.340   0.881  1.00  0.00     0.000 A 
ATOM     12  C   UNL     1       5.391   0.333   1.818  1.00  0.00     0.000 A 
ENDBRANCH   6   7
ENDBRANCH   1   6
TORSDOF 4
ENDMDL
MODEL 2
REMARK VINA RESULT:      -7.3      0.092      1.429
REMARK SMILES O=C(O)CCc1ccccc1
REMARK SMILES IDX 4 1 2 2 1 3 3 4 5 6 6 7 7 8 11 9 8 10 10 11 9 12
REMARK H PARENT 3 5
REMARK Flexibility Score: inf
ROOT
ATOM      1  C   UNL     1       8.423  -0.662  -2.121  1.00  0.00     0.127 C 
ENDROOT
BRANCH   1   2
ATOM      2  C   UNL     1       8.478  -1.919  -2.905  1.00  0.00     0.303 C 
ATOM      3  O   UNL     1       9.557  -2.502  -3.094  1.00  0.00    -0.252 OA
BRANCH   2   4
ATOM      4  O   UNL     1       7.315  -2.446  -3.431  1.00  0.00    -0.481 OA
ATOM      5  H   UNL     1       7.025  -2.273  -4.389  1.00  0.00     0.296 HD
ENDBRANCH   2   4
ENDBRANCH   1   2
BRANCH   1   6
ATOM      6  C   UNL     1       7.030  -0.082  -2.147  1.00  0.00     0.047 C 
BRANCH   6   7
ATOM      7  C   UNL     1       6.468   0.118  -0.798  1.00  0.00    -0.047 A 
ATOM      8  C   UNL     1       5.825   1.259  -0.391  1.00  0.00     0.004 A 
ATOM      9  C   UNL     1       6.603  -0.908   0.107  1.00  0.00     0.004 A 
ATOM     10  C   UNL     1       5.330   1.361   0.895  1.00  0.00     0.000 A 
ATOM     11  C   UNL     1       6.122  -0.826   1.381  1.00  0.00     0.000 A 
ATOM     12  C   UNL     1       5.474   0.320   1.790  1.00  0.00     0.000 A 
ENDBRANCH   6   7
ENDBRANCH   1   6
TORSDOF 4
ENDMDL
MODEL 3
REMARK VINA RESULT:      -6.8      3.370      5.081
REMARK SMILES O=C(O)CCc1ccccc1
REMARK SMILES IDX 4 1 2 2 1 3 3 4 5 6 6 7 7 8 11 9 8 10 10 11 9 12
REMARK H PARENT 3 5
REMARK Flexibility Score: inf
ROOT
ATOM      1  C   UNL     1       5.018   1.772   0.717  1.00  0.00     0.127 C 
ENDROOT
BRANCH   1   2
ATOM      2  C   UNL     1       4.493   1.095   1.927  1.00  0.00     0.303 C 
ATOM      3  O   UNL     1       5.142   0.196   2.483  1.00  0.00    -0.252 OA
BRANCH   2   4
ATOM      4  O   UNL     1       3.266   1.470   2.440  1.00  0.00    -0.481 OA
ATOM      5  H   UNL     1       2.748   2.268   2.082  1.00  0.00     0.296 HD
ENDBRANCH   2   4
ENDBRANCH   1   2
BRANCH   1   6
ATOM      6  C   UNL     1       6.523   1.856   0.768  1.00  0.00     0.047 C 
BRANCH   6   7
ATOM      7  C   UNL     1       7.176   1.099  -0.318  1.00  0.00    -0.047 A 
ATOM      8  C   UNL     1       8.500   1.217  -0.653  1.00  0.00     0.004 A 
ATOM      9  C   UNL     1       6.401   0.221  -1.037  1.00  0.00     0.004 A 
ATOM     10  C   UNL     1       9.028   0.469  -1.687  1.00  0.00     0.000 A 
ATOM     11  C   UNL     1       6.903  -0.527  -2.061  1.00  0.00     0.000 A 
ATOM     12  C   UNL     1       8.234  -0.409  -2.398  1.00  0.00     0.000 A 
ENDBRANCH   6   7
ENDBRANCH   1   6
TORSDOF 4
ENDMDL
MODEL 4
REMARK VINA RESULT:      -6.7      3.826      4.966
REMARK SMILES O=C(O)CCc1ccccc1
REMARK SMILES IDX 4 1 2 2 1 3 3 4 5 6 6 7 7 8 11 9 8 10 10 11 9 12
REMARK H PARENT 3 5
REMARK Flexibility Score: inf
ROOT
ATOM      1  C   UNL     1       5.497   2.875   0.006  1.00  0.00     0.127 C 
ENDROOT
BRANCH   1   2
ATOM      2  C   UNL     1       6.260   3.868   0.798  1.00  0.00     0.303 C 
ATOM      3  O   UNL     1       6.895   4.775   0.238  1.00  0.00    -0.252 OA
BRANCH   2   4
ATOM      4  O   UNL     1       6.265   3.782   2.177  1.00  0.00    -0.481 OA
ATOM      5  H   UNL     1       6.654   2.983   2.670  1.00  0.00     0.296 HD
ENDBRANCH   2   4
ENDBRANCH   1   2
BRANCH   1   6
ATOM      6  C   UNL     1       4.927   1.805   0.904  1.00  0.00     0.047 C 
BRANCH   6   7
ATOM      7  C   UNL     1       5.741   0.574   0.916  1.00  0.00    -0.047 A 
ATOM      8  C   UNL     1       6.479   0.126  -0.149  1.00  0.00     0.004 A 
ATOM      9  C   UNL     1       5.755  -0.168   2.073  1.00  0.00     0.004 A 
ATOM     10  C   UNL     1       7.212  -1.040  -0.050  1.00  0.00     0.000 A 
ATOM     11  C   UNL     1       6.472  -1.322   2.191  1.00  0.00     0.000 A 
ATOM     12  C   UNL     1       7.215  -1.773   1.121  1.00  0.00     0.000 A 
ENDBRANCH   6   7
ENDBRANCH   1   6
TORSDOF 4
ENDMDL
MODEL 5
REMARK VINA RESULT:      -6.7      1.931      2.313
REMARK SMILES O=C(O)CCc1ccccc1
REMARK SMILES IDX 4 1 2 2 1 3 3 4 5 6 6 7 7 8 11 9 8 10 10 11 9 12
REMARK H PARENT 3 5
REMARK Flexibility Score: inf
ROOT
ATOM      1  C   UNL     1       8.248   0.229  -2.190  1.00  0.00     0.127 C 
ENDROOT
BRANCH   1   2
ATOM      2  C   UNL     1       9.374   0.344  -1.232  1.00  0.00     0.303 C 
ATOM      3  O   UNL     1       9.451  -0.410  -0.249  1.00  0.00    -0.252 OA
BRANCH   2   4
ATOM      4  O   UNL     1      10.348   1.302  -1.436  1.00  0.00    -0.481 OA
ATOM      5  H   UNL     1      10.123   2.275  -1.619  1.00  0.00     0.296 HD
ENDBRANCH   2   4
ENDBRANCH   1   2
BRANCH   1   6
ATOM      6  C   UNL     1       7.111  -0.552  -1.580  1.00  0.00     0.047 C 
BRANCH   6   7
ATOM      7  C   UNL     1       6.345   0.229  -0.591  1.00  0.00    -0.047 A 
ATOM      8  C   UNL     1       6.108  -0.176   0.697  1.00  0.00     0.004 A 
ATOM      9  C   UNL     1       5.835   1.441  -0.993  1.00  0.00     0.004 A 
ATOM     10  C   UNL     1       5.377   0.621   1.558  1.00  0.00     0.000 A 
ATOM     11  C   UNL     1       5.111   2.242  -0.160  1.00  0.00     0.000 A 
ATOM     12  C   UNL     1       4.874   1.836   1.136  1.00  0.00     0.000 A 
ENDBRANCH   6   7
ENDBRANCH   1   6
TORSDOF 4
ENDMDL
