@<TRIPOS>MOLECULE
/home/cewinharhar/GITHUB/reincatalyze/data/processed/docking_pred/2023-Apr-25-1630_maxeplen5_maxtrainstep200_exh32_gamma099_lrac3e-4_lrcr1e-3/73f03501d88ed0f960f592fe5f6124e73644cb01_ligand_2.pdbqt
 12 12 0 0 0
SMALL
GASTEIGER

@<TRIPOS>ATOM
      1  C          5.0180    1.7720    0.7170 C.3     1  UNL1        0.1270
      2  C          4.4930    1.0950    1.9270 C.2     1  UNL1        0.3030
      3  O          5.1420    0.1960    2.4830 O.2     1  UNL1       -0.2520
      4  O          3.2660    1.4700    2.4400 O.3     1  UNL1       -0.4810
      5  H          2.7480    2.2680    2.0820 H       1  UNL1        0.2960
      6  C          6.5230    1.8560    0.7680 C.3     1  UNL1        0.0470
      7  C          7.1760    1.0990   -0.3180 C.2     1  UNL1       -0.0470
      8  C          8.5000    1.2170   -0.6530 C.2     1  UNL1        0.0040
      9  C          6.4010    0.2210   -1.0370 C.2     1  UNL1        0.0040
     10  C          9.0280    0.4690   -1.6870 C.2     1  UNL1        0.0000
     11  C          6.9030   -0.5270   -2.0610 C.2     1  UNL1        0.0000
     12  C          8.2340   -0.4090   -2.3980 C.2     1  UNL1        0.0000
@<TRIPOS>BOND
     1    12    11    2
     2    12    10    1
     3    11     9    1
     4    10     8    2
     5     9     7    2
     6     8     7    1
     7     7     6    1
     8     1     6    1
     9     1     2    1
    10     2     4    1
    11     2     3    2
    12     5     4    1
