@<TRIPOS>MOLECULE
/home/cewinharhar/GITHUB/reincatalyze/data/processed/docking_pred/2023-Apr-25-1630_maxeplen5_maxtrainstep200_exh32_gamma099_lrac3e-4_lrcr1e-3/7473f82790d6809f011fa27bf7bcba9a4b9bdb46_ligand_2.pdbqt
 12 12 0 0 0
SMALL
GASTEIGER

@<TRIPOS>ATOM
      1  C          5.9390   -0.7320    1.7240 C.3     1  UNL1        0.1270
      2  C          5.2650    0.5620    1.9820 C.2     1  UNL1        0.3030
      3  O          4.1240    0.5980    2.4690 O.2     1  UNL1       -0.2520
      4  O          5.9140    1.7430    1.6770 O.3     1  UNL1       -0.4810
      5  H          5.7130    2.6140    2.1610 H       1  UNL1        0.2960
      6  C          7.4060   -0.5180    1.4440 C.3     1  UNL1        0.0470
      7  C          7.7010   -0.3840    0.0050 C.2     1  UNL1       -0.0470
      8  C          8.6570    0.4520   -0.5130 C.2     1  UNL1        0.0040
      9  C          6.9640   -1.1470   -0.8710 C.2     1  UNL1        0.0040
     10  C          8.8660    0.5150   -1.8770 C.2     1  UNL1        0.0000
     11  C          7.1540   -1.0980   -2.2200 C.2     1  UNL1        0.0000
     12  C          8.1160   -0.2590   -2.7410 C.2     1  UNL1        0.0000
@<TRIPOS>BOND
     1    12    11    2
     2    12    10    1
     3    11     9    1
     4    10     8    2
     5     9     7    2
     6     8     7    1
     7     7     6    1
     8     6     1    1
     9     4     2    1
    10     4     5    1
    11     1     2    1
    12     2     3    2
