@<TRIPOS>MOLECULE
/home/cewinharhar/GITHUB/reincatalyze/data/processed/docking_pred/2023-Apr-25-1630_maxeplen5_maxtrainstep200_exh32_gamma099_lrac3e-4_lrcr1e-3/7473f82790d6809f011fa27bf7bcba9a4b9bdb46_ligand_2.pdbqt
 12 12 0 0 0
SMALL
GASTEIGER

@<TRIPOS>ATOM
      1  C          7.2770   -1.2650   -2.4210 C.3     1  UNL1        0.1270
      2  C          8.7450   -1.3780   -2.5920 C.2     1  UNL1        0.3030
      3  O          9.5090   -0.5330   -2.0980 O.2     1  UNL1       -0.2520
      4  O          9.2700   -2.4350   -3.3110 O.3     1  UNL1       -0.4810
      5  H         10.0380   -2.3180   -3.9660 H       1  UNL1        0.2960
      6  C          6.9160    0.0580   -1.7950 C.3     1  UNL1        0.0470
      7  C          6.4520   -0.0760   -0.4000 C.2     1  UNL1       -0.0470
      8  C          6.6740   -1.1780    0.3840 C.2     1  UNL1        0.0040
      9  C          5.7490    0.9740    0.1410 C.2     1  UNL1        0.0040
     10  C          6.2010   -1.2200    1.6820 C.2     1  UNL1        0.0000
     11  C          5.2730    0.9530    1.4190 C.2     1  UNL1        0.0000
     12  C          5.4980   -0.1550    2.2090 C.2     1  UNL1        0.0000
@<TRIPOS>BOND
     1     5     4    1
     2     4     2    1
     3     2     1    1
     4     2     3    2
     5     1     6    1
     6     6     7    1
     7     7     9    2
     8     7     8    1
     9     9    11    1
    10     8    10    2
    11    11    12    2
    12    10    12    1
