@<TRIPOS>MOLECULE
/home/cewinharhar/GITHUB/reincatalyze/data/processed/docking_pred/2023-Apr-25-1630_maxeplen5_maxtrainstep200_exh32_gamma099_lrac3e-4_lrcr1e-3/7473f82790d6809f011fa27bf7bcba9a4b9bdb46_ligand_2.pdbqt
 12 12 0 0 0
SMALL
GASTEIGER

@<TRIPOS>ATOM
      1  C          8.4270   -0.6100   -2.1830 C.3     1  UNL1        0.1270
      2  C          8.4860   -1.8970   -2.9150 C.2     1  UNL1        0.3030
      3  O          9.5660   -2.4880   -3.0730 O.2     1  UNL1       -0.2520
      4  O          7.3260   -2.4450   -3.4270 O.3     1  UNL1       -0.4810
      5  H          7.3360   -3.1600   -4.1490 H       1  UNL1        0.2960
      6  C          7.0020   -0.1240   -2.0810 C.3     1  UNL1        0.0470
      7  C          6.5110   -0.0770   -0.6900 C.2     1  UNL1       -0.0470
      8  C          5.8270    0.9800   -0.1480 C.2     1  UNL1        0.0040
      9  C          6.7600   -1.1670    0.1100 C.2     1  UNL1        0.0040
     10  C          5.4050    0.9390    1.1670 C.2     1  UNL1        0.0000
     11  C          6.3520   -1.2270    1.4100 C.2     1  UNL1        0.0000
     12  C          5.6640   -0.1650    1.9550 C.2     1  UNL1        0.0000
@<TRIPOS>BOND
     1     5     4    1
     2     4     2    1
     3     3     2    2
     4     2     1    1
     5     1     6    1
     6     6     7    1
     7     7     8    2
     8     7     9    1
     9     8    10    1
    10     9    11    2
    11    10    12    2
    12    11    12    1
