MODEL 1
REMARK VINA RESULT:      -7.3      0.000      0.000
REMARK SMILES O=C(O)CCc1ccccc1
REMARK SMILES IDX 4 1 2 2 1 3 3 4 5 6 6 7 7 8 11 9 8 10 10 11 9 12
REMARK H PARENT 3 5
REMARK Flexibility Score: inf
ROOT
ATOM      1  C   UNL     1       8.427  -0.610  -2.183  1.00  0.00     0.127 C 
ENDROOT
BRANCH   1   2
ATOM      2  C   UNL     1       8.486  -1.897  -2.915  1.00  0.00     0.303 C 
ATOM      3  O   UNL     1       9.566  -2.488  -3.073  1.00  0.00    -0.252 OA
BRANCH   2   4
ATOM      4  O   UNL     1       7.326  -2.445  -3.427  1.00  0.00    -0.481 OA
ATOM      5  H   UNL     1       7.336  -3.160  -4.149  1.00  0.00     0.296 HD
ENDBRANCH   2   4
ENDBRANCH   1   2
BRANCH   1   6
ATOM      6  C   UNL     1       7.002  -0.124  -2.081  1.00  0.00     0.047 C 
BRANCH   6   7
ATOM      7  C   UNL     1       6.511  -0.077  -0.690  1.00  0.00    -0.047 A 
ATOM      8  C   UNL     1       5.827   0.980  -0.148  1.00  0.00     0.004 A 
ATOM      9  C   UNL     1       6.760  -1.167   0.110  1.00  0.00     0.004 A 
ATOM     10  C   UNL     1       5.405   0.939   1.167  1.00  0.00     0.000 A 
ATOM     11  C   UNL     1       6.352  -1.227   1.410  1.00  0.00     0.000 A 
ATOM     12  C   UNL     1       5.664  -0.165   1.955  1.00  0.00     0.000 A 
ENDBRANCH   6   7
ENDBRANCH   1   6
TORSDOF 4
ENDMDL
MODEL 2
REMARK VINA RESULT:      -7.2      0.138      1.433
REMARK SMILES O=C(O)CCc1ccccc1
REMARK SMILES IDX 4 1 2 2 1 3 3 4 5 6 6 7 7 8 11 9 8 10 10 11 9 12
REMARK H PARENT 3 5
REMARK Flexibility Score: inf
ROOT
ATOM      1  C   UNL     1       8.426  -0.553  -2.269  1.00  0.00     0.127 C 
ENDROOT
BRANCH   1   2
ATOM      2  C   UNL     1       8.480  -1.872  -2.942  1.00  0.00     0.303 C 
ATOM      3  O   UNL     1       9.554  -2.483  -3.058  1.00  0.00    -0.252 OA
BRANCH   2   4
ATOM      4  O   UNL     1       7.321  -2.429  -3.447  1.00  0.00    -0.481 OA
ATOM      5  H   UNL     1       6.971  -3.331  -3.137  1.00  0.00     0.296 HD
ENDBRANCH   2   4
ENDBRANCH   1   2
BRANCH   1   6
ATOM      6  C   UNL     1       6.996  -0.139  -2.028  1.00  0.00     0.047 C 
BRANCH   6   7
ATOM      7  C   UNL     1       6.608  -0.218  -0.607  1.00  0.00    -0.047 A 
ATOM      8  C   UNL     1       6.893  -1.280   0.213  1.00  0.00     0.004 A 
ATOM      9  C   UNL     1       5.916   0.844  -0.075  1.00  0.00     0.004 A 
ATOM     10  C   UNL     1       6.490  -1.270   1.535  1.00  0.00     0.000 A 
ATOM     11  C   UNL     1       5.509   0.873   1.226  1.00  0.00     0.000 A 
ATOM     12  C   UNL     1       5.796  -0.194   2.051  1.00  0.00     0.000 A 
ENDBRANCH   6   7
ENDBRANCH   1   6
TORSDOF 4
ENDMDL
MODEL 3
REMARK VINA RESULT:      -6.9      0.826      1.754
REMARK SMILES O=C(O)CCc1ccccc1
REMARK SMILES IDX 4 1 2 2 1 3 3 4 5 6 6 7 7 8 11 9 8 10 10 11 9 12
REMARK H PARENT 3 5
REMARK Flexibility Score: inf
ROOT
ATOM      1  C   UNL     1       7.277  -1.265  -2.421  1.00  0.00     0.127 C 
ENDROOT
BRANCH   1   2
ATOM      2  C   UNL     1       8.745  -1.378  -2.592  1.00  0.00     0.303 C 
ATOM      3  O   UNL     1       9.509  -0.533  -2.098  1.00  0.00    -0.252 OA
BRANCH   2   4
ATOM      4  O   UNL     1       9.270  -2.435  -3.311  1.00  0.00    -0.481 OA
ATOM      5  H   UNL     1      10.038  -2.318  -3.966  1.00  0.00     0.296 HD
ENDBRANCH   2   4
ENDBRANCH   1   2
BRANCH   1   6
ATOM      6  C   UNL     1       6.916   0.058  -1.795  1.00  0.00     0.047 C 
BRANCH   6   7
ATOM      7  C   UNL     1       6.452  -0.076  -0.400  1.00  0.00    -0.047 A 
ATOM      8  C   UNL     1       6.674  -1.178   0.384  1.00  0.00     0.004 A 
ATOM      9  C   UNL     1       5.749   0.974   0.141  1.00  0.00     0.004 A 
ATOM     10  C   UNL     1       6.201  -1.220   1.682  1.00  0.00     0.000 A 
ATOM     11  C   UNL     1       5.273   0.953   1.419  1.00  0.00     0.000 A 
ATOM     12  C   UNL     1       5.498  -0.155   2.209  1.00  0.00     0.000 A 
ENDBRANCH   6   7
ENDBRANCH   1   6
TORSDOF 4
ENDMDL
MODEL 4
REMARK VINA RESULT:      -6.6      3.205      4.906
REMARK SMILES O=C(O)CCc1ccccc1
REMARK SMILES IDX 4 1 2 2 1 3 3 4 5 6 6 7 7 8 11 9 8 10 10 11 9 12
REMARK H PARENT 3 5
REMARK Flexibility Score: inf
ROOT
ATOM      1  C   UNL     1       5.939  -0.732   1.724  1.00  0.00     0.127 C 
ENDROOT
BRANCH   1   2
ATOM      2  C   UNL     1       5.265   0.562   1.982  1.00  0.00     0.303 C 
ATOM      3  O   UNL     1       4.124   0.598   2.469  1.00  0.00    -0.252 OA
BRANCH   2   4
ATOM      4  O   UNL     1       5.914   1.743   1.677  1.00  0.00    -0.481 OA
ATOM      5  H   UNL     1       5.713   2.614   2.161  1.00  0.00     0.296 HD
ENDBRANCH   2   4
ENDBRANCH   1   2
BRANCH   1   6
ATOM      6  C   UNL     1       7.406  -0.518   1.444  1.00  0.00     0.047 C 
BRANCH   6   7
ATOM      7  C   UNL     1       7.701  -0.384   0.005  1.00  0.00    -0.047 A 
ATOM      8  C   UNL     1       8.657   0.452  -0.513  1.00  0.00     0.004 A 
ATOM      9  C   UNL     1       6.964  -1.147  -0.871  1.00  0.00     0.004 A 
ATOM     10  C   UNL     1       8.866   0.515  -1.877  1.00  0.00     0.000 A 
ATOM     11  C   UNL     1       7.154  -1.098  -2.220  1.00  0.00     0.000 A 
ATOM     12  C   UNL     1       8.116  -0.259  -2.741  1.00  0.00     0.000 A 
ENDBRANCH   6   7
ENDBRANCH   1   6
TORSDOF 4
ENDMDL
MODEL 5
REMARK VINA RESULT:      -6.6      3.101      4.852
REMARK SMILES O=C(O)CCc1ccccc1
REMARK SMILES IDX 4 1 2 2 1 3 3 4 5 6 6 7 7 8 11 9 8 10 10 11 9 12
REMARK H PARENT 3 5
REMARK Flexibility Score: inf
ROOT
ATOM      1  C   UNL     1       6.092   1.385   1.224  1.00  0.00     0.127 C 
ENDROOT
BRANCH   1   2
ATOM      2  C   UNL     1       5.238   0.483   2.032  1.00  0.00     0.303 C 
ATOM      3  O   UNL     1       5.623  -0.659   2.329  1.00  0.00    -0.252 OA
BRANCH   2   4
ATOM      4  O   UNL     1       3.997   0.918   2.458  1.00  0.00    -0.481 OA
ATOM      5  H   UNL     1       3.243   1.128   1.810  1.00  0.00     0.296 HD
ENDBRANCH   2   4
ENDBRANCH   1   2
BRANCH   1   6
ATOM      6  C   UNL     1       5.772   1.245  -0.244  1.00  0.00     0.047 C 
BRANCH   6   7
ATOM      7  C   UNL     1       6.829   0.542  -0.996  1.00  0.00    -0.047 A 
ATOM      8  C   UNL     1       6.614  -0.561  -1.782  1.00  0.00     0.004 A 
ATOM      9  C   UNL     1       8.111   1.027  -0.896  1.00  0.00     0.004 A 
ATOM     10  C   UNL     1       7.665  -1.158  -2.451  1.00  0.00     0.000 A 
ATOM     11  C   UNL     1       9.162   0.452  -1.548  1.00  0.00     0.000 A 
ATOM     12  C   UNL     1       8.946  -0.656  -2.340  1.00  0.00     0.000 A 
ENDBRANCH   6   7
ENDBRANCH   1   6
TORSDOF 4
ENDMDL
