@<TRIPOS>MOLECULE
/home/cewinharhar/GITHUB/reincatalyze/data/processed/docking_pred/2023-Apr-25-1630_maxeplen5_maxtrainstep200_exh32_gamma099_lrac3e-4_lrcr1e-3/7473f82790d6809f011fa27bf7bcba9a4b9bdb46_ligand_2.pdbqt
 12 12 0 0 0
SMALL
GASTEIGER

@<TRIPOS>ATOM
      1  C          8.4260   -0.5530   -2.2690 C.3     1  UNL1        0.1270
      2  C          8.4800   -1.8720   -2.9420 C.2     1  UNL1        0.3030
      3  O          9.5540   -2.4830   -3.0580 O.2     1  UNL1       -0.2520
      4  O          7.3210   -2.4290   -3.4470 O.3     1  UNL1       -0.4810
      5  H          6.9710   -3.3310   -3.1370 H       1  UNL1        0.2960
      6  C          6.9960   -0.1390   -2.0280 C.3     1  UNL1        0.0470
      7  C          6.6080   -0.2180   -0.6070 C.2     1  UNL1       -0.0470
      8  C          6.8930   -1.2800    0.2130 C.2     1  UNL1        0.0040
      9  C          5.9160    0.8440   -0.0750 C.2     1  UNL1        0.0040
     10  C          6.4900   -1.2700    1.5350 C.2     1  UNL1        0.0000
     11  C          5.5090    0.8730    1.2260 C.2     1  UNL1        0.0000
     12  C          5.7960   -0.1940    2.0510 C.2     1  UNL1        0.0000
@<TRIPOS>BOND
     1     4     5    1
     2     4     2    1
     3     3     2    2
     4     2     1    1
     5     1     6    1
     6     6     7    1
     7     7     9    2
     8     7     8    1
     9     9    11    1
    10     8    10    2
    11    11    12    2
    12    10    12    1
