@<TRIPOS>MOLECULE
/home/cewinharhar/GITHUB/reincatalyze/data/processed/docking_pred/2023-Apr-25-1630_maxeplen5_maxtrainstep200_exh32_gamma099_lrac3e-4_lrcr1e-3/7473f82790d6809f011fa27bf7bcba9a4b9bdb46_ligand_2.pdbqt
 12 12 0 0 0
SMALL
GASTEIGER

@<TRIPOS>ATOM
      1  C          6.0920    1.3850    1.2240 C.3     1  UNL1        0.1270
      2  C          5.2380    0.4830    2.0320 C.2     1  UNL1        0.3030
      3  O          5.6230   -0.6590    2.3290 O.2     1  UNL1       -0.2520
      4  O          3.9970    0.9180    2.4580 O.3     1  UNL1       -0.4810
      5  H          3.2430    1.1280    1.8100 H       1  UNL1        0.2960
      6  C          5.7720    1.2450   -0.2440 C.3     1  UNL1        0.0470
      7  C          6.8290    0.5420   -0.9960 C.2     1  UNL1       -0.0470
      8  C          6.6140   -0.5610   -1.7820 C.2     1  UNL1        0.0040
      9  C          8.1110    1.0270   -0.8960 C.2     1  UNL1        0.0040
     10  C          7.6650   -1.1580   -2.4510 C.2     1  UNL1        0.0000
     11  C          9.1620    0.4520   -1.5480 C.2     1  UNL1        0.0000
     12  C          8.9460   -0.6560   -2.3400 C.2     1  UNL1        0.0000
@<TRIPOS>BOND
     1    10    12    2
     2    10     8    1
     3    12    11    1
     4     8     7    2
     5    11     9    2
     6     7     9    1
     7     7     6    1
     8     6     1    1
     9     1     2    1
    10     5     4    1
    11     2     3    2
    12     2     4    1
