@<TRIPOS>MOLECULE
/home/cewinharhar/GITHUB/reincatalyze/data/processed/docking_pred/2023-Apr-25-1630_maxeplen5_maxtrainstep200_exh32_gamma099_lrac3e-4_lrcr1e-3/79495f175fd15f32955b26bb978cae7af324a937_ligand_2.pdbqt
 12 12 0 0 0
SMALL
GASTEIGER

@<TRIPOS>ATOM
      1  C          8.3900   -0.6910   -2.0580 C.3     1  UNL1        0.1270
      2  C          8.3630   -1.9230   -2.8810 C.2     1  UNL1        0.3030
      3  O          7.2870   -2.4150   -3.2530 O.2     1  UNL1       -0.2520
      4  O          9.5510   -2.5310   -3.2390 O.3     1  UNL1       -0.4810
      5  H         10.4190   -2.3670   -2.7350 H       1  UNL1        0.2960
      6  C          7.0480   -0.0030   -2.0880 C.3     1  UNL1        0.0470
      7  C          6.4590    0.1620   -0.7460 C.2     1  UNL1       -0.0470
      8  C          5.7870    1.2830   -0.3310 C.2     1  UNL1        0.0040
      9  C          6.5970   -0.8770    0.1430 C.2     1  UNL1        0.0040
     10  C          5.2670    1.3530    0.9480 C.2     1  UNL1        0.0000
     11  C          6.0920   -0.8270    1.4090 C.2     1  UNL1        0.0000
     12  C          5.4160    0.2990    1.8270 C.2     1  UNL1        0.0000
@<TRIPOS>BOND
     1     3     2    2
     2     4     2    1
     3     4     5    1
     4     2     1    1
     5     6     1    1
     6     6     7    1
     7     7     8    2
     8     7     9    1
     9     8    10    1
    10     9    11    2
    11    10    12    2
    12    11    12    1
