@<TRIPOS>MOLECULE
/home/cewinharhar/GITHUB/reincatalyze/data/processed/docking_pred/2023-Apr-25-1630_maxeplen5_maxtrainstep200_exh32_gamma099_lrac3e-4_lrcr1e-3/79495f175fd15f32955b26bb978cae7af324a937_ligand_2.pdbqt
 12 12 0 0 0
SMALL
GASTEIGER

@<TRIPOS>ATOM
      1  C          5.0000    1.7790    0.7150 C.3     1  UNL1        0.1270
      2  C          4.4880    1.0970    1.9270 C.2     1  UNL1        0.3030
      3  O          5.1470    0.2020    2.4790 O.2     1  UNL1       -0.2520
      4  O          3.2620    1.4610    2.4490 O.3     1  UNL1       -0.4810
      5  H          2.5400    1.9010    1.8840 H       1  UNL1        0.2960
      6  C          6.5040    1.8880    0.7640 C.3     1  UNL1        0.0470
      7  C          7.1670    1.1360   -0.3190 C.2     1  UNL1       -0.0470
      8  C          8.5020    1.2310   -0.6190 C.2     1  UNL1        0.0040
      9  C          6.3920    0.2880   -1.0730 C.2     1  UNL1        0.0040
     10  C          9.0400    0.4900   -1.6520 C.2     1  UNL1        0.0000
     11  C          6.9040   -0.4520   -2.0980 C.2     1  UNL1        0.0000
     12  C          8.2460   -0.3570   -2.3990 C.2     1  UNL1        0.0000
@<TRIPOS>BOND
     1    12    11    2
     2    12    10    1
     3    11     9    1
     4    10     8    2
     5     9     7    2
     6     8     7    1
     7     7     6    1
     8     1     6    1
     9     1     2    1
    10     5     4    1
    11     2     4    1
    12     2     3    2
