@<TRIPOS>MOLECULE
/home/cewinharhar/GITHUB/reincatalyze/data/processed/docking_pred/2023-Apr-25-1630_maxeplen5_maxtrainstep200_exh32_gamma099_lrac3e-4_lrcr1e-3/79495f175fd15f32955b26bb978cae7af324a937_ligand_2.pdbqt
 12 12 0 0 0
SMALL
GASTEIGER

@<TRIPOS>ATOM
      1  C          8.2580    0.1690   -2.1850 C.3     1  UNL1        0.1270
      2  C          9.3680    0.3350   -1.2170 C.2     1  UNL1        0.3030
      3  O          9.4580   -0.4020   -0.2220 O.2     1  UNL1       -0.2520
      4  O         10.3120    1.3220   -1.4230 O.3     1  UNL1       -0.4810
      5  H         10.2500    1.9800   -2.1950 H       1  UNL1        0.2960
      6  C          7.0960   -0.5450   -1.5430 C.3     1  UNL1        0.0470
      7  C          6.3150    0.3260   -0.6430 C.2     1  UNL1       -0.0470
      8  C          5.8000    1.5450   -1.0040 C.2     1  UNL1        0.0040
      9  C          6.0940   -0.1170    0.6390 C.2     1  UNL1        0.0040
     10  C          5.0810    2.2960   -0.0950 C.2     1  UNL1        0.0000
     11  C          5.3870    0.6090    1.5510 C.2     1  UNL1        0.0000
     12  C          4.8690    1.8340    1.1890 C.2     1  UNL1        0.0000
@<TRIPOS>BOND
     1     5     4    1
     2     1     6    1
     3     1     2    1
     4     6     7    1
     5     4     2    1
     6     2     3    2
     7     8     7    2
     8     8    10    1
     9     7     9    1
    10    10    12    2
    11     9    11    2
    12    12    11    1
