MODEL 1
REMARK VINA RESULT:      -7.3      0.000      0.000
REMARK SMILES O=C(O)CCc1ccccc1
REMARK SMILES IDX 4 1 2 2 1 3 3 4 5 6 6 7 7 8 11 9 8 10 10 11 9 12
REMARK H PARENT 3 5
REMARK Flexibility Score: inf
ROOT
ATOM      1  C   UNL     1       8.424  -0.592  -2.227  1.00  0.00     0.127 C 
ENDROOT
BRANCH   1   2
ATOM      2  C   UNL     1       8.483  -1.899  -2.924  1.00  0.00     0.303 C 
ATOM      3  O   UNL     1       9.564  -2.485  -3.086  1.00  0.00    -0.252 OA
BRANCH   2   4
ATOM      4  O   UNL     1       7.319  -2.471  -3.401  1.00  0.00    -0.481 OA
ATOM      5  H   UNL     1       7.211  -2.758  -4.370  1.00  0.00     0.296 HD
ENDBRANCH   2   4
ENDBRANCH   1   2
BRANCH   1   6
ATOM      6  C   UNL     1       7.005  -0.085  -2.171  1.00  0.00     0.047 C 
BRANCH   6   7
ATOM      7  C   UNL     1       6.486   0.012  -0.793  1.00  0.00    -0.047 A 
ATOM      8  C   UNL     1       6.584  -0.987   0.141  1.00  0.00     0.004 A 
ATOM      9  C   UNL     1       5.862   1.182  -0.428  1.00  0.00     0.004 A 
ATOM     10  C   UNL     1       6.068  -0.810   1.410  1.00  0.00     0.000 A 
ATOM     11  C   UNL     1       5.345   1.375   0.819  1.00  0.00     0.000 A 
ATOM     12  C   UNL     1       5.445   0.371   1.759  1.00  0.00     0.000 A 
ENDBRANCH   6   7
ENDBRANCH   1   6
TORSDOF 4
ENDMDL
MODEL 2
REMARK VINA RESULT:      -7.3      0.142      1.726
REMARK SMILES O=C(O)CCc1ccccc1
REMARK SMILES IDX 4 1 2 2 1 3 3 4 5 6 6 7 7 8 11 9 8 10 10 11 9 12
REMARK H PARENT 3 5
REMARK Flexibility Score: inf
ROOT
ATOM      1  C   UNL     1       8.390  -0.691  -2.058  1.00  0.00     0.127 C 
ENDROOT
BRANCH   1   2
ATOM      2  C   UNL     1       8.363  -1.923  -2.881  1.00  0.00     0.303 C 
ATOM      3  O   UNL     1       7.287  -2.415  -3.253  1.00  0.00    -0.252 OA
BRANCH   2   4
ATOM      4  O   UNL     1       9.551  -2.531  -3.239  1.00  0.00    -0.481 OA
ATOM      5  H   UNL     1      10.419  -2.367  -2.735  1.00  0.00     0.296 HD
ENDBRANCH   2   4
ENDBRANCH   1   2
BRANCH   1   6
ATOM      6  C   UNL     1       7.048  -0.003  -2.088  1.00  0.00     0.047 C 
BRANCH   6   7
ATOM      7  C   UNL     1       6.459   0.162  -0.746  1.00  0.00    -0.047 A 
ATOM      8  C   UNL     1       5.787   1.283  -0.331  1.00  0.00     0.004 A 
ATOM      9  C   UNL     1       6.597  -0.877   0.143  1.00  0.00     0.004 A 
ATOM     10  C   UNL     1       5.267   1.353   0.948  1.00  0.00     0.000 A 
ATOM     11  C   UNL     1       6.092  -0.827   1.409  1.00  0.00     0.000 A 
ATOM     12  C   UNL     1       5.416   0.299   1.827  1.00  0.00     0.000 A 
ENDBRANCH   6   7
ENDBRANCH   1   6
TORSDOF 4
ENDMDL
MODEL 3
REMARK VINA RESULT:      -6.8      3.378      5.077
REMARK SMILES O=C(O)CCc1ccccc1
REMARK SMILES IDX 4 1 2 2 1 3 3 4 5 6 6 7 7 8 11 9 8 10 10 11 9 12
REMARK H PARENT 3 5
REMARK Flexibility Score: inf
ROOT
ATOM      1  C   UNL     1       5.000   1.779   0.715  1.00  0.00     0.127 C 
ENDROOT
BRANCH   1   2
ATOM      2  C   UNL     1       4.488   1.097   1.927  1.00  0.00     0.303 C 
ATOM      3  O   UNL     1       5.147   0.202   2.479  1.00  0.00    -0.252 OA
BRANCH   2   4
ATOM      4  O   UNL     1       3.262   1.461   2.449  1.00  0.00    -0.481 OA
ATOM      5  H   UNL     1       2.540   1.901   1.884  1.00  0.00     0.296 HD
ENDBRANCH   2   4
ENDBRANCH   1   2
BRANCH   1   6
ATOM      6  C   UNL     1       6.504   1.888   0.764  1.00  0.00     0.047 C 
BRANCH   6   7
ATOM      7  C   UNL     1       7.167   1.136  -0.319  1.00  0.00    -0.047 A 
ATOM      8  C   UNL     1       8.502   1.231  -0.619  1.00  0.00     0.004 A 
ATOM      9  C   UNL     1       6.392   0.288  -1.073  1.00  0.00     0.004 A 
ATOM     10  C   UNL     1       9.040   0.490  -1.652  1.00  0.00     0.000 A 
ATOM     11  C   UNL     1       6.904  -0.452  -2.098  1.00  0.00     0.000 A 
ATOM     12  C   UNL     1       8.246  -0.357  -2.399  1.00  0.00     0.000 A 
ENDBRANCH   6   7
ENDBRANCH   1   6
TORSDOF 4
ENDMDL
MODEL 4
REMARK VINA RESULT:      -6.6      1.936      2.661
REMARK SMILES O=C(O)CCc1ccccc1
REMARK SMILES IDX 4 1 2 2 1 3 3 4 5 6 6 7 7 8 11 9 8 10 10 11 9 12
REMARK H PARENT 3 5
REMARK Flexibility Score: inf
ROOT
ATOM      1  C   UNL     1       8.258   0.169  -2.185  1.00  0.00     0.127 C 
ENDROOT
BRANCH   1   2
ATOM      2  C   UNL     1       9.368   0.335  -1.217  1.00  0.00     0.303 C 
ATOM      3  O   UNL     1       9.458  -0.402  -0.222  1.00  0.00    -0.252 OA
BRANCH   2   4
ATOM      4  O   UNL     1      10.312   1.322  -1.423  1.00  0.00    -0.481 OA
ATOM      5  H   UNL     1      10.250   1.980  -2.195  1.00  0.00     0.296 HD
ENDBRANCH   2   4
ENDBRANCH   1   2
BRANCH   1   6
ATOM      6  C   UNL     1       7.096  -0.545  -1.543  1.00  0.00     0.047 C 
BRANCH   6   7
ATOM      7  C   UNL     1       6.315   0.326  -0.643  1.00  0.00    -0.047 A 
ATOM      8  C   UNL     1       5.800   1.545  -1.004  1.00  0.00     0.004 A 
ATOM      9  C   UNL     1       6.094  -0.117   0.639  1.00  0.00     0.004 A 
ATOM     10  C   UNL     1       5.081   2.296  -0.095  1.00  0.00     0.000 A 
ATOM     11  C   UNL     1       5.387   0.609   1.551  1.00  0.00     0.000 A 
ATOM     12  C   UNL     1       4.869   1.834   1.189  1.00  0.00     0.000 A 
ENDBRANCH   6   7
ENDBRANCH   1   6
TORSDOF 4
ENDMDL
MODEL 5
REMARK VINA RESULT:      -6.6      3.811      4.944
REMARK SMILES O=C(O)CCc1ccccc1
REMARK SMILES IDX 4 1 2 2 1 3 3 4 5 6 6 7 7 8 11 9 8 10 10 11 9 12
REMARK H PARENT 3 5
REMARK Flexibility Score: inf
ROOT
ATOM      1  C   UNL     1       5.447   2.845   0.115  1.00  0.00     0.127 C 
ENDROOT
BRANCH   1   2
ATOM      2  C   UNL     1       6.252   3.805   0.907  1.00  0.00     0.303 C 
ATOM      3  O   UNL     1       6.270   3.748   2.147  1.00  0.00    -0.252 OA
BRANCH   2   4
ATOM      4  O   UNL     1       6.991   4.775   0.258  1.00  0.00    -0.481 OA
ATOM      5  H   UNL     1       7.626   4.555  -0.504  1.00  0.00     0.296 HD
ENDBRANCH   2   4
ENDBRANCH   1   2
BRANCH   1   6
ATOM      6  C   UNL     1       4.888   1.762   1.004  1.00  0.00     0.047 C 
BRANCH   6   7
ATOM      7  C   UNL     1       5.702   0.531   0.987  1.00  0.00    -0.047 A 
ATOM      8  C   UNL     1       5.839  -0.318   2.055  1.00  0.00     0.004 A 
ATOM      9  C   UNL     1       6.364   0.222  -0.177  1.00  0.00     0.004 A 
ATOM     10  C   UNL     1       6.624  -1.450   1.951  1.00  0.00     0.000 A 
ATOM     11  C   UNL     1       7.144  -0.891  -0.300  1.00  0.00     0.000 A 
ATOM     12  C   UNL     1       7.282  -1.745   0.773  1.00  0.00     0.000 A 
ENDBRANCH   6   7
ENDBRANCH   1   6
TORSDOF 4
ENDMDL
