@<TRIPOS>MOLECULE
/home/cewinharhar/GITHUB/reincatalyze/data/processed/docking_pred/2023-Apr-25-1630_maxeplen5_maxtrainstep200_exh32_gamma099_lrac3e-4_lrcr1e-3/79495f175fd15f32955b26bb978cae7af324a937_ligand_2.pdbqt
 12 12 0 0 0
SMALL
GASTEIGER

@<TRIPOS>ATOM
      1  C          5.4470    2.8450    0.1150 C.3     1  UNL1        0.1270
      2  C          6.2520    3.8050    0.9070 C.2     1  UNL1        0.3030
      3  O          6.2700    3.7480    2.1470 O.2     1  UNL1       -0.2520
      4  O          6.9910    4.7750    0.2580 O.3     1  UNL1       -0.4810
      5  H          7.6260    4.5550   -0.5040 H       1  UNL1        0.2960
      6  C          4.8880    1.7620    1.0040 C.3     1  UNL1        0.0470
      7  C          5.7020    0.5310    0.9870 C.2     1  UNL1       -0.0470
      8  C          5.8390   -0.3180    2.0550 C.2     1  UNL1        0.0040
      9  C          6.3640    0.2220   -0.1770 C.2     1  UNL1        0.0040
     10  C          6.6240   -1.4500    1.9510 C.2     1  UNL1        0.0000
     11  C          7.1440   -0.8910   -0.3000 C.2     1  UNL1        0.0000
     12  C          7.2820   -1.7450    0.7730 C.2     1  UNL1        0.0000
@<TRIPOS>BOND
     1     5     4    1
     2    11     9    1
     3    11    12    2
     4     9     7    2
     5     1     2    1
     6     1     6    1
     7     4     2    1
     8    12    10    1
     9     2     3    2
    10     7     6    1
    11     7     8    1
    12    10     8    2
