@<TRIPOS>MOLECULE
/home/cewinharhar/GITHUB/reincatalyze/data/processed/docking_pred/2023-Apr-25-1630_maxeplen5_maxtrainstep200_exh32_gamma099_lrac3e-4_lrcr1e-3/7ac8f9624e71b352d93dccd4dc48cb56e96c53c0_ligand_2.pdbqt
 12 12 0 0 0
SMALL
GASTEIGER

@<TRIPOS>ATOM
      1  C          8.4120   -0.6400   -2.1230 C.3     1  UNL1        0.1270
      2  C          8.4620   -1.9020   -2.8980 C.2     1  UNL1        0.3030
      3  O          9.5380   -2.4910   -3.0850 O.2     1  UNL1       -0.2520
      4  O          7.2950   -2.4290   -3.4190 O.3     1  UNL1       -0.4810
      5  H          6.5770   -1.8470   -3.8400 H       1  UNL1        0.2960
      6  C          7.0160   -0.0710   -2.1260 C.3     1  UNL1        0.0470
      7  C          6.4640    0.1000   -0.7680 C.2     1  UNL1       -0.0470
      8  C          5.8280    1.2340   -0.3300 C.2     1  UNL1        0.0040
      9  C          6.6000   -0.9470    0.1110 C.2     1  UNL1        0.0040
     10  C          5.3430    1.3080    0.9610 C.2     1  UNL1        0.0000
     11  C          6.1280   -0.8940    1.3900 C.2     1  UNL1        0.0000
     12  C          5.4890    0.2450    1.8300 C.2     1  UNL1        0.0000
@<TRIPOS>BOND
     1     5     4    1
     2     4     2    1
     3     3     2    2
     4     2     1    1
     5     6     1    1
     6     6     7    1
     7     7     8    2
     8     7     9    1
     9     8    10    1
    10     9    11    2
    11    10    12    2
    12    11    12    1
