MODEL 1
REMARK VINA RESULT:      -7.4      0.000      0.000
REMARK SMILES O=C(O)CCc1ccccc1
REMARK SMILES IDX 4 1 2 2 1 3 3 4 5 6 6 7 7 8 11 9 8 10 10 11 9 12
REMARK H PARENT 3 5
REMARK Flexibility Score: inf
ROOT
ATOM      1  C   UNL     1       8.412  -0.640  -2.123  1.00  0.00     0.127 C 
ENDROOT
BRANCH   1   2
ATOM      2  C   UNL     1       8.462  -1.902  -2.898  1.00  0.00     0.303 C 
ATOM      3  O   UNL     1       9.538  -2.491  -3.085  1.00  0.00    -0.252 OA
BRANCH   2   4
ATOM      4  O   UNL     1       7.295  -2.429  -3.419  1.00  0.00    -0.481 OA
ATOM      5  H   UNL     1       6.577  -1.847  -3.840  1.00  0.00     0.296 HD
ENDBRANCH   2   4
ENDBRANCH   1   2
BRANCH   1   6
ATOM      6  C   UNL     1       7.016  -0.071  -2.126  1.00  0.00     0.047 C 
BRANCH   6   7
ATOM      7  C   UNL     1       6.464   0.100  -0.768  1.00  0.00    -0.047 A 
ATOM      8  C   UNL     1       5.828   1.234  -0.330  1.00  0.00     0.004 A 
ATOM      9  C   UNL     1       6.600  -0.947   0.111  1.00  0.00     0.004 A 
ATOM     10  C   UNL     1       5.343   1.308   0.961  1.00  0.00     0.000 A 
ATOM     11  C   UNL     1       6.128  -0.894   1.390  1.00  0.00     0.000 A 
ATOM     12  C   UNL     1       5.489   0.245   1.830  1.00  0.00     0.000 A 
ENDBRANCH   6   7
ENDBRANCH   1   6
TORSDOF 4
ENDMDL
MODEL 2
REMARK VINA RESULT:      -7.3      0.144      1.724
REMARK SMILES O=C(O)CCc1ccccc1
REMARK SMILES IDX 4 1 2 2 1 3 3 4 5 6 6 7 7 8 11 9 8 10 10 11 9 12
REMARK H PARENT 3 5
REMARK Flexibility Score: inf
ROOT
ATOM      1  C   UNL     1       8.434  -0.681  -2.090  1.00  0.00     0.127 C 
ENDROOT
BRANCH   1   2
ATOM      2  C   UNL     1       8.388  -1.930  -2.887  1.00  0.00     0.303 C 
ATOM      3  O   UNL     1       7.303  -2.424  -3.232  1.00  0.00    -0.252 OA
BRANCH   2   4
ATOM      4  O   UNL     1       9.567  -2.553  -3.248  1.00  0.00    -0.481 OA
ATOM      5  H   UNL     1       9.949  -3.337  -2.727  1.00  0.00     0.296 HD
ENDBRANCH   2   4
ENDBRANCH   1   2
BRANCH   1   6
ATOM      6  C   UNL     1       7.081  -0.014  -2.072  1.00  0.00     0.047 C 
BRANCH   6   7
ATOM      7  C   UNL     1       6.504   0.073  -0.717  1.00  0.00    -0.047 A 
ATOM      8  C   UNL     1       6.596  -0.917   0.226  1.00  0.00     0.004 A 
ATOM      9  C   UNL     1       5.830   1.224  -0.385  1.00  0.00     0.004 A 
ATOM     10  C   UNL     1       6.023  -0.751   1.472  1.00  0.00     0.000 A 
ATOM     11  C   UNL     1       5.257   1.408   0.839  1.00  0.00     0.000 A 
ATOM     12  C   UNL     1       5.350   0.412   1.788  1.00  0.00     0.000 A 
ENDBRANCH   6   7
ENDBRANCH   1   6
TORSDOF 4
ENDMDL
MODEL 3
REMARK VINA RESULT:      -6.8      3.374      5.079
REMARK SMILES O=C(O)CCc1ccccc1
REMARK SMILES IDX 4 1 2 2 1 3 3 4 5 6 6 7 7 8 11 9 8 10 10 11 9 12
REMARK H PARENT 3 5
REMARK Flexibility Score: inf
ROOT
ATOM      1  C   UNL     1       4.994   1.777   0.716  1.00  0.00     0.127 C 
ENDROOT
BRANCH   1   2
ATOM      2  C   UNL     1       4.478   1.099   1.929  1.00  0.00     0.303 C 
ATOM      3  O   UNL     1       5.132   0.200   2.480  1.00  0.00    -0.252 OA
BRANCH   2   4
ATOM      4  O   UNL     1       3.255   1.473   2.452  1.00  0.00    -0.481 OA
ATOM      5  H   UNL     1       2.642   2.132   1.981  1.00  0.00     0.296 HD
ENDBRANCH   2   4
ENDBRANCH   1   2
BRANCH   1   6
ATOM      6  C   UNL     1       6.502   1.809   0.727  1.00  0.00     0.047 C 
BRANCH   6   7
ATOM      7  C   UNL     1       7.100   1.000  -0.352  1.00  0.00    -0.047 A 
ATOM      8  C   UNL     1       6.420   0.052  -1.073  1.00  0.00     0.004 A 
ATOM      9  C   UNL     1       8.425   1.213  -0.649  1.00  0.00     0.004 A 
ATOM     10  C   UNL     1       7.060  -0.662  -2.067  1.00  0.00     0.000 A 
ATOM     11  C   UNL     1       9.075   0.519  -1.626  1.00  0.00     0.000 A 
ATOM     12  C   UNL     1       8.392  -0.433  -2.352  1.00  0.00     0.000 A 
ENDBRANCH   6   7
ENDBRANCH   1   6
TORSDOF 4
ENDMDL
MODEL 4
REMARK VINA RESULT:      -6.7      1.949      2.329
REMARK SMILES O=C(O)CCc1ccccc1
REMARK SMILES IDX 4 1 2 2 1 3 3 4 5 6 6 7 7 8 11 9 8 10 10 11 9 12
REMARK H PARENT 3 5
REMARK Flexibility Score: inf
ROOT
ATOM      1  C   UNL     1       8.278   0.220  -2.166  1.00  0.00     0.127 C 
ENDROOT
BRANCH   1   2
ATOM      2  C   UNL     1       9.398   0.363  -1.206  1.00  0.00     0.303 C 
ATOM      3  O   UNL     1       9.483  -0.379  -0.215  1.00  0.00    -0.252 OA
BRANCH   2   4
ATOM      4  O   UNL     1      10.358   1.334  -1.416  1.00  0.00    -0.481 OA
ATOM      5  H   UNL     1      10.375   1.909  -2.253  1.00  0.00     0.296 HD
ENDBRANCH   2   4
ENDBRANCH   1   2
BRANCH   1   6
ATOM      6  C   UNL     1       7.131  -0.528  -1.535  1.00  0.00     0.047 C 
BRANCH   6   7
ATOM      7  C   UNL     1       6.337   0.310  -0.617  1.00  0.00    -0.047 A 
ATOM      8  C   UNL     1       5.801   1.527  -0.951  1.00  0.00     0.004 A 
ATOM      9  C   UNL     1       6.124  -0.164   0.656  1.00  0.00     0.004 A 
ATOM     10  C   UNL     1       5.070   2.247  -0.025  1.00  0.00     0.000 A 
ATOM     11  C   UNL     1       5.406   0.530   1.584  1.00  0.00     0.000 A 
ATOM     12  C   UNL     1       4.867   1.754   1.248  1.00  0.00     0.000 A 
ENDBRANCH   6   7
ENDBRANCH   1   6
TORSDOF 4
ENDMDL
MODEL 5
REMARK VINA RESULT:      -6.6      1.899      2.858
REMARK SMILES O=C(O)CCc1ccccc1
REMARK SMILES IDX 4 1 2 2 1 3 3 4 5 6 6 7 7 8 11 9 8 10 10 11 9 12
REMARK H PARENT 3 5
REMARK Flexibility Score: inf
ROOT
ATOM      1  C   UNL     1       8.115  -1.597   1.166  1.00  0.00     0.127 C 
ENDROOT
BRANCH   1   2
ATOM      2  C   UNL     1       8.492  -2.798   0.384  1.00  0.00     0.303 C 
ATOM      3  O   UNL     1       9.196  -3.688   0.886  1.00  0.00    -0.252 OA
BRANCH   2   4
ATOM      4  O   UNL     1       8.056  -2.928  -0.920  1.00  0.00    -0.481 OA
ATOM      5  H   UNL     1       7.630  -3.783  -1.268  1.00  0.00     0.296 HD
ENDBRANCH   2   4
ENDBRANCH   1   2
BRANCH   1   6
ATOM      6  C   UNL     1       6.615  -1.494   1.288  1.00  0.00     0.047 C 
BRANCH   6   7
ATOM      7  C   UNL     1       6.089  -0.200   0.811  1.00  0.00    -0.047 A 
ATOM      8  C   UNL     1       5.338   0.656   1.574  1.00  0.00     0.004 A 
ATOM      9  C   UNL     1       6.373   0.164  -0.484  1.00  0.00     0.004 A 
ATOM     10  C   UNL     1       4.885   1.849   1.044  1.00  0.00     0.000 A 
ATOM     11  C   UNL     1       5.935   1.337  -1.025  1.00  0.00     0.000 A 
ATOM     12  C   UNL     1       5.180   2.198  -0.258  1.00  0.00     0.000 A 
ENDBRANCH   6   7
ENDBRANCH   1   6
TORSDOF 4
ENDMDL
