@<TRIPOS>MOLECULE
/home/cewinharhar/GITHUB/reincatalyze/data/processed/docking_pred/2023-Apr-25-1630_maxeplen5_maxtrainstep200_exh32_gamma099_lrac3e-4_lrcr1e-3/7ac8f9624e71b352d93dccd4dc48cb56e96c53c0_ligand_2.pdbqt
 12 12 0 0 0
SMALL
GASTEIGER

@<TRIPOS>ATOM
      1  C          8.1150   -1.5970    1.1660 C.3     1  UNL1        0.1270
      2  C          8.4920   -2.7980    0.3840 C.2     1  UNL1        0.3030
      3  O          9.1960   -3.6880    0.8860 O.2     1  UNL1       -0.2520
      4  O          8.0560   -2.9280   -0.9200 O.3     1  UNL1       -0.4810
      5  H          7.6300   -3.7830   -1.2680 H       1  UNL1        0.2960
      6  C          6.6150   -1.4940    1.2880 C.3     1  UNL1        0.0470
      7  C          6.0890   -0.2000    0.8110 C.2     1  UNL1       -0.0470
      8  C          5.3380    0.6560    1.5740 C.2     1  UNL1        0.0040
      9  C          6.3730    0.1640   -0.4840 C.2     1  UNL1        0.0040
     10  C          4.8850    1.8490    1.0440 C.2     1  UNL1        0.0000
     11  C          5.9350    1.3370   -1.0250 C.2     1  UNL1        0.0000
     12  C          5.1800    2.1980   -0.2580 C.2     1  UNL1        0.0000
@<TRIPOS>BOND
     1     5     4    1
     2    11     9    1
     3    11    12    2
     4     4     2    1
     5     9     7    2
     6    12    10    1
     7     2     3    2
     8     2     1    1
     9     7     6    1
    10     7     8    1
    11    10     8    2
    12     1     6    1
