@<TRIPOS>MOLECULE
/home/cewinharhar/GITHUB/reincatalyze/data/processed/docking_pred/2023-Apr-25-1630_maxeplen5_maxtrainstep200_exh32_gamma099_lrac3e-4_lrcr1e-3/7ac8f9624e71b352d93dccd4dc48cb56e96c53c0_ligand_2.pdbqt
 12 12 0 0 0
SMALL
GASTEIGER

@<TRIPOS>ATOM
      1  C          8.2780    0.2200   -2.1660 C.3     1  UNL1        0.1270
      2  C          9.3980    0.3630   -1.2060 C.2     1  UNL1        0.3030
      3  O          9.4830   -0.3790   -0.2150 O.2     1  UNL1       -0.2520
      4  O         10.3580    1.3340   -1.4160 O.3     1  UNL1       -0.4810
      5  H         10.3750    1.9090   -2.2530 H       1  UNL1        0.2960
      6  C          7.1310   -0.5280   -1.5350 C.3     1  UNL1        0.0470
      7  C          6.3370    0.3100   -0.6170 C.2     1  UNL1       -0.0470
      8  C          5.8010    1.5270   -0.9510 C.2     1  UNL1        0.0040
      9  C          6.1240   -0.1640    0.6560 C.2     1  UNL1        0.0040
     10  C          5.0700    2.2470   -0.0250 C.2     1  UNL1        0.0000
     11  C          5.4060    0.5300    1.5840 C.2     1  UNL1        0.0000
     12  C          4.8670    1.7540    1.2480 C.2     1  UNL1        0.0000
@<TRIPOS>BOND
     1     5     4    1
     2     1     6    1
     3     1     2    1
     4     6     7    1
     5     4     2    1
     6     2     3    2
     7     8     7    2
     8     8    10    1
     9     7     9    1
    10    10    12    2
    11     9    11    2
    12    12    11    1
