@<TRIPOS>MOLECULE
/home/cewinharhar/GITHUB/reincatalyze/data/processed/docking_pred/2023-Apr-25-1630_maxeplen5_maxtrainstep200_exh32_gamma099_lrac3e-4_lrcr1e-3/7ac8f9624e71b352d93dccd4dc48cb56e96c53c0_ligand_2.pdbqt
 12 12 0 0 0
SMALL
GASTEIGER

@<TRIPOS>ATOM
      1  C          8.4340   -0.6810   -2.0900 C.3     1  UNL1        0.1270
      2  C          8.3880   -1.9300   -2.8870 C.2     1  UNL1        0.3030
      3  O          7.3030   -2.4240   -3.2320 O.2     1  UNL1       -0.2520
      4  O          9.5670   -2.5530   -3.2480 O.3     1  UNL1       -0.4810
      5  H          9.9490   -3.3370   -2.7270 H       1  UNL1        0.2960
      6  C          7.0810   -0.0140   -2.0720 C.3     1  UNL1        0.0470
      7  C          6.5040    0.0730   -0.7170 C.2     1  UNL1       -0.0470
      8  C          6.5960   -0.9170    0.2260 C.2     1  UNL1        0.0040
      9  C          5.8300    1.2240   -0.3850 C.2     1  UNL1        0.0040
     10  C          6.0230   -0.7510    1.4720 C.2     1  UNL1        0.0000
     11  C          5.2570    1.4080    0.8390 C.2     1  UNL1        0.0000
     12  C          5.3500    0.4120    1.7880 C.2     1  UNL1        0.0000
@<TRIPOS>BOND
     1     4     2    1
     2     4     5    1
     3     3     2    2
     4     2     1    1
     5     1     6    1
     6     6     7    1
     7     7     9    2
     8     7     8    1
     9     9    11    1
    10     8    10    2
    11    11    12    2
    12    10    12    1
