MODEL 1
REMARK VINA RESULT:      -7.3      0.000      0.000
REMARK SMILES O=C(O)CCc1ccccc1
REMARK SMILES IDX 4 1 2 2 1 3 3 4 5 6 6 7 7 8 11 9 8 10 10 11 9 12
REMARK H PARENT 3 5
REMARK Flexibility Score: inf
ROOT
ATOM      1  C   UNL     1       8.418  -0.629  -2.133  1.00  0.00     0.127 C 
ENDROOT
BRANCH   1   2
ATOM      2  C   UNL     1       8.471  -1.897  -2.898  1.00  0.00     0.303 C 
ATOM      3  O   UNL     1       9.550  -2.477  -3.093  1.00  0.00    -0.252 OA
BRANCH   2   4
ATOM      4  O   UNL     1       7.304  -2.440  -3.400  1.00  0.00    -0.481 OA
ATOM      5  H   UNL     1       6.798  -2.019  -4.174  1.00  0.00     0.296 HD
ENDBRANCH   2   4
ENDBRANCH   1   2
BRANCH   1   6
ATOM      6  C   UNL     1       7.018  -0.066  -2.137  1.00  0.00     0.047 C 
BRANCH   6   7
ATOM      7  C   UNL     1       6.470   0.114  -0.779  1.00  0.00    -0.047 A 
ATOM      8  C   UNL     1       5.842   1.253  -0.344  1.00  0.00     0.004 A 
ATOM      9  C   UNL     1       6.600  -0.932   0.104  1.00  0.00     0.004 A 
ATOM     10  C   UNL     1       5.359   1.335   0.948  1.00  0.00     0.000 A 
ATOM     11  C   UNL     1       6.131  -0.871   1.383  1.00  0.00     0.000 A 
ATOM     12  C   UNL     1       5.499   0.274   1.821  1.00  0.00     0.000 A 
ENDBRANCH   6   7
ENDBRANCH   1   6
TORSDOF 4
ENDMDL
MODEL 2
REMARK VINA RESULT:      -7.3      0.092      1.428
REMARK SMILES O=C(O)CCc1ccccc1
REMARK SMILES IDX 4 1 2 2 1 3 3 4 5 6 6 7 7 8 11 9 8 10 10 11 9 12
REMARK H PARENT 3 5
REMARK Flexibility Score: inf
ROOT
ATOM      1  C   UNL     1       8.436  -0.596  -2.218  1.00  0.00     0.127 C 
ENDROOT
BRANCH   1   2
ATOM      2  C   UNL     1       8.484  -1.909  -2.905  1.00  0.00     0.303 C 
ATOM      3  O   UNL     1       9.558  -2.513  -3.045  1.00  0.00    -0.252 OA
BRANCH   2   4
ATOM      4  O   UNL     1       7.318  -2.465  -3.395  1.00  0.00    -0.481 OA
ATOM      5  H   UNL     1       7.242  -2.818  -4.345  1.00  0.00     0.296 HD
ENDBRANCH   2   4
ENDBRANCH   1   2
BRANCH   1   6
ATOM      6  C   UNL     1       7.021  -0.076  -2.167  1.00  0.00     0.047 C 
BRANCH   6   7
ATOM      7  C   UNL     1       6.498   0.025  -0.790  1.00  0.00    -0.047 A 
ATOM      8  C   UNL     1       6.607  -0.966   0.152  1.00  0.00     0.004 A 
ATOM      9  C   UNL     1       5.860   1.190  -0.436  1.00  0.00     0.004 A 
ATOM     10  C   UNL     1       6.086  -0.785   1.418  1.00  0.00     0.000 A 
ATOM     11  C   UNL     1       5.339   1.387   0.809  1.00  0.00     0.000 A 
ATOM     12  C   UNL     1       5.449   0.392   1.757  1.00  0.00     0.000 A 
ENDBRANCH   6   7
ENDBRANCH   1   6
TORSDOF 4
ENDMDL
MODEL 3
REMARK VINA RESULT:      -6.8      3.366      5.076
REMARK SMILES O=C(O)CCc1ccccc1
REMARK SMILES IDX 4 1 2 2 1 3 3 4 5 6 6 7 7 8 11 9 8 10 10 11 9 12
REMARK H PARENT 3 5
REMARK Flexibility Score: inf
ROOT
ATOM      1  C   UNL     1       4.994   1.780   0.725  1.00  0.00     0.127 C 
ENDROOT
BRANCH   1   2
ATOM      2  C   UNL     1       4.484   1.089   1.934  1.00  0.00     0.303 C 
ATOM      3  O   UNL     1       5.145   0.192   2.479  1.00  0.00    -0.252 OA
BRANCH   2   4
ATOM      4  O   UNL     1       3.258   1.449   2.459  1.00  0.00    -0.481 OA
ATOM      5  H   UNL     1       2.381   1.209   2.006  1.00  0.00     0.296 HD
ENDBRANCH   2   4
ENDBRANCH   1   2
BRANCH   1   6
ATOM      6  C   UNL     1       6.502   1.813   0.731  1.00  0.00     0.047 C 
BRANCH   6   7
ATOM      7  C   UNL     1       7.096   1.009  -0.354  1.00  0.00    -0.047 A 
ATOM      8  C   UNL     1       6.415   0.063  -1.076  1.00  0.00     0.004 A 
ATOM      9  C   UNL     1       8.420   1.225  -0.655  1.00  0.00     0.004 A 
ATOM     10  C   UNL     1       7.052  -0.647  -2.075  1.00  0.00     0.000 A 
ATOM     11  C   UNL     1       9.067   0.535  -1.638  1.00  0.00     0.000 A 
ATOM     12  C   UNL     1       8.382  -0.416  -2.364  1.00  0.00     0.000 A 
ENDBRANCH   6   7
ENDBRANCH   1   6
TORSDOF 4
ENDMDL
MODEL 4
REMARK VINA RESULT:      -6.7      1.940      2.321
REMARK SMILES O=C(O)CCc1ccccc1
REMARK SMILES IDX 4 1 2 2 1 3 3 4 5 6 6 7 7 8 11 9 8 10 10 11 9 12
REMARK H PARENT 3 5
REMARK Flexibility Score: inf
ROOT
ATOM      1  C   UNL     1       8.279   0.202  -2.193  1.00  0.00     0.127 C 
ENDROOT
BRANCH   1   2
ATOM      2  C   UNL     1       9.397   0.357  -1.232  1.00  0.00     0.303 C 
ATOM      3  O   UNL     1       9.479  -0.370  -0.230  1.00  0.00    -0.252 OA
BRANCH   2   4
ATOM      4  O   UNL     1      10.359   1.324  -1.455  1.00  0.00    -0.481 OA
ATOM      5  H   UNL     1      10.901   1.363  -2.314  1.00  0.00     0.296 HD
ENDBRANCH   2   4
ENDBRANCH   1   2
BRANCH   1   6
ATOM      6  C   UNL     1       7.129  -0.535  -1.553  1.00  0.00     0.047 C 
BRANCH   6   7
ATOM      7  C   UNL     1       6.338   0.315  -0.643  1.00  0.00    -0.047 A 
ATOM      8  C   UNL     1       5.799   1.527  -0.993  1.00  0.00     0.004 A 
ATOM      9  C   UNL     1       6.133  -0.140   0.637  1.00  0.00     0.004 A 
ATOM     10  C   UNL     1       5.072   2.259  -0.075  1.00  0.00     0.000 A 
ATOM     11  C   UNL     1       5.418   0.567   1.559  1.00  0.00     0.000 A 
ATOM     12  C   UNL     1       4.875   1.785   1.207  1.00  0.00     0.000 A 
ENDBRANCH   6   7
ENDBRANCH   1   6
TORSDOF 4
ENDMDL
MODEL 5
REMARK VINA RESULT:      -6.6      3.835      4.918
REMARK SMILES O=C(O)CCc1ccccc1
REMARK SMILES IDX 4 1 2 2 1 3 3 4 5 6 6 7 7 8 11 9 8 10 10 11 9 12
REMARK H PARENT 3 5
REMARK Flexibility Score: inf
ROOT
ATOM      1  C   UNL     1       5.646   2.840   0.005  1.00  0.00     0.127 C 
ENDROOT
BRANCH   1   2
ATOM      2  C   UNL     1       6.304   3.888   0.820  1.00  0.00     0.303 C 
ATOM      3  O   UNL     1       6.986   4.775   0.283  1.00  0.00    -0.252 OA
BRANCH   2   4
ATOM      4  O   UNL     1       6.155   3.878   2.193  1.00  0.00    -0.481 OA
ATOM      5  H   UNL     1       6.436   4.662   2.776  1.00  0.00     0.296 HD
ENDBRANCH   2   4
ENDBRANCH   1   2
BRANCH   1   6
ATOM      6  C   UNL     1       5.034   1.785   0.892  1.00  0.00     0.047 C 
BRANCH   6   7
ATOM      7  C   UNL     1       5.824   0.538   0.927  1.00  0.00    -0.047 A 
ATOM      8  C   UNL     1       6.565   0.064  -0.124  1.00  0.00     0.004 A 
ATOM      9  C   UNL     1       5.810  -0.192   2.092  1.00  0.00     0.004 A 
ATOM     10  C   UNL     1       7.274  -1.115  -0.004  1.00  0.00     0.000 A 
ATOM     11  C   UNL     1       6.503  -1.358   2.231  1.00  0.00     0.000 A 
ATOM     12  C   UNL     1       7.249  -1.835   1.174  1.00  0.00     0.000 A 
ENDBRANCH   6   7
ENDBRANCH   1   6
TORSDOF 4
ENDMDL
