@<TRIPOS>MOLECULE
/home/cewinharhar/GITHUB/reincatalyze/data/processed/docking_pred/2023-Apr-25-1630_maxeplen5_maxtrainstep200_exh32_gamma099_lrac3e-4_lrcr1e-3/7c86502248d8ce059d377094dc2c2500eee92fd7_ligand_2.pdbqt
 12 12 0 0 0
SMALL
GASTEIGER

@<TRIPOS>ATOM
      1  C          5.6460    2.8400    0.0050 C.3     1  UNL1        0.1270
      2  C          6.3040    3.8880    0.8200 C.2     1  UNL1        0.3030
      3  O          6.9860    4.7750    0.2830 O.2     1  UNL1       -0.2520
      4  O          6.1550    3.8780    2.1930 O.3     1  UNL1       -0.4810
      5  H          6.4360    4.6620    2.7760 H       1  UNL1        0.2960
      6  C          5.0340    1.7850    0.8920 C.3     1  UNL1        0.0470
      7  C          5.8240    0.5380    0.9270 C.2     1  UNL1       -0.0470
      8  C          6.5650    0.0640   -0.1240 C.2     1  UNL1        0.0040
      9  C          5.8100   -0.1920    2.0920 C.2     1  UNL1        0.0040
     10  C          7.2740   -1.1150   -0.0040 C.2     1  UNL1        0.0000
     11  C          6.5030   -1.3580    2.2310 C.2     1  UNL1        0.0000
     12  C          7.2490   -1.8350    1.1740 C.2     1  UNL1        0.0000
@<TRIPOS>BOND
     1     8    10    1
     2     8     7    2
     3    10    12    2
     4     1     2    1
     5     1     6    1
     6     3     2    2
     7     2     4    1
     8     6     7    1
     9     7     9    1
    10    12    11    1
    11     9    11    2
    12     4     5    1
