@<TRIPOS>MOLECULE
/home/cewinharhar/GITHUB/reincatalyze/data/processed/docking_pred/2023-Apr-25-1630_maxeplen5_maxtrainstep200_exh32_gamma099_lrac3e-4_lrcr1e-3/7c86502248d8ce059d377094dc2c2500eee92fd7_ligand_2.pdbqt
 12 12 0 0 0
SMALL
GASTEIGER

@<TRIPOS>ATOM
      1  C          8.4360   -0.5960   -2.2180 C.3     1  UNL1        0.1270
      2  C          8.4840   -1.9090   -2.9050 C.2     1  UNL1        0.3030
      3  O          9.5580   -2.5130   -3.0450 O.2     1  UNL1       -0.2520
      4  O          7.3180   -2.4650   -3.3950 O.3     1  UNL1       -0.4810
      5  H          7.2420   -2.8180   -4.3450 H       1  UNL1        0.2960
      6  C          7.0210   -0.0760   -2.1670 C.3     1  UNL1        0.0470
      7  C          6.4980    0.0250   -0.7900 C.2     1  UNL1       -0.0470
      8  C          6.6070   -0.9660    0.1520 C.2     1  UNL1        0.0040
      9  C          5.8600    1.1900   -0.4360 C.2     1  UNL1        0.0040
     10  C          6.0860   -0.7850    1.4180 C.2     1  UNL1        0.0000
     11  C          5.3390    1.3870    0.8090 C.2     1  UNL1        0.0000
     12  C          5.4490    0.3920    1.7570 C.2     1  UNL1        0.0000
@<TRIPOS>BOND
     1     5     4    1
     2     4     2    1
     3     3     2    2
     4     2     1    1
     5     1     6    1
     6     6     7    1
     7     7     9    2
     8     7     8    1
     9     9    11    1
    10     8    10    2
    11    11    12    2
    12    10    12    1
