@<TRIPOS>MOLECULE
/home/cewinharhar/GITHUB/reincatalyze/data/processed/docking_pred/2023-Apr-25-1630_maxeplen5_maxtrainstep200_exh32_gamma099_lrac3e-4_lrcr1e-3/7c86502248d8ce059d377094dc2c2500eee92fd7_ligand_2.pdbqt
 12 12 0 0 0
SMALL
GASTEIGER

@<TRIPOS>ATOM
      1  C          8.4180   -0.6290   -2.1330 C.3     1  UNL1        0.1270
      2  C          8.4710   -1.8970   -2.8980 C.2     1  UNL1        0.3030
      3  O          9.5500   -2.4770   -3.0930 O.2     1  UNL1       -0.2520
      4  O          7.3040   -2.4400   -3.4000 O.3     1  UNL1       -0.4810
      5  H          6.7980   -2.0190   -4.1740 H       1  UNL1        0.2960
      6  C          7.0180   -0.0660   -2.1370 C.3     1  UNL1        0.0470
      7  C          6.4700    0.1140   -0.7790 C.2     1  UNL1       -0.0470
      8  C          5.8420    1.2530   -0.3440 C.2     1  UNL1        0.0040
      9  C          6.6000   -0.9320    0.1040 C.2     1  UNL1        0.0040
     10  C          5.3590    1.3350    0.9480 C.2     1  UNL1        0.0000
     11  C          6.1310   -0.8710    1.3830 C.2     1  UNL1        0.0000
     12  C          5.4990    0.2740    1.8210 C.2     1  UNL1        0.0000
@<TRIPOS>BOND
     1     5     4    1
     2     4     2    1
     3     3     2    2
     4     2     1    1
     5     6     1    1
     6     6     7    1
     7     7     8    2
     8     7     9    1
     9     8    10    1
    10     9    11    2
    11    10    12    2
    12    11    12    1
