@<TRIPOS>MOLECULE
/home/cewinharhar/GITHUB/reincatalyze/data/processed/docking_pred/2023-Apr-25-1630_maxeplen5_maxtrainstep200_exh32_gamma099_lrac3e-4_lrcr1e-3/7d60c2a66717a3f4b6d307e9593656cfb0aaeeb8_ligand_2.pdbqt
 12 12 0 0 0
SMALL
GASTEIGER

@<TRIPOS>ATOM
      1  C          8.4180   -0.6420   -2.1430 C.3     1  UNL1        0.1270
      2  C          8.4770   -1.9120   -2.9050 C.2     1  UNL1        0.3030
      3  O          9.5580   -2.4910   -3.0920 O.2     1  UNL1       -0.2520
      4  O          7.3130   -2.4570   -3.4120 O.3     1  UNL1       -0.4810
      5  H          7.0140   -2.3030   -4.3710 H       1  UNL1        0.2960
      6  C          7.0160   -0.0850   -2.1480 C.3     1  UNL1        0.0470
      7  C          6.4650    0.0920   -0.7910 C.2     1  UNL1       -0.0470
      8  C          5.8290    1.2280   -0.3580 C.2     1  UNL1        0.0040
      9  C          6.6020   -0.9510    0.0930 C.2     1  UNL1        0.0040
     10  C          5.3440    1.3080    0.9330 C.2     1  UNL1        0.0000
     11  C          6.1310   -0.8920    1.3720 C.2     1  UNL1        0.0000
     12  C          5.4910    0.2490    1.8070 C.2     1  UNL1        0.0000
@<TRIPOS>BOND
     1     5     4    1
     2     4     2    1
     3     3     2    2
     4     2     1    1
     5     6     1    1
     6     6     7    1
     7     7     8    2
     8     7     9    1
     9     8    10    1
    10     9    11    2
    11    10    12    2
    12    11    12    1
