@<TRIPOS>MOLECULE
/home/cewinharhar/GITHUB/reincatalyze/data/processed/docking_pred/2023-Apr-25-1630_maxeplen5_maxtrainstep200_exh32_gamma099_lrac3e-4_lrcr1e-3/7d60c2a66717a3f4b6d307e9593656cfb0aaeeb8_ligand_2.pdbqt
 12 12 0 0 0
SMALL
GASTEIGER

@<TRIPOS>ATOM
      1  C          8.1920   -0.9280   -1.8940 C.3     1  UNL1        0.1270
      2  C          8.3770   -2.0500   -2.8450 C.2     1  UNL1        0.3030
      3  O          9.4950   -2.5580   -3.0190 O.2     1  UNL1       -0.2520
      4  O          7.2900   -2.5350   -3.5470 O.3     1  UNL1       -0.4810
      5  H          6.3420   -2.4790   -3.1870 H       1  UNL1        0.2960
      6  C          7.5250   -1.4090   -0.6300 C.3     1  UNL1        0.0470
      7  C          6.6460   -0.3910   -0.0240 C.2     1  UNL1       -0.0470
      8  C          6.1300   -0.4730    1.2440 C.2     1  UNL1        0.0040
      9  C          6.3250    0.7080   -0.7840 C.2     1  UNL1        0.0040
     10  C          5.3120    0.5280    1.7320 C.2     1  UNL1        0.0000
     11  C          5.5190    1.7070   -0.3210 C.2     1  UNL1        0.0000
     12  C          5.0010    1.6250    0.9540 C.2     1  UNL1        0.0000
@<TRIPOS>BOND
     1     4     5    1
     2     4     2    1
     3     3     2    2
     4     2     1    1
     5     1     6    1
     6     9    11    1
     7     9     7    2
     8     6     7    1
     9    11    12    2
    10     7     8    1
    11    12    10    1
    12     8    10    2
