@<TRIPOS>MOLECULE
/home/cewinharhar/GITHUB/reincatalyze/data/processed/docking_pred/2023-Apr-25-1630_maxeplen5_maxtrainstep200_exh32_gamma099_lrac3e-4_lrcr1e-3/7d60c2a66717a3f4b6d307e9593656cfb0aaeeb8_ligand_2.pdbqt
 12 12 0 0 0
SMALL
GASTEIGER

@<TRIPOS>ATOM
      1  C          8.4650   -0.6390   -2.1620 C.3     1  UNL1        0.1270
      2  C          8.4910   -1.9110   -2.9210 C.2     1  UNL1        0.3030
      3  O          9.5560   -2.5200   -3.1050 O.2     1  UNL1       -0.2520
      4  O          7.3140   -2.4260   -3.4300 O.3     1  UNL1       -0.4810
      5  H          6.5950   -1.8360   -3.8390 H       1  UNL1        0.2960
      6  C          7.0650   -0.0810   -2.1100 C.3     1  UNL1        0.0470
      7  C          6.5300   -0.0060   -0.7370 C.2     1  UNL1       -0.0470
      8  C          6.6510   -1.0040    0.1950 C.2     1  UNL1        0.0040
      9  C          5.8660    1.1420   -0.3740 C.2     1  UNL1        0.0040
     10  C          6.1180   -0.8490    1.4600 C.2     1  UNL1        0.0000
     11  C          5.3310    1.3150    0.8690 C.2     1  UNL1        0.0000
     12  C          5.4540    0.3120    1.8060 C.2     1  UNL1        0.0000
@<TRIPOS>BOND
     1     5     4    1
     2     4     2    1
     3     3     2    2
     4     2     1    1
     5     1     6    1
     6     6     7    1
     7     7     9    2
     8     7     8    1
     9     9    11    1
    10     8    10    2
    11    11    12    2
    12    10    12    1
