@<TRIPOS>MOLECULE
/home/cewinharhar/GITHUB/reincatalyze/data/processed/docking_pred/2023-Apr-25-1630_maxeplen5_maxtrainstep200_exh32_gamma099_lrac3e-4_lrcr1e-3/7d60c2a66717a3f4b6d307e9593656cfb0aaeeb8_ligand_2.pdbqt
 12 12 0 0 0
SMALL
GASTEIGER

@<TRIPOS>ATOM
      1  C          8.2730    0.2240   -2.2030 C.3     1  UNL1        0.1270
      2  C          9.3870    0.3550   -1.2340 C.2     1  UNL1        0.3030
      3  O          9.4620   -0.3950   -0.2480 O.2     1  UNL1       -0.2520
      4  O         10.3520    1.3240   -1.4300 O.3     1  UNL1       -0.4810
      5  H         10.8490    1.4250   -2.3100 H       1  UNL1        0.2960
      6  C          7.1140   -0.5140   -1.5820 C.3     1  UNL1        0.0470
      7  C          6.3240    0.3290   -0.6630 C.2     1  UNL1       -0.0470
      8  C          5.7880    1.5450   -1.0000 C.2     1  UNL1        0.0040
      9  C          6.1170   -0.1410    0.6120 C.2     1  UNL1        0.0040
     10  C          5.0620    2.2690   -0.0740 C.2     1  UNL1        0.0000
     11  C          5.4030    0.5590    1.5410 C.2     1  UNL1        0.0000
     12  C          4.8640    1.7810    1.2020 C.2     1  UNL1        0.0000
@<TRIPOS>BOND
     1     5     4    1
     2     1     6    1
     3     1     2    1
     4     6     7    1
     5     4     2    1
     6     2     3    2
     7     8     7    2
     8     8    10    1
     9     7     9    1
    10    10    12    2
    11     9    11    2
    12    12    11    1
