@<TRIPOS>MOLECULE
/home/cewinharhar/GITHUB/reincatalyze/data/processed/docking_pred/2023-Apr-25-1630_maxeplen5_maxtrainstep200_exh32_gamma099_lrac3e-4_lrcr1e-3/7d60c2a66717a3f4b6d307e9593656cfb0aaeeb8_ligand_2.pdbqt
 12 12 0 0 0
SMALL
GASTEIGER

@<TRIPOS>ATOM
      1  C          5.0050    1.8030    0.7250 C.3     1  UNL1        0.1270
      2  C          4.4960    1.1050    1.9290 C.2     1  UNL1        0.3030
      3  O          5.1610    0.2090    2.4720 O.2     1  UNL1       -0.2520
      4  O          3.2660    1.4550    2.4530 O.3     1  UNL1       -0.4810
      5  H          2.4830    1.7260    1.8650 H       1  UNL1        0.2960
      6  C          6.5130    1.8330    0.7270 C.3     1  UNL1        0.0470
      7  C          7.1020    1.0260   -0.3590 C.2     1  UNL1       -0.0470
      8  C          6.4100    0.1000   -1.0960 C.2     1  UNL1        0.0040
      9  C          8.4330    1.2170   -0.6440 C.2     1  UNL1        0.0040
     10  C          7.0430   -0.6130   -2.0950 C.2     1  UNL1        0.0000
     11  C          9.0770    0.5230   -1.6260 C.2     1  UNL1        0.0000
     12  C          8.3810   -0.4070   -2.3680 C.2     1  UNL1        0.0000
@<TRIPOS>BOND
     1    12    10    2
     2    12    11    1
     3    10     8    1
     4    11     9    2
     5     8     7    2
     6     9     7    1
     7     7     6    1
     8     1     6    1
     9     1     2    1
    10     5     4    1
    11     2     4    1
    12     2     3    2
