MODEL 1
REMARK VINA RESULT:      -7.3      0.000      0.000
REMARK SMILES O=C(O)CCc1ccccc1
REMARK SMILES IDX 4 1 2 2 1 3 3 4 5 6 6 7 7 8 11 9 8 10 10 11 9 12
REMARK H PARENT 3 5
REMARK Flexibility Score: inf
ROOT
ATOM      1  C   UNL     1       8.465  -0.639  -2.162  1.00  0.00     0.127 C 
ENDROOT
BRANCH   1   2
ATOM      2  C   UNL     1       8.491  -1.911  -2.921  1.00  0.00     0.303 C 
ATOM      3  O   UNL     1       9.556  -2.520  -3.105  1.00  0.00    -0.252 OA
BRANCH   2   4
ATOM      4  O   UNL     1       7.314  -2.426  -3.430  1.00  0.00    -0.481 OA
ATOM      5  H   UNL     1       6.595  -1.836  -3.839  1.00  0.00     0.296 HD
ENDBRANCH   2   4
ENDBRANCH   1   2
BRANCH   1   6
ATOM      6  C   UNL     1       7.065  -0.081  -2.110  1.00  0.00     0.047 C 
BRANCH   6   7
ATOM      7  C   UNL     1       6.530  -0.006  -0.737  1.00  0.00    -0.047 A 
ATOM      8  C   UNL     1       6.651  -1.004   0.195  1.00  0.00     0.004 A 
ATOM      9  C   UNL     1       5.866   1.142  -0.374  1.00  0.00     0.004 A 
ATOM     10  C   UNL     1       6.118  -0.849   1.460  1.00  0.00     0.000 A 
ATOM     11  C   UNL     1       5.331   1.315   0.869  1.00  0.00     0.000 A 
ATOM     12  C   UNL     1       5.454   0.312   1.806  1.00  0.00     0.000 A 
ENDBRANCH   6   7
ENDBRANCH   1   6
TORSDOF 4
ENDMDL
MODEL 2
REMARK VINA RESULT:      -7.3      0.080      1.428
REMARK SMILES O=C(O)CCc1ccccc1
REMARK SMILES IDX 4 1 2 2 1 3 3 4 5 6 6 7 7 8 11 9 8 10 10 11 9 12
REMARK H PARENT 3 5
REMARK Flexibility Score: inf
ROOT
ATOM      1  C   UNL     1       8.418  -0.642  -2.143  1.00  0.00     0.127 C 
ENDROOT
BRANCH   1   2
ATOM      2  C   UNL     1       8.477  -1.912  -2.905  1.00  0.00     0.303 C 
ATOM      3  O   UNL     1       9.558  -2.491  -3.092  1.00  0.00    -0.252 OA
BRANCH   2   4
ATOM      4  O   UNL     1       7.313  -2.457  -3.412  1.00  0.00    -0.481 OA
ATOM      5  H   UNL     1       7.014  -2.303  -4.371  1.00  0.00     0.296 HD
ENDBRANCH   2   4
ENDBRANCH   1   2
BRANCH   1   6
ATOM      6  C   UNL     1       7.016  -0.085  -2.148  1.00  0.00     0.047 C 
BRANCH   6   7
ATOM      7  C   UNL     1       6.465   0.092  -0.791  1.00  0.00    -0.047 A 
ATOM      8  C   UNL     1       5.829   1.228  -0.358  1.00  0.00     0.004 A 
ATOM      9  C   UNL     1       6.602  -0.951   0.093  1.00  0.00     0.004 A 
ATOM     10  C   UNL     1       5.344   1.308   0.933  1.00  0.00     0.000 A 
ATOM     11  C   UNL     1       6.131  -0.892   1.372  1.00  0.00     0.000 A 
ATOM     12  C   UNL     1       5.491   0.249   1.807  1.00  0.00     0.000 A 
ENDBRANCH   6   7
ENDBRANCH   1   6
TORSDOF 4
ENDMDL
MODEL 3
REMARK VINA RESULT:      -7.2      0.620      1.138
REMARK SMILES O=C(O)CCc1ccccc1
REMARK SMILES IDX 4 1 2 2 1 3 3 4 5 6 6 7 7 8 11 9 8 10 10 11 9 12
REMARK H PARENT 3 5
REMARK Flexibility Score: inf
ROOT
ATOM      1  C   UNL     1       8.192  -0.928  -1.894  1.00  0.00     0.127 C 
ENDROOT
BRANCH   1   2
ATOM      2  C   UNL     1       8.377  -2.050  -2.845  1.00  0.00     0.303 C 
ATOM      3  O   UNL     1       9.495  -2.558  -3.019  1.00  0.00    -0.252 OA
BRANCH   2   4
ATOM      4  O   UNL     1       7.290  -2.535  -3.547  1.00  0.00    -0.481 OA
ATOM      5  H   UNL     1       6.342  -2.479  -3.187  1.00  0.00     0.296 HD
ENDBRANCH   2   4
ENDBRANCH   1   2
BRANCH   1   6
ATOM      6  C   UNL     1       7.525  -1.409  -0.630  1.00  0.00     0.047 C 
BRANCH   6   7
ATOM      7  C   UNL     1       6.646  -0.391  -0.024  1.00  0.00    -0.047 A 
ATOM      8  C   UNL     1       6.130  -0.473   1.244  1.00  0.00     0.004 A 
ATOM      9  C   UNL     1       6.325   0.708  -0.784  1.00  0.00     0.004 A 
ATOM     10  C   UNL     1       5.312   0.528   1.732  1.00  0.00     0.000 A 
ATOM     11  C   UNL     1       5.519   1.707  -0.321  1.00  0.00     0.000 A 
ATOM     12  C   UNL     1       5.001   1.625   0.954  1.00  0.00     0.000 A 
ENDBRANCH   6   7
ENDBRANCH   1   6
TORSDOF 4
ENDMDL
MODEL 4
REMARK VINA RESULT:      -6.8      3.375      5.071
REMARK SMILES O=C(O)CCc1ccccc1
REMARK SMILES IDX 4 1 2 2 1 3 3 4 5 6 6 7 7 8 11 9 8 10 10 11 9 12
REMARK H PARENT 3 5
REMARK Flexibility Score: inf
ROOT
ATOM      1  C   UNL     1       5.005   1.803   0.725  1.00  0.00     0.127 C 
ENDROOT
BRANCH   1   2
ATOM      2  C   UNL     1       4.496   1.105   1.929  1.00  0.00     0.303 C 
ATOM      3  O   UNL     1       5.161   0.209   2.472  1.00  0.00    -0.252 OA
BRANCH   2   4
ATOM      4  O   UNL     1       3.266   1.455   2.453  1.00  0.00    -0.481 OA
ATOM      5  H   UNL     1       2.483   1.726   1.865  1.00  0.00     0.296 HD
ENDBRANCH   2   4
ENDBRANCH   1   2
BRANCH   1   6
ATOM      6  C   UNL     1       6.513   1.833   0.727  1.00  0.00     0.047 C 
BRANCH   6   7
ATOM      7  C   UNL     1       7.102   1.026  -0.359  1.00  0.00    -0.047 A 
ATOM      8  C   UNL     1       6.410   0.100  -1.096  1.00  0.00     0.004 A 
ATOM      9  C   UNL     1       8.433   1.217  -0.644  1.00  0.00     0.004 A 
ATOM     10  C   UNL     1       7.043  -0.613  -2.095  1.00  0.00     0.000 A 
ATOM     11  C   UNL     1       9.077   0.523  -1.626  1.00  0.00     0.000 A 
ATOM     12  C   UNL     1       8.381  -0.407  -2.368  1.00  0.00     0.000 A 
ENDBRANCH   6   7
ENDBRANCH   1   6
TORSDOF 4
ENDMDL
MODEL 5
REMARK VINA RESULT:      -6.7      1.948      2.673
REMARK SMILES O=C(O)CCc1ccccc1
REMARK SMILES IDX 4 1 2 2 1 3 3 4 5 6 6 7 7 8 11 9 8 10 10 11 9 12
REMARK H PARENT 3 5
REMARK Flexibility Score: inf
ROOT
ATOM      1  C   UNL     1       8.273   0.224  -2.203  1.00  0.00     0.127 C 
ENDROOT
BRANCH   1   2
ATOM      2  C   UNL     1       9.387   0.355  -1.234  1.00  0.00     0.303 C 
ATOM      3  O   UNL     1       9.462  -0.395  -0.248  1.00  0.00    -0.252 OA
BRANCH   2   4
ATOM      4  O   UNL     1      10.352   1.324  -1.430  1.00  0.00    -0.481 OA
ATOM      5  H   UNL     1      10.849   1.425  -2.310  1.00  0.00     0.296 HD
ENDBRANCH   2   4
ENDBRANCH   1   2
BRANCH   1   6
ATOM      6  C   UNL     1       7.114  -0.514  -1.582  1.00  0.00     0.047 C 
BRANCH   6   7
ATOM      7  C   UNL     1       6.324   0.329  -0.663  1.00  0.00    -0.047 A 
ATOM      8  C   UNL     1       5.788   1.545  -1.000  1.00  0.00     0.004 A 
ATOM      9  C   UNL     1       6.117  -0.141   0.612  1.00  0.00     0.004 A 
ATOM     10  C   UNL     1       5.062   2.269  -0.074  1.00  0.00     0.000 A 
ATOM     11  C   UNL     1       5.403   0.559   1.541  1.00  0.00     0.000 A 
ATOM     12  C   UNL     1       4.864   1.781   1.202  1.00  0.00     0.000 A 
ENDBRANCH   6   7
ENDBRANCH   1   6
TORSDOF 4
ENDMDL
