@<TRIPOS>MOLECULE
/home/cewinharhar/GITHUB/reincatalyze/data/processed/docking_pred/2023-Apr-25-1630_maxeplen5_maxtrainstep200_exh32_gamma099_lrac3e-4_lrcr1e-3/80c9945afd0f5f9f0270d56cce32b054e5c09707_ligand_2.pdbqt
 12 12 0 0 0
SMALL
GASTEIGER

@<TRIPOS>ATOM
      1  C          8.2940    0.1560   -2.1880 C.3     1  UNL1        0.1270
      2  C          9.4070    0.3410   -1.2260 C.2     1  UNL1        0.3030
      3  O          9.4950   -0.3690   -0.2130 O.2     1  UNL1       -0.2520
      4  O         10.3570    1.3160   -1.4620 O.3     1  UNL1       -0.4810
      5  H         11.0180    1.2560   -2.2310 H       1  UNL1        0.2960
      6  C          7.1450   -0.5710   -1.5350 C.3     1  UNL1        0.0470
      7  C          6.3490    0.2980   -0.6460 C.2     1  UNL1       -0.0470
      8  C          5.8190    1.5060   -1.0200 C.2     1  UNL1        0.0040
      9  C          6.1300   -0.1360    0.6400 C.2     1  UNL1        0.0040
     10  C          5.0870    2.2560   -0.1210 C.2     1  UNL1        0.0000
     11  C          5.4100    0.5900    1.5430 C.2     1  UNL1        0.0000
     12  C          4.8760    1.8040    1.1670 C.2     1  UNL1        0.0000
@<TRIPOS>BOND
     1     5     4    1
     2     1     6    1
     3     1     2    1
     4     6     7    1
     5     4     2    1
     6     2     3    2
     7     8     7    2
     8     8    10    1
     9     7     9    1
    10    10    12    2
    11     9    11    2
    12    12    11    1
