@<TRIPOS>MOLECULE
/home/cewinharhar/GITHUB/reincatalyze/data/processed/docking_pred/2023-Apr-25-1630_maxeplen5_maxtrainstep200_exh32_gamma099_lrac3e-4_lrcr1e-3/80c9945afd0f5f9f0270d56cce32b054e5c09707_ligand_2.pdbqt
 12 12 0 0 0
SMALL
GASTEIGER

@<TRIPOS>ATOM
      1  C          8.4070   -0.6650   -2.0910 C.3     1  UNL1        0.1270
      2  C          8.4650   -1.9150   -2.8850 C.2     1  UNL1        0.3030
      3  O          9.5460   -2.4900   -3.0870 O.2     1  UNL1       -0.2520
      4  O          7.3010   -2.4450   -3.4090 O.3     1  UNL1       -0.4810
      5  H          7.3060   -3.1240   -4.1650 H       1  UNL1        0.2960
      6  C          7.0110   -0.0930   -2.1030 C.3     1  UNL1        0.0470
      7  C          6.4530    0.0850   -0.7490 C.2     1  UNL1       -0.0470
      8  C          5.8110    1.2190   -0.3220 C.2     1  UNL1        0.0040
      9  C          6.5900   -0.9560    0.1380 C.2     1  UNL1        0.0040
     10  C          5.3200    1.3000    0.9670 C.2     1  UNL1        0.0000
     11  C          6.1130   -0.8950    1.4140 C.2     1  UNL1        0.0000
     12  C          5.4660    0.2440    1.8440 C.2     1  UNL1        0.0000
@<TRIPOS>BOND
     1     5     4    1
     2     4     2    1
     3     3     2    2
     4     2     1    1
     5     6     1    1
     6     6     7    1
     7     7     8    2
     8     7     9    1
     9     8    10    1
    10     9    11    2
    11    10    12    2
    12    11    12    1
