@<TRIPOS>MOLECULE
/home/cewinharhar/GITHUB/reincatalyze/data/processed/docking_pred/2023-Apr-25-1630_maxeplen5_maxtrainstep200_exh32_gamma099_lrac3e-4_lrcr1e-3/80c9945afd0f5f9f0270d56cce32b054e5c09707_ligand_2.pdbqt
 12 12 0 0 0
SMALL
GASTEIGER

@<TRIPOS>ATOM
      1  C          5.4590    2.9080    0.0160 C.3     1  UNL1        0.1270
      2  C          6.2610    3.8660    0.8120 C.2     1  UNL1        0.3030
      3  O          6.8990    4.7750    0.2590 O.2     1  UNL1       -0.2520
      4  O          6.3010    3.7440    2.1880 O.3     1  UNL1       -0.4810
      5  H          7.0710    4.1050    2.7430 H       1  UNL1        0.2960
      6  C          4.9060    1.8170    0.8980 C.3     1  UNL1        0.0470
      7  C          5.7470    0.6040    0.9040 C.2     1  UNL1       -0.0470
      8  C          6.5370    0.2080   -0.1440 C.2     1  UNL1        0.0040
      9  C          5.7320   -0.1760    2.0360 C.2     1  UNL1        0.0040
     10  C          7.2920   -0.9450   -0.0520 C.2     1  UNL1        0.0000
     11  C          6.4700   -1.3170    2.1460 C.2     1  UNL1        0.0000
     12  C          7.2650   -1.7160    1.0930 C.2     1  UNL1        0.0000
@<TRIPOS>BOND
     1     8    10    1
     2     8     7    2
     3    10    12    2
     4     1     2    1
     5     1     6    1
     6     3     2    2
     7     2     4    1
     8     6     7    1
     9     7     9    1
    10    12    11    1
    11     9    11    2
    12     4     5    1
