MODEL 1
REMARK VINA RESULT:      -7.3      0.000      0.000
REMARK SMILES O=C(O)CCc1ccccc1
REMARK SMILES IDX 4 1 2 2 1 3 3 4 5 6 6 7 7 8 11 9 8 10 10 11 9 12
REMARK H PARENT 3 5
REMARK Flexibility Score: inf
ROOT
ATOM      1  C   UNL     1       8.407  -0.665  -2.091  1.00  0.00     0.127 C 
ENDROOT
BRANCH   1   2
ATOM      2  C   UNL     1       8.465  -1.915  -2.885  1.00  0.00     0.303 C 
ATOM      3  O   UNL     1       9.546  -2.490  -3.087  1.00  0.00    -0.252 OA
BRANCH   2   4
ATOM      4  O   UNL     1       7.301  -2.445  -3.409  1.00  0.00    -0.481 OA
ATOM      5  H   UNL     1       7.306  -3.124  -4.165  1.00  0.00     0.296 HD
ENDBRANCH   2   4
ENDBRANCH   1   2
BRANCH   1   6
ATOM      6  C   UNL     1       7.011  -0.093  -2.103  1.00  0.00     0.047 C 
BRANCH   6   7
ATOM      7  C   UNL     1       6.453   0.085  -0.749  1.00  0.00    -0.047 A 
ATOM      8  C   UNL     1       5.811   1.219  -0.322  1.00  0.00     0.004 A 
ATOM      9  C   UNL     1       6.590  -0.956   0.138  1.00  0.00     0.004 A 
ATOM     10  C   UNL     1       5.320   1.300   0.967  1.00  0.00     0.000 A 
ATOM     11  C   UNL     1       6.113  -0.895   1.414  1.00  0.00     0.000 A 
ATOM     12  C   UNL     1       5.466   0.244   1.844  1.00  0.00     0.000 A 
ENDBRANCH   6   7
ENDBRANCH   1   6
TORSDOF 4
ENDMDL
MODEL 2
REMARK VINA RESULT:      -7.3      0.140      1.432
REMARK SMILES O=C(O)CCc1ccccc1
REMARK SMILES IDX 4 1 2 2 1 3 3 4 5 6 6 7 7 8 11 9 8 10 10 11 9 12
REMARK H PARENT 3 5
REMARK Flexibility Score: inf
ROOT
ATOM      1  C   UNL     1       8.442  -0.567  -2.263  1.00  0.00     0.127 C 
ENDROOT
BRANCH   1   2
ATOM      2  C   UNL     1       8.503  -1.877  -2.952  1.00  0.00     0.303 C 
ATOM      3  O   UNL     1       9.587  -2.456  -3.121  1.00  0.00    -0.252 OA
BRANCH   2   4
ATOM      4  O   UNL     1       7.339  -2.460  -3.414  1.00  0.00    -0.481 OA
ATOM      5  H   UNL     1       6.996  -3.347  -3.056  1.00  0.00     0.296 HD
ENDBRANCH   2   4
ENDBRANCH   1   2
BRANCH   1   6
ATOM      6  C   UNL     1       7.021  -0.064  -2.204  1.00  0.00     0.047 C 
BRANCH   6   7
ATOM      7  C   UNL     1       6.508   0.043  -0.825  1.00  0.00    -0.047 A 
ATOM      8  C   UNL     1       6.625  -0.943   0.121  1.00  0.00     0.004 A 
ATOM      9  C   UNL     1       5.869   1.208  -0.471  1.00  0.00     0.004 A 
ATOM     10  C   UNL     1       6.113  -0.758   1.391  1.00  0.00     0.000 A 
ATOM     11  C   UNL     1       5.356   1.410   0.776  1.00  0.00     0.000 A 
ATOM     12  C   UNL     1       5.475   0.419   1.728  1.00  0.00     0.000 A 
ENDBRANCH   6   7
ENDBRANCH   1   6
TORSDOF 4
ENDMDL
MODEL 3
REMARK VINA RESULT:      -6.8      3.377      5.086
REMARK SMILES O=C(O)CCc1ccccc1
REMARK SMILES IDX 4 1 2 2 1 3 3 4 5 6 6 7 7 8 11 9 8 10 10 11 9 12
REMARK H PARENT 3 5
REMARK Flexibility Score: inf
ROOT
ATOM      1  C   UNL     1       5.002   1.805   0.745  1.00  0.00     0.127 C 
ENDROOT
BRANCH   1   2
ATOM      2  C   UNL     1       4.483   1.099   1.940  1.00  0.00     0.303 C 
ATOM      3  O   UNL     1       5.138   0.194   2.478  1.00  0.00    -0.252 OA
BRANCH   2   4
ATOM      4  O   UNL     1       3.253   1.454   2.461  1.00  0.00    -0.481 OA
ATOM      5  H   UNL     1       2.949   1.160   3.385  1.00  0.00     0.296 HD
ENDBRANCH   2   4
ENDBRANCH   1   2
BRANCH   1   6
ATOM      6  C   UNL     1       6.511   1.820   0.753  1.00  0.00     0.047 C 
BRANCH   6   7
ATOM      7  C   UNL     1       7.097   1.025  -0.344  1.00  0.00    -0.047 A 
ATOM      8  C   UNL     1       6.403   0.103  -1.085  1.00  0.00     0.004 A 
ATOM      9  C   UNL     1       8.425   1.224  -0.636  1.00  0.00     0.004 A 
ATOM     10  C   UNL     1       7.033  -0.599  -2.095  1.00  0.00     0.000 A 
ATOM     11  C   UNL     1       9.065   0.541  -1.627  1.00  0.00     0.000 A 
ATOM     12  C   UNL     1       8.368  -0.385  -2.374  1.00  0.00     0.000 A 
ENDBRANCH   6   7
ENDBRANCH   1   6
TORSDOF 4
ENDMDL
MODEL 4
REMARK VINA RESULT:      -6.7      3.823      4.908
REMARK SMILES O=C(O)CCc1ccccc1
REMARK SMILES IDX 4 1 2 2 1 3 3 4 5 6 6 7 7 8 11 9 8 10 10 11 9 12
REMARK H PARENT 3 5
REMARK Flexibility Score: inf
ROOT
ATOM      1  C   UNL     1       5.459   2.908   0.016  1.00  0.00     0.127 C 
ENDROOT
BRANCH   1   2
ATOM      2  C   UNL     1       6.261   3.866   0.812  1.00  0.00     0.303 C 
ATOM      3  O   UNL     1       6.899   4.775   0.259  1.00  0.00    -0.252 OA
BRANCH   2   4
ATOM      4  O   UNL     1       6.301   3.744   2.188  1.00  0.00    -0.481 OA
ATOM      5  H   UNL     1       7.071   4.105   2.743  1.00  0.00     0.296 HD
ENDBRANCH   2   4
ENDBRANCH   1   2
BRANCH   1   6
ATOM      6  C   UNL     1       4.906   1.817   0.898  1.00  0.00     0.047 C 
BRANCH   6   7
ATOM      7  C   UNL     1       5.747   0.604   0.904  1.00  0.00    -0.047 A 
ATOM      8  C   UNL     1       6.537   0.208  -0.144  1.00  0.00     0.004 A 
ATOM      9  C   UNL     1       5.732  -0.176   2.036  1.00  0.00     0.004 A 
ATOM     10  C   UNL     1       7.292  -0.945  -0.052  1.00  0.00     0.000 A 
ATOM     11  C   UNL     1       6.470  -1.317   2.146  1.00  0.00     0.000 A 
ATOM     12  C   UNL     1       7.265  -1.716   1.093  1.00  0.00     0.000 A 
ENDBRANCH   6   7
ENDBRANCH   1   6
TORSDOF 4
ENDMDL
MODEL 5
REMARK VINA RESULT:      -6.6      1.950      2.334
REMARK SMILES O=C(O)CCc1ccccc1
REMARK SMILES IDX 4 1 2 2 1 3 3 4 5 6 6 7 7 8 11 9 8 10 10 11 9 12
REMARK H PARENT 3 5
REMARK Flexibility Score: inf
ROOT
ATOM      1  C   UNL     1       8.294   0.156  -2.188  1.00  0.00     0.127 C 
ENDROOT
BRANCH   1   2
ATOM      2  C   UNL     1       9.407   0.341  -1.226  1.00  0.00     0.303 C 
ATOM      3  O   UNL     1       9.495  -0.369  -0.213  1.00  0.00    -0.252 OA
BRANCH   2   4
ATOM      4  O   UNL     1      10.357   1.316  -1.462  1.00  0.00    -0.481 OA
ATOM      5  H   UNL     1      11.018   1.256  -2.231  1.00  0.00     0.296 HD
ENDBRANCH   2   4
ENDBRANCH   1   2
BRANCH   1   6
ATOM      6  C   UNL     1       7.145  -0.571  -1.535  1.00  0.00     0.047 C 
BRANCH   6   7
ATOM      7  C   UNL     1       6.349   0.298  -0.646  1.00  0.00    -0.047 A 
ATOM      8  C   UNL     1       5.819   1.506  -1.020  1.00  0.00     0.004 A 
ATOM      9  C   UNL     1       6.130  -0.136   0.640  1.00  0.00     0.004 A 
ATOM     10  C   UNL     1       5.087   2.256  -0.121  1.00  0.00     0.000 A 
ATOM     11  C   UNL     1       5.410   0.590   1.543  1.00  0.00     0.000 A 
ATOM     12  C   UNL     1       4.876   1.804   1.167  1.00  0.00     0.000 A 
ENDBRANCH   6   7
ENDBRANCH   1   6
TORSDOF 4
ENDMDL
