@<TRIPOS>MOLECULE
/home/cewinharhar/GITHUB/reincatalyze/data/processed/docking_pred/2023-Apr-25-1630_maxeplen5_maxtrainstep200_exh32_gamma099_lrac3e-4_lrcr1e-3/80c9945afd0f5f9f0270d56cce32b054e5c09707_ligand_2.pdbqt
 12 12 0 0 0
SMALL
GASTEIGER

@<TRIPOS>ATOM
      1  C          5.0020    1.8050    0.7450 C.3     1  UNL1        0.1270
      2  C          4.4830    1.0990    1.9400 C.2     1  UNL1        0.3030
      3  O          5.1380    0.1940    2.4780 O.2     1  UNL1       -0.2520
      4  O          3.2530    1.4540    2.4610 O.3     1  UNL1       -0.4810
      5  H          2.9490    1.1600    3.3850 H       1  UNL1        0.2960
      6  C          6.5110    1.8200    0.7530 C.3     1  UNL1        0.0470
      7  C          7.0970    1.0250   -0.3440 C.2     1  UNL1       -0.0470
      8  C          6.4030    0.1030   -1.0850 C.2     1  UNL1        0.0040
      9  C          8.4250    1.2240   -0.6360 C.2     1  UNL1        0.0040
     10  C          7.0330   -0.5990   -2.0950 C.2     1  UNL1        0.0000
     11  C          9.0650    0.5410   -1.6270 C.2     1  UNL1        0.0000
     12  C          8.3680   -0.3850   -2.3740 C.2     1  UNL1        0.0000
@<TRIPOS>BOND
     1    12    10    2
     2    12    11    1
     3    10     8    1
     4    11     9    2
     5     8     7    2
     6     9     7    1
     7     7     6    1
     8     1     6    1
     9     1     2    1
    10     2     4    1
    11     2     3    2
    12     4     5    1
