@<TRIPOS>MOLECULE
/home/cewinharhar/GITHUB/reincatalyze/data/processed/docking_pred/2023-Apr-25-1630_maxeplen5_maxtrainstep200_exh32_gamma099_lrac3e-4_lrcr1e-3/80c9945afd0f5f9f0270d56cce32b054e5c09707_ligand_2.pdbqt
 12 12 0 0 0
SMALL
GASTEIGER

@<TRIPOS>ATOM
      1  C          8.4420   -0.5670   -2.2630 C.3     1  UNL1        0.1270
      2  C          8.5030   -1.8770   -2.9520 C.2     1  UNL1        0.3030
      3  O          9.5870   -2.4560   -3.1210 O.2     1  UNL1       -0.2520
      4  O          7.3390   -2.4600   -3.4140 O.3     1  UNL1       -0.4810
      5  H          6.9960   -3.3470   -3.0560 H       1  UNL1        0.2960
      6  C          7.0210   -0.0640   -2.2040 C.3     1  UNL1        0.0470
      7  C          6.5080    0.0430   -0.8250 C.2     1  UNL1       -0.0470
      8  C          6.6250   -0.9430    0.1210 C.2     1  UNL1        0.0040
      9  C          5.8690    1.2080   -0.4710 C.2     1  UNL1        0.0040
     10  C          6.1130   -0.7580    1.3910 C.2     1  UNL1        0.0000
     11  C          5.3560    1.4100    0.7760 C.2     1  UNL1        0.0000
     12  C          5.4750    0.4190    1.7280 C.2     1  UNL1        0.0000
@<TRIPOS>BOND
     1     4     5    1
     2     4     2    1
     3     3     2    2
     4     2     1    1
     5     1     6    1
     6     6     7    1
     7     7     9    2
     8     7     8    1
     9     9    11    1
    10     8    10    2
    11    11    12    2
    12    10    12    1
