@<TRIPOS>MOLECULE
/home/cewinharhar/GITHUB/reincatalyze/data/processed/docking_pred/2023-Apr-25-1630_maxeplen5_maxtrainstep200_exh32_gamma099_lrac3e-4_lrcr1e-3/81487a167534eaf1a49a57d95a0bec7d9495d7bd_ligand_2.pdbqt
 12 12 0 0 0
SMALL
GASTEIGER

@<TRIPOS>ATOM
      1  C          5.5120    2.8930   -0.0330 C.3     1  UNL1        0.1270
      2  C          6.2510    3.9050    0.7570 C.2     1  UNL1        0.3030
      3  O          6.9350    4.7750    0.1950 O.2     1  UNL1       -0.2520
      4  O          6.1780    3.8810    2.1370 O.3     1  UNL1       -0.4810
      5  H          6.0490    3.0180    2.6580 H       1  UNL1        0.2960
      6  C          4.9840    1.8020    0.8650 C.3     1  UNL1        0.0470
      7  C          5.8090    0.5790    0.8270 C.2     1  UNL1       -0.0470
      8  C          6.5130    0.1570   -0.2710 C.2     1  UNL1        0.0040
      9  C          5.8710   -0.1830    1.9700 C.2     1  UNL1        0.0040
     10  C          7.2610   -1.0040   -0.2170 C.2     1  UNL1        0.0000
     11  C          6.6020   -1.3310    2.0430 C.2     1  UNL1        0.0000
     12  C          7.3110   -1.7560    0.9390 C.2     1  UNL1        0.0000
@<TRIPOS>BOND
     1     8    10    1
     2     8     7    2
     3    10    12    2
     4     1     2    1
     5     1     6    1
     6     3     2    2
     7     2     4    1
     8     7     6    1
     9     7     9    1
    10    12    11    1
    11     9    11    2
    12     4     5    1
