@<TRIPOS>MOLECULE
/home/cewinharhar/GITHUB/reincatalyze/data/processed/docking_pred/2023-Apr-25-1630_maxeplen5_maxtrainstep200_exh32_gamma099_lrac3e-4_lrcr1e-3/81487a167534eaf1a49a57d95a0bec7d9495d7bd_ligand_2.pdbqt
 12 12 0 0 0
SMALL
GASTEIGER

@<TRIPOS>ATOM
      1  C          8.4230   -0.5810   -2.2480 C.3     1  UNL1        0.1270
      2  C          8.4850   -1.8880   -2.9440 C.2     1  UNL1        0.3030
      3  O          9.5670   -2.4760   -3.0970 O.2     1  UNL1       -0.2520
      4  O          7.3230   -2.4590   -3.4280 O.3     1  UNL1       -0.4810
      5  H          6.7600   -2.0170   -4.1490 H       1  UNL1        0.2960
      6  C          7.0010   -0.0820   -2.1820 C.3     1  UNL1        0.0470
      7  C          6.4910    0.0110   -0.8010 C.2     1  UNL1       -0.0470
      8  C          6.6030   -0.9870    0.1330 C.2     1  UNL1        0.0040
      9  C          5.8630    1.1770   -0.4310 C.2     1  UNL1        0.0040
     10  C          6.0950   -0.8140    1.4060 C.2     1  UNL1        0.0000
     11  C          5.3540    1.3670    0.8200 C.2     1  UNL1        0.0000
     12  C          5.4670    0.3640    1.7590 C.2     1  UNL1        0.0000
@<TRIPOS>BOND
     1     5     4    1
     2     4     2    1
     3     3     2    2
     4     2     1    1
     5     1     6    1
     6     6     7    1
     7     7     9    2
     8     7     8    1
     9     9    11    1
    10     8    10    2
    11    11    12    2
    12    10    12    1
