@<TRIPOS>MOLECULE
/home/cewinharhar/GITHUB/reincatalyze/data/processed/docking_pred/2023-Apr-25-1630_maxeplen5_maxtrainstep200_exh32_gamma099_lrac3e-4_lrcr1e-3/81487a167534eaf1a49a57d95a0bec7d9495d7bd_ligand_2.pdbqt
 12 12 0 0 0
SMALL
GASTEIGER

@<TRIPOS>ATOM
      1  C          8.4140   -0.6500   -2.1250 C.3     1  UNL1        0.1270
      2  C          8.4700   -1.9130   -2.8980 C.2     1  UNL1        0.3030
      3  O          9.5500   -2.4930   -3.0900 O.2     1  UNL1       -0.2520
      4  O          7.3050   -2.4510   -3.4120 O.3     1  UNL1       -0.4810
      5  H          6.4960   -2.6500   -2.8310 H       1  UNL1        0.2960
      6  C          7.0150   -0.0850   -2.1340 C.3     1  UNL1        0.0470
      7  C          6.4620    0.0940   -0.7780 C.2     1  UNL1       -0.0470
      8  C          5.8260    1.2300   -0.3470 C.2     1  UNL1        0.0040
      9  C          6.5960   -0.9490    0.1080 C.2     1  UNL1        0.0040
     10  C          5.3390    1.3120    0.9430 C.2     1  UNL1        0.0000
     11  C          6.1230   -0.8880    1.3860 C.2     1  UNL1        0.0000
     12  C          5.4830    0.2540    1.8190 C.2     1  UNL1        0.0000
@<TRIPOS>BOND
     1     4     2    1
     2     4     5    1
     3     3     2    2
     4     2     1    1
     5     6     1    1
     6     6     7    1
     7     7     8    2
     8     7     9    1
     9     8    10    1
    10     9    11    2
    11    10    12    2
    12    11    12    1
