MODEL 1
REMARK VINA RESULT:      -7.3      0.000      0.000
REMARK SMILES O=C(O)CCc1ccccc1
REMARK SMILES IDX 4 1 2 2 1 3 3 4 5 6 6 7 7 8 11 9 8 10 10 11 9 12
REMARK H PARENT 3 5
REMARK Flexibility Score: inf
ROOT
ATOM      1  C   UNL     1       8.414  -0.650  -2.125  1.00  0.00     0.127 C 
ENDROOT
BRANCH   1   2
ATOM      2  C   UNL     1       8.470  -1.913  -2.898  1.00  0.00     0.303 C 
ATOM      3  O   UNL     1       9.550  -2.493  -3.090  1.00  0.00    -0.252 OA
BRANCH   2   4
ATOM      4  O   UNL     1       7.305  -2.451  -3.412  1.00  0.00    -0.481 OA
ATOM      5  H   UNL     1       6.496  -2.650  -2.831  1.00  0.00     0.296 HD
ENDBRANCH   2   4
ENDBRANCH   1   2
BRANCH   1   6
ATOM      6  C   UNL     1       7.015  -0.085  -2.134  1.00  0.00     0.047 C 
BRANCH   6   7
ATOM      7  C   UNL     1       6.462   0.094  -0.778  1.00  0.00    -0.047 A 
ATOM      8  C   UNL     1       5.826   1.230  -0.347  1.00  0.00     0.004 A 
ATOM      9  C   UNL     1       6.596  -0.949   0.108  1.00  0.00     0.004 A 
ATOM     10  C   UNL     1       5.339   1.312   0.943  1.00  0.00     0.000 A 
ATOM     11  C   UNL     1       6.123  -0.888   1.386  1.00  0.00     0.000 A 
ATOM     12  C   UNL     1       5.483   0.254   1.819  1.00  0.00     0.000 A 
ENDBRANCH   6   7
ENDBRANCH   1   6
TORSDOF 4
ENDMDL
MODEL 2
REMARK VINA RESULT:      -7.3      0.090      1.429
REMARK SMILES O=C(O)CCc1ccccc1
REMARK SMILES IDX 4 1 2 2 1 3 3 4 5 6 6 7 7 8 11 9 8 10 10 11 9 12
REMARK H PARENT 3 5
REMARK Flexibility Score: inf
ROOT
ATOM      1  C   UNL     1       8.423  -0.581  -2.248  1.00  0.00     0.127 C 
ENDROOT
BRANCH   1   2
ATOM      2  C   UNL     1       8.485  -1.888  -2.944  1.00  0.00     0.303 C 
ATOM      3  O   UNL     1       9.567  -2.476  -3.097  1.00  0.00    -0.252 OA
BRANCH   2   4
ATOM      4  O   UNL     1       7.323  -2.459  -3.428  1.00  0.00    -0.481 OA
ATOM      5  H   UNL     1       6.760  -2.017  -4.149  1.00  0.00     0.296 HD
ENDBRANCH   2   4
ENDBRANCH   1   2
BRANCH   1   6
ATOM      6  C   UNL     1       7.001  -0.082  -2.182  1.00  0.00     0.047 C 
BRANCH   6   7
ATOM      7  C   UNL     1       6.491   0.011  -0.801  1.00  0.00    -0.047 A 
ATOM      8  C   UNL     1       6.603  -0.987   0.133  1.00  0.00     0.004 A 
ATOM      9  C   UNL     1       5.863   1.177  -0.431  1.00  0.00     0.004 A 
ATOM     10  C   UNL     1       6.095  -0.814   1.406  1.00  0.00     0.000 A 
ATOM     11  C   UNL     1       5.354   1.367   0.820  1.00  0.00     0.000 A 
ATOM     12  C   UNL     1       5.467   0.364   1.759  1.00  0.00     0.000 A 
ENDBRANCH   6   7
ENDBRANCH   1   6
TORSDOF 4
ENDMDL
MODEL 3
REMARK VINA RESULT:      -6.8      3.373      5.079
REMARK SMILES O=C(O)CCc1ccccc1
REMARK SMILES IDX 4 1 2 2 1 3 3 4 5 6 6 7 7 8 11 9 8 10 10 11 9 12
REMARK H PARENT 3 5
REMARK Flexibility Score: inf
ROOT
ATOM      1  C   UNL     1       5.004   1.794   0.717  1.00  0.00     0.127 C 
ENDROOT
BRANCH   1   2
ATOM      2  C   UNL     1       4.499   1.102   1.926  1.00  0.00     0.303 C 
ATOM      3  O   UNL     1       5.166   0.210   2.473  1.00  0.00    -0.252 OA
BRANCH   2   4
ATOM      4  O   UNL     1       3.269   1.453   2.449  1.00  0.00    -0.481 OA
ATOM      5  H   UNL     1       3.169   2.159   3.173  1.00  0.00     0.296 HD
ENDBRANCH   2   4
ENDBRANCH   1   2
BRANCH   1   6
ATOM      6  C   UNL     1       6.512   1.831   0.718  1.00  0.00     0.047 C 
BRANCH   6   7
ATOM      7  C   UNL     1       7.105   1.021  -0.364  1.00  0.00    -0.047 A 
ATOM      8  C   UNL     1       6.417   0.087  -1.095  1.00  0.00     0.004 A 
ATOM      9  C   UNL     1       8.434   1.220  -0.653  1.00  0.00     0.004 A 
ATOM     10  C   UNL     1       7.054  -0.628  -2.091  1.00  0.00     0.000 A 
ATOM     11  C   UNL     1       9.081   0.525  -1.632  1.00  0.00     0.000 A 
ATOM     12  C   UNL     1       8.389  -0.414  -2.367  1.00  0.00     0.000 A 
ENDBRANCH   6   7
ENDBRANCH   1   6
TORSDOF 4
ENDMDL
MODEL 4
REMARK VINA RESULT:      -6.7      3.792      4.914
REMARK SMILES O=C(O)CCc1ccccc1
REMARK SMILES IDX 4 1 2 2 1 3 3 4 5 6 6 7 7 8 11 9 8 10 10 11 9 12
REMARK H PARENT 3 5
REMARK Flexibility Score: inf
ROOT
ATOM      1  C   UNL     1       5.512   2.893  -0.033  1.00  0.00     0.127 C 
ENDROOT
BRANCH   1   2
ATOM      2  C   UNL     1       6.251   3.905   0.757  1.00  0.00     0.303 C 
ATOM      3  O   UNL     1       6.935   4.775   0.195  1.00  0.00    -0.252 OA
BRANCH   2   4
ATOM      4  O   UNL     1       6.178   3.881   2.137  1.00  0.00    -0.481 OA
ATOM      5  H   UNL     1       6.049   3.018   2.658  1.00  0.00     0.296 HD
ENDBRANCH   2   4
ENDBRANCH   1   2
BRANCH   1   6
ATOM      6  C   UNL     1       4.984   1.802   0.865  1.00  0.00     0.047 C 
BRANCH   6   7
ATOM      7  C   UNL     1       5.809   0.579   0.827  1.00  0.00    -0.047 A 
ATOM      8  C   UNL     1       6.513   0.157  -0.271  1.00  0.00     0.004 A 
ATOM      9  C   UNL     1       5.871  -0.183   1.970  1.00  0.00     0.004 A 
ATOM     10  C   UNL     1       7.261  -1.004  -0.217  1.00  0.00     0.000 A 
ATOM     11  C   UNL     1       6.602  -1.331   2.043  1.00  0.00     0.000 A 
ATOM     12  C   UNL     1       7.311  -1.756   0.939  1.00  0.00     0.000 A 
ENDBRANCH   6   7
ENDBRANCH   1   6
TORSDOF 4
ENDMDL
MODEL 5
REMARK VINA RESULT:      -6.6      1.943      2.260
REMARK SMILES O=C(O)CCc1ccccc1
REMARK SMILES IDX 4 1 2 2 1 3 3 4 5 6 6 7 7 8 11 9 8 10 10 11 9 12
REMARK H PARENT 3 5
REMARK Flexibility Score: inf
ROOT
ATOM      1  C   UNL     1       8.196   0.261  -2.085  1.00  0.00     0.127 C 
ENDROOT
BRANCH   1   2
ATOM      2  C   UNL     1       9.367   0.369  -1.182  1.00  0.00     0.303 C 
ATOM      3  O   UNL     1       9.486  -0.384  -0.204  1.00  0.00    -0.252 OA
BRANCH   2   4
ATOM      4  O   UNL     1      10.336   1.321  -1.433  1.00  0.00    -0.481 OA
ATOM      5  H   UNL     1      10.110   2.300  -1.585  1.00  0.00     0.296 HD
ENDBRANCH   2   4
ENDBRANCH   1   2
BRANCH   1   6
ATOM      6  C   UNL     1       7.116  -0.580  -1.453  1.00  0.00     0.047 C 
BRANCH   6   7
ATOM      7  C   UNL     1       6.333   0.158  -0.443  1.00  0.00    -0.047 A 
ATOM      8  C   UNL     1       5.775   1.393  -0.650  1.00  0.00     0.004 A 
ATOM      9  C   UNL     1       6.156  -0.436   0.785  1.00  0.00     0.004 A 
ATOM     10  C   UNL     1       5.057   2.013   0.355  1.00  0.00     0.000 A 
ATOM     11  C   UNL     1       5.452   0.159   1.789  1.00  0.00     0.000 A 
ATOM     12  C   UNL     1       4.890   1.401   1.581  1.00  0.00     0.000 A 
ENDBRANCH   6   7
ENDBRANCH   1   6
TORSDOF 4
ENDMDL
