@<TRIPOS>MOLECULE
/home/cewinharhar/GITHUB/reincatalyze/data/processed/docking_pred/2023-Apr-25-1630_maxeplen5_maxtrainstep200_exh32_gamma099_lrac3e-4_lrcr1e-3/81487a167534eaf1a49a57d95a0bec7d9495d7bd_ligand_2.pdbqt
 12 12 0 0 0
SMALL
GASTEIGER

@<TRIPOS>ATOM
      1  C          5.0040    1.7940    0.7170 C.3     1  UNL1        0.1270
      2  C          4.4990    1.1020    1.9260 C.2     1  UNL1        0.3030
      3  O          5.1660    0.2100    2.4730 O.2     1  UNL1       -0.2520
      4  O          3.2690    1.4530    2.4490 O.3     1  UNL1       -0.4810
      5  H          3.1690    2.1590    3.1730 H       1  UNL1        0.2960
      6  C          6.5120    1.8310    0.7180 C.3     1  UNL1        0.0470
      7  C          7.1050    1.0210   -0.3640 C.2     1  UNL1       -0.0470
      8  C          6.4170    0.0870   -1.0950 C.2     1  UNL1        0.0040
      9  C          8.4340    1.2200   -0.6530 C.2     1  UNL1        0.0040
     10  C          7.0540   -0.6280   -2.0910 C.2     1  UNL1        0.0000
     11  C          9.0810    0.5250   -1.6320 C.2     1  UNL1        0.0000
     12  C          8.3890   -0.4140   -2.3670 C.2     1  UNL1        0.0000
@<TRIPOS>BOND
     1    12    10    2
     2    12    11    1
     3    10     8    1
     4    11     9    2
     5     8     7    2
     6     9     7    1
     7     7     6    1
     8     1     6    1
     9     1     2    1
    10     2     4    1
    11     2     3    2
    12     4     5    1
