MODEL 1
REMARK VINA RESULT:      -7.4      0.000      0.000
REMARK SMILES O=C(O)CCc1ccccc1
REMARK SMILES IDX 4 1 2 2 1 3 3 4 5 6 6 7 7 8 11 9 8 10 10 11 9 12
REMARK H PARENT 3 5
REMARK Flexibility Score: inf
ROOT
ATOM      1  C   UNL     1       8.442  -0.670  -2.126  1.00  0.00     0.127 C 
ENDROOT
BRANCH   1   2
ATOM      2  C   UNL     1       8.483  -1.934  -2.897  1.00  0.00     0.303 C 
ATOM      3  O   UNL     1       9.555  -2.529  -3.086  1.00  0.00    -0.252 OA
BRANCH   2   4
ATOM      4  O   UNL     1       7.313  -2.457  -3.413  1.00  0.00    -0.481 OA
ATOM      5  H   UNL     1       6.675  -3.017  -2.853  1.00  0.00     0.296 HD
ENDBRANCH   2   4
ENDBRANCH   1   2
BRANCH   1   6
ATOM      6  C   UNL     1       7.047  -0.097  -2.119  1.00  0.00     0.047 C 
BRANCH   6   7
ATOM      7  C   UNL     1       6.490   0.037  -0.759  1.00  0.00    -0.047 A 
ATOM      8  C   UNL     1       6.574  -0.931   0.208  1.00  0.00     0.004 A 
ATOM      9  C   UNL     1       5.844   1.210  -0.449  1.00  0.00     0.004 A 
ATOM     10  C   UNL     1       6.021  -0.721   1.457  1.00  0.00     0.000 A 
ATOM     11  C   UNL     1       5.291   1.437   0.778  1.00  0.00     0.000 A 
ATOM     12  C   UNL     1       5.376   0.464   1.751  1.00  0.00     0.000 A 
ENDBRANCH   6   7
ENDBRANCH   1   6
TORSDOF 4
ENDMDL
MODEL 2
REMARK VINA RESULT:      -7.3      0.111      1.428
REMARK SMILES O=C(O)CCc1ccccc1
REMARK SMILES IDX 4 1 2 2 1 3 3 4 5 6 6 7 7 8 11 9 8 10 10 11 9 12
REMARK H PARENT 3 5
REMARK Flexibility Score: inf
ROOT
ATOM      1  C   UNL     1       8.444  -0.658  -2.121  1.00  0.00     0.127 C 
ENDROOT
BRANCH   1   2
ATOM      2  C   UNL     1       8.485  -1.916  -2.903  1.00  0.00     0.303 C 
ATOM      3  O   UNL     1       9.559  -2.505  -3.102  1.00  0.00    -0.252 OA
BRANCH   2   4
ATOM      4  O   UNL     1       7.315  -2.439  -3.418  1.00  0.00    -0.481 OA
ATOM      5  H   UNL     1       6.570  -2.791  -2.823  1.00  0.00     0.296 HD
ENDBRANCH   2   4
ENDBRANCH   1   2
BRANCH   1   6
ATOM      6  C   UNL     1       7.060  -0.058  -2.156  1.00  0.00     0.047 C 
BRANCH   6   7
ATOM      7  C   UNL     1       6.480   0.121  -0.811  1.00  0.00    -0.047 A 
ATOM      8  C   UNL     1       5.817   1.249  -0.400  1.00  0.00     0.004 A 
ATOM      9  C   UNL     1       6.618  -0.912   0.086  1.00  0.00     0.004 A 
ATOM     10  C   UNL     1       5.306   1.331   0.881  1.00  0.00     0.000 A 
ATOM     11  C   UNL     1       6.122  -0.850   1.354  1.00  0.00     0.000 A 
ATOM     12  C   UNL     1       5.454   0.283   1.767  1.00  0.00     0.000 A 
ENDBRANCH   6   7
ENDBRANCH   1   6
TORSDOF 4
ENDMDL
MODEL 3
REMARK VINA RESULT:      -6.8      3.369      5.066
REMARK SMILES O=C(O)CCc1ccccc1
REMARK SMILES IDX 4 1 2 2 1 3 3 4 5 6 6 7 7 8 11 9 8 10 10 11 9 12
REMARK H PARENT 3 5
REMARK Flexibility Score: inf
ROOT
ATOM      1  C   UNL     1       4.991   1.784   0.726  1.00  0.00     0.127 C 
ENDROOT
BRANCH   1   2
ATOM      2  C   UNL     1       4.483   1.091   1.933  1.00  0.00     0.303 C 
ATOM      3  O   UNL     1       5.144   0.191   2.475  1.00  0.00    -0.252 OA
BRANCH   2   4
ATOM      4  O   UNL     1       3.258   1.450   2.461  1.00  0.00    -0.481 OA
ATOM      5  H   UNL     1       2.769   0.873   3.140  1.00  0.00     0.296 HD
ENDBRANCH   2   4
ENDBRANCH   1   2
BRANCH   1   6
ATOM      6  C   UNL     1       6.499   1.818   0.729  1.00  0.00     0.047 C 
BRANCH   6   7
ATOM      7  C   UNL     1       7.092   1.008  -0.352  1.00  0.00    -0.047 A 
ATOM      8  C   UNL     1       6.411   0.056  -1.066  1.00  0.00     0.004 A 
ATOM      9  C   UNL     1       8.415   1.225  -0.659  1.00  0.00     0.004 A 
ATOM     10  C   UNL     1       7.047  -0.658  -2.064  1.00  0.00     0.000 A 
ATOM     11  C   UNL     1       9.061   0.531  -1.639  1.00  0.00     0.000 A 
ATOM     12  C   UNL     1       8.376  -0.426  -2.358  1.00  0.00     0.000 A 
ENDBRANCH   6   7
ENDBRANCH   1   6
TORSDOF 4
ENDMDL
MODEL 4
REMARK VINA RESULT:      -6.7      3.830      5.013
REMARK SMILES O=C(O)CCc1ccccc1
REMARK SMILES IDX 4 1 2 2 1 3 3 4 5 6 6 7 7 8 11 9 8 10 10 11 9 12
REMARK H PARENT 3 5
REMARK Flexibility Score: inf
ROOT
ATOM      1  C   UNL     1       5.440   2.923   0.023  1.00  0.00     0.127 C 
ENDROOT
BRANCH   1   2
ATOM      2  C   UNL     1       6.243   3.893   0.805  1.00  0.00     0.303 C 
ATOM      3  O   UNL     1       6.904   4.775   0.235  1.00  0.00    -0.252 OA
BRANCH   2   4
ATOM      4  O   UNL     1       6.255   3.814   2.184  1.00  0.00    -0.481 OA
ATOM      5  H   UNL     1       7.091   4.000   2.731  1.00  0.00     0.296 HD
ENDBRANCH   2   4
ENDBRANCH   1   2
BRANCH   1   6
ATOM      6  C   UNL     1       4.898   1.838   0.921  1.00  0.00     0.047 C 
BRANCH   6   7
ATOM      7  C   UNL     1       5.721   0.613   0.900  1.00  0.00    -0.047 A 
ATOM      8  C   UNL     1       6.424   0.174  -0.192  1.00  0.00     0.004 A 
ATOM      9  C   UNL     1       5.781  -0.133   2.053  1.00  0.00     0.004 A 
ATOM     10  C   UNL     1       7.168  -0.987  -0.123  1.00  0.00     0.000 A 
ATOM     11  C   UNL     1       6.510  -1.282   2.141  1.00  0.00     0.000 A 
ATOM     12  C   UNL     1       7.218  -1.724   1.044  1.00  0.00     0.000 A 
ENDBRANCH   6   7
ENDBRANCH   1   6
TORSDOF 4
ENDMDL
MODEL 5
REMARK VINA RESULT:      -6.6      1.893      2.858
REMARK SMILES O=C(O)CCc1ccccc1
REMARK SMILES IDX 4 1 2 2 1 3 3 4 5 6 6 7 7 8 11 9 8 10 10 11 9 12
REMARK H PARENT 3 5
REMARK Flexibility Score: inf
ROOT
ATOM      1  C   UNL     1       8.151  -1.659   1.169  1.00  0.00     0.127 C 
ENDROOT
BRANCH   1   2
ATOM      2  C   UNL     1       8.509  -2.854   0.369  1.00  0.00     0.303 C 
ATOM      3  O   UNL     1       9.200  -3.762   0.858  1.00  0.00    -0.252 OA
BRANCH   2   4
ATOM      4  O   UNL     1       8.067  -2.959  -0.936  1.00  0.00    -0.481 OA
ATOM      5  H   UNL     1       7.628  -3.802  -1.294  1.00  0.00     0.296 HD
ENDBRANCH   2   4
ENDBRANCH   1   2
BRANCH   1   6
ATOM      6  C   UNL     1       6.654  -1.549   1.318  1.00  0.00     0.047 C 
BRANCH   6   7
ATOM      7  C   UNL     1       6.124  -0.260   0.836  1.00  0.00    -0.047 A 
ATOM      8  C   UNL     1       5.383   0.604   1.601  1.00  0.00     0.004 A 
ATOM      9  C   UNL     1       6.391   0.093  -0.465  1.00  0.00     0.004 A 
ATOM     10  C   UNL     1       4.924   1.793   1.066  1.00  0.00     0.000 A 
ATOM     11  C   UNL     1       5.948   1.261  -1.012  1.00  0.00     0.000 A 
ATOM     12  C   UNL     1       5.203   2.130  -0.243  1.00  0.00     0.000 A 
ENDBRANCH   6   7
ENDBRANCH   1   6
TORSDOF 4
ENDMDL
