@<TRIPOS>MOLECULE
/home/cewinharhar/GITHUB/reincatalyze/data/processed/docking_pred/2023-Apr-25-1630_maxeplen5_maxtrainstep200_exh32_gamma099_lrac3e-4_lrcr1e-3/84f6a015bafc2578e701aafee66be27aa4cb1192_ligand_2.pdbqt
 12 12 0 0 0
SMALL
GASTEIGER

@<TRIPOS>ATOM
      1  C          5.4400    2.9230    0.0230 C.3     1  UNL1        0.1270
      2  C          6.2430    3.8930    0.8050 C.2     1  UNL1        0.3030
      3  O          6.9040    4.7750    0.2350 O.2     1  UNL1       -0.2520
      4  O          6.2550    3.8140    2.1840 O.3     1  UNL1       -0.4810
      5  H          7.0910    4.0000    2.7310 H       1  UNL1        0.2960
      6  C          4.8980    1.8380    0.9210 C.3     1  UNL1        0.0470
      7  C          5.7210    0.6130    0.9000 C.2     1  UNL1       -0.0470
      8  C          6.4240    0.1740   -0.1920 C.2     1  UNL1        0.0040
      9  C          5.7810   -0.1330    2.0530 C.2     1  UNL1        0.0040
     10  C          7.1680   -0.9870   -0.1230 C.2     1  UNL1        0.0000
     11  C          6.5100   -1.2820    2.1410 C.2     1  UNL1        0.0000
     12  C          7.2180   -1.7240    1.0440 C.2     1  UNL1        0.0000
@<TRIPOS>BOND
     1     8    10    1
     2     8     7    2
     3    10    12    2
     4     1     2    1
     5     1     6    1
     6     3     2    2
     7     2     4    1
     8     7     6    1
     9     7     9    1
    10    12    11    1
    11     9    11    2
    12     4     5    1
