@<TRIPOS>MOLECULE
/home/cewinharhar/GITHUB/reincatalyze/data/processed/docking_pred/2023-Apr-25-1630_maxeplen5_maxtrainstep200_exh32_gamma099_lrac3e-4_lrcr1e-3/84f6a015bafc2578e701aafee66be27aa4cb1192_ligand_2.pdbqt
 12 12 0 0 0
SMALL
GASTEIGER

@<TRIPOS>ATOM
      1  C          8.1510   -1.6590    1.1690 C.3     1  UNL1        0.1270
      2  C          8.5090   -2.8540    0.3690 C.2     1  UNL1        0.3030
      3  O          9.2000   -3.7620    0.8580 O.2     1  UNL1       -0.2520
      4  O          8.0670   -2.9590   -0.9360 O.3     1  UNL1       -0.4810
      5  H          7.6280   -3.8020   -1.2940 H       1  UNL1        0.2960
      6  C          6.6540   -1.5490    1.3180 C.3     1  UNL1        0.0470
      7  C          6.1240   -0.2600    0.8360 C.2     1  UNL1       -0.0470
      8  C          5.3830    0.6040    1.6010 C.2     1  UNL1        0.0040
      9  C          6.3910    0.0930   -0.4650 C.2     1  UNL1        0.0040
     10  C          4.9240    1.7930    1.0660 C.2     1  UNL1        0.0000
     11  C          5.9480    1.2610   -1.0120 C.2     1  UNL1        0.0000
     12  C          5.2030    2.1300   -0.2430 C.2     1  UNL1        0.0000
@<TRIPOS>BOND
     1     5     4    1
     2    11     9    1
     3    11    12    2
     4     4     2    1
     5     9     7    2
     6    12    10    1
     7     2     3    2
     8     2     1    1
     9     7     6    1
    10     7     8    1
    11    10     8    2
    12     1     6    1
