@<TRIPOS>MOLECULE
/home/cewinharhar/GITHUB/reincatalyze/data/processed/docking_pred/2023-Apr-25-1630_maxeplen5_maxtrainstep200_exh32_gamma099_lrac3e-4_lrcr1e-3/84f6a015bafc2578e701aafee66be27aa4cb1192_ligand_2.pdbqt
 12 12 0 0 0
SMALL
GASTEIGER

@<TRIPOS>ATOM
      1  C          8.4440   -0.6580   -2.1210 C.3     1  UNL1        0.1270
      2  C          8.4850   -1.9160   -2.9030 C.2     1  UNL1        0.3030
      3  O          9.5590   -2.5050   -3.1020 O.2     1  UNL1       -0.2520
      4  O          7.3150   -2.4390   -3.4180 O.3     1  UNL1       -0.4810
      5  H          6.5700   -2.7910   -2.8230 H       1  UNL1        0.2960
      6  C          7.0600   -0.0580   -2.1560 C.3     1  UNL1        0.0470
      7  C          6.4800    0.1210   -0.8110 C.2     1  UNL1       -0.0470
      8  C          5.8170    1.2490   -0.4000 C.2     1  UNL1        0.0040
      9  C          6.6180   -0.9120    0.0860 C.2     1  UNL1        0.0040
     10  C          5.3060    1.3310    0.8810 C.2     1  UNL1        0.0000
     11  C          6.1220   -0.8500    1.3540 C.2     1  UNL1        0.0000
     12  C          5.4540    0.2830    1.7670 C.2     1  UNL1        0.0000
@<TRIPOS>BOND
     1     4     2    1
     2     4     5    1
     3     3     2    2
     4     2     1    1
     5     6     1    1
     6     6     7    1
     7     7     8    2
     8     7     9    1
     9     8    10    1
    10     9    11    2
    11    10    12    2
    12    11    12    1
