@<TRIPOS>MOLECULE
/home/cewinharhar/GITHUB/reincatalyze/data/processed/docking_pred/2023-Apr-25-1630_maxeplen5_maxtrainstep200_exh32_gamma099_lrac3e-4_lrcr1e-3/84f6a015bafc2578e701aafee66be27aa4cb1192_ligand_2.pdbqt
 12 12 0 0 0
SMALL
GASTEIGER

@<TRIPOS>ATOM
      1  C          4.9910    1.7840    0.7260 C.3     1  UNL1        0.1270
      2  C          4.4830    1.0910    1.9330 C.2     1  UNL1        0.3030
      3  O          5.1440    0.1910    2.4750 O.2     1  UNL1       -0.2520
      4  O          3.2580    1.4500    2.4610 O.3     1  UNL1       -0.4810
      5  H          2.7690    0.8730    3.1400 H       1  UNL1        0.2960
      6  C          6.4990    1.8180    0.7290 C.3     1  UNL1        0.0470
      7  C          7.0920    1.0080   -0.3520 C.2     1  UNL1       -0.0470
      8  C          6.4110    0.0560   -1.0660 C.2     1  UNL1        0.0040
      9  C          8.4150    1.2250   -0.6590 C.2     1  UNL1        0.0040
     10  C          7.0470   -0.6580   -2.0640 C.2     1  UNL1        0.0000
     11  C          9.0610    0.5310   -1.6390 C.2     1  UNL1        0.0000
     12  C          8.3760   -0.4260   -2.3580 C.2     1  UNL1        0.0000
@<TRIPOS>BOND
     1    12    10    2
     2    12    11    1
     3    10     8    1
     4    11     9    2
     5     8     7    2
     6     9     7    1
     7     7     6    1
     8     1     6    1
     9     1     2    1
    10     2     4    1
    11     2     3    2
    12     4     5    1
