@<TRIPOS>MOLECULE
/home/cewinharhar/GITHUB/reincatalyze/data/processed/docking_pred/2023-Apr-25-1630_maxeplen5_maxtrainstep200_exh32_gamma099_lrac3e-4_lrcr1e-3/87c24324279ed01ab1d4888e5c128f335f215516_ligand_2.pdbqt
 12 12 0 0 0
SMALL
GASTEIGER

@<TRIPOS>ATOM
      1  C          8.2940    0.2490   -2.1500 C.3     1  UNL1        0.1270
      2  C          9.4280    0.3970   -1.2070 C.2     1  UNL1        0.3030
      3  O          9.5290   -0.3420   -0.2150 O.2     1  UNL1       -0.2520
      4  O         10.3820    1.3690   -1.4350 O.3     1  UNL1       -0.4810
      5  H         10.6540    2.0410   -0.7220 H       1  UNL1        0.2960
      6  C          7.1760   -0.5400   -1.5160 C.3     1  UNL1        0.0470
      7  C          6.3720    0.2630   -0.5740 C.2     1  UNL1       -0.0470
      8  C          5.8100    1.4760   -0.8790 C.2     1  UNL1        0.0040
      9  C          6.1770   -0.2430    0.6890 C.2     1  UNL1        0.0040
     10  C          5.0720    2.1610    0.0660 C.2     1  UNL1        0.0000
     11  C          5.4520    0.4180    1.6360 C.2     1  UNL1        0.0000
     12  C          4.8860    1.6380    1.3300 C.2     1  UNL1        0.0000
@<TRIPOS>BOND
     1     1     6    1
     2     1     2    1
     3     6     7    1
     4     4     2    1
     5     4     5    1
     6     2     3    2
     7     8     7    2
     8     8    10    1
     9     7     9    1
    10    10    12    2
    11     9    11    2
    12    12    11    1
