@<TRIPOS>MOLECULE
/home/cewinharhar/GITHUB/reincatalyze/data/processed/docking_pred/2023-Apr-25-1630_maxeplen5_maxtrainstep200_exh32_gamma099_lrac3e-4_lrcr1e-3/87c24324279ed01ab1d4888e5c128f335f215516_ligand_2.pdbqt
 12 12 0 0 0
SMALL
GASTEIGER

@<TRIPOS>ATOM
      1  C          8.3150   -1.7210    1.1760 C.3     1  UNL1        0.1270
      2  C          8.7160   -2.9780    0.5010 C.2     1  UNL1        0.3030
      3  O          9.4470   -3.8010    1.0740 O.2     1  UNL1       -0.2520
      4  O          8.2710   -3.2360   -0.7810 O.3     1  UNL1       -0.4810
      5  H          8.8270   -3.0180   -1.6030 H       1  UNL1        0.2960
      6  C          6.8160   -1.6590    1.3330 C.3     1  UNL1        0.0470
      7  C          6.2440   -0.3810    0.8670 C.2     1  UNL1       -0.0470
      8  C          5.4670    0.4440    1.6380 C.2     1  UNL1        0.0040
      9  C          6.5100    0.0020   -0.4260 C.2     1  UNL1        0.0040
     10  C          4.9710    1.6250    1.1190 C.2     1  UNL1        0.0000
     11  C          6.0300    1.1630   -0.9580 C.2     1  UNL1        0.0000
     12  C          5.2490    1.9930   -0.1820 C.2     1  UNL1        0.0000
@<TRIPOS>BOND
     1     5     4    1
     2    11     9    1
     3    11    12    2
     4     4     2    1
     5     9     7    2
     6    12    10    1
     7     2     3    2
     8     2     1    1
     9     7     6    1
    10     7     8    1
    11    10     8    2
    12     1     6    1
