@<TRIPOS>MOLECULE
/home/cewinharhar/GITHUB/reincatalyze/data/processed/docking_pred/2023-Apr-25-1630_maxeplen5_maxtrainstep200_exh32_gamma099_lrac3e-4_lrcr1e-3/87c24324279ed01ab1d4888e5c128f335f215516_ligand_2.pdbqt
 12 12 0 0 0
SMALL
GASTEIGER

@<TRIPOS>ATOM
      1  C          5.0510    1.7240    0.6930 C.3     1  UNL1        0.1270
      2  C          4.6060    1.0330    1.9270 C.2     1  UNL1        0.3030
      3  O          5.3290    0.1880    2.4770 O.2     1  UNL1       -0.2520
      4  O          3.3720    1.3340    2.4700 O.3     1  UNL1       -0.4810
      5  H          2.8930    2.2090    2.2790 H       1  UNL1        0.2960
      6  C          6.5500    1.8870    0.6880 C.3     1  UNL1        0.0470
      7  C          7.2080    1.0980   -0.3710 C.2     1  UNL1       -0.0470
      8  C          8.5440    1.1750   -0.6740 C.2     1  UNL1        0.0040
      9  C          6.4270    0.2320   -1.0990 C.2     1  UNL1        0.0040
     10  C          9.0760    0.3980   -1.6850 C.2     1  UNL1        0.0000
     11  C          6.9340   -0.5420   -2.1010 C.2     1  UNL1        0.0000
     12  C          8.2760   -0.4660   -2.4050 C.2     1  UNL1        0.0000
@<TRIPOS>BOND
     1    12    11    2
     2    12    10    1
     3    11     9    1
     4    10     8    2
     5     9     7    2
     6     8     7    1
     7     7     6    1
     8     6     1    1
     9     1     2    1
    10     2     4    1
    11     2     3    2
    12     5     4    1
