@<TRIPOS>MOLECULE
/home/cewinharhar/GITHUB/reincatalyze/data/processed/docking_pred/2023-Apr-25-1630_maxeplen5_maxtrainstep200_exh32_gamma099_lrac3e-4_lrcr1e-3/87c24324279ed01ab1d4888e5c128f335f215516_ligand_2.pdbqt
 12 12 0 0 0
SMALL
GASTEIGER

@<TRIPOS>ATOM
      1  C          8.4180   -0.5590   -2.2610 C.3     1  UNL1        0.1270
      2  C          8.4710   -1.8800   -2.9310 C.2     1  UNL1        0.3030
      3  O          9.5480   -2.4810   -3.0670 O.2     1  UNL1       -0.2520
      4  O          7.3060   -2.4480   -3.4100 O.3     1  UNL1       -0.4810
      5  H          6.3900   -2.0530   -3.2190 H       1  UNL1        0.2960
      6  C          6.9970   -0.0580   -2.1870 C.3     1  UNL1        0.0470
      7  C          6.4920    0.0270   -0.8030 C.2     1  UNL1       -0.0470
      8  C          6.5950   -0.9820    0.1200 C.2     1  UNL1        0.0040
      9  C          5.8760    1.1950   -0.4210 C.2     1  UNL1        0.0040
     10  C          6.0910   -0.8160    1.3950 C.2     1  UNL1        0.0000
     11  C          5.3720    1.3780    0.8330 C.2     1  UNL1        0.0000
     12  C          5.4760    0.3650    1.7620 C.2     1  UNL1        0.0000
@<TRIPOS>BOND
     1     4     5    1
     2     4     2    1
     3     3     2    2
     4     2     1    1
     5     1     6    1
     6     6     7    1
     7     7     9    2
     8     7     8    1
     9     9    11    1
    10     8    10    2
    11    11    12    2
    12    10    12    1
