MODEL 1
REMARK VINA RESULT:      -7.3      0.000      0.000
REMARK SMILES O=C(O)CCc1ccccc1
REMARK SMILES IDX 4 1 2 2 1 3 3 4 5 6 6 7 7 8 11 9 8 10 10 11 9 12
REMARK H PARENT 3 5
REMARK Flexibility Score: inf
ROOT
ATOM      1  C   UNL     1       8.426  -0.661  -2.110  1.00  0.00     0.127 C 
ENDROOT
BRANCH   1   2
ATOM      2  C   UNL     1       8.467  -1.916  -2.897  1.00  0.00     0.303 C 
ATOM      3  O   UNL     1       9.540  -2.508  -3.093  1.00  0.00    -0.252 OA
BRANCH   2   4
ATOM      4  O   UNL     1       7.297  -2.434  -3.417  1.00  0.00    -0.481 OA
ATOM      5  H   UNL     1       7.002  -2.256  -4.373  1.00  0.00     0.296 HD
ENDBRANCH   2   4
ENDBRANCH   1   2
BRANCH   1   6
ATOM      6  C   UNL     1       7.039  -0.068  -2.129  1.00  0.00     0.047 C 
BRANCH   6   7
ATOM      7  C   UNL     1       6.473   0.107  -0.778  1.00  0.00    -0.047 A 
ATOM      8  C   UNL     1       5.818   1.235  -0.356  1.00  0.00     0.004 A 
ATOM      9  C   UNL     1       6.617  -0.930   0.113  1.00  0.00     0.004 A 
ATOM     10  C   UNL     1       5.320   1.314   0.931  1.00  0.00     0.000 A 
ATOM     11  C   UNL     1       6.133  -0.872   1.387  1.00  0.00     0.000 A 
ATOM     12  C   UNL     1       5.473   0.262   1.811  1.00  0.00     0.000 A 
ENDBRANCH   6   7
ENDBRANCH   1   6
TORSDOF 4
ENDMDL
MODEL 2
REMARK VINA RESULT:      -7.3      0.094      1.429
REMARK SMILES O=C(O)CCc1ccccc1
REMARK SMILES IDX 4 1 2 2 1 3 3 4 5 6 6 7 7 8 11 9 8 10 10 11 9 12
REMARK H PARENT 3 5
REMARK Flexibility Score: inf
ROOT
ATOM      1  C   UNL     1       8.418  -0.559  -2.261  1.00  0.00     0.127 C 
ENDROOT
BRANCH   1   2
ATOM      2  C   UNL     1       8.471  -1.880  -2.931  1.00  0.00     0.303 C 
ATOM      3  O   UNL     1       9.548  -2.481  -3.067  1.00  0.00    -0.252 OA
BRANCH   2   4
ATOM      4  O   UNL     1       7.306  -2.448  -3.410  1.00  0.00    -0.481 OA
ATOM      5  H   UNL     1       6.390  -2.053  -3.219  1.00  0.00     0.296 HD
ENDBRANCH   2   4
ENDBRANCH   1   2
BRANCH   1   6
ATOM      6  C   UNL     1       6.997  -0.058  -2.187  1.00  0.00     0.047 C 
BRANCH   6   7
ATOM      7  C   UNL     1       6.492   0.027  -0.803  1.00  0.00    -0.047 A 
ATOM      8  C   UNL     1       6.595  -0.982   0.120  1.00  0.00     0.004 A 
ATOM      9  C   UNL     1       5.876   1.195  -0.421  1.00  0.00     0.004 A 
ATOM     10  C   UNL     1       6.091  -0.816   1.395  1.00  0.00     0.000 A 
ATOM     11  C   UNL     1       5.372   1.378   0.833  1.00  0.00     0.000 A 
ATOM     12  C   UNL     1       5.476   0.365   1.762  1.00  0.00     0.000 A 
ENDBRANCH   6   7
ENDBRANCH   1   6
TORSDOF 4
ENDMDL
MODEL 3
REMARK VINA RESULT:      -6.7      3.339      5.018
REMARK SMILES O=C(O)CCc1ccccc1
REMARK SMILES IDX 4 1 2 2 1 3 3 4 5 6 6 7 7 8 11 9 8 10 10 11 9 12
REMARK H PARENT 3 5
REMARK Flexibility Score: inf
ROOT
ATOM      1  C   UNL     1       5.051   1.724   0.693  1.00  0.00     0.127 C 
ENDROOT
BRANCH   1   2
ATOM      2  C   UNL     1       4.606   1.033   1.927  1.00  0.00     0.303 C 
ATOM      3  O   UNL     1       5.329   0.188   2.477  1.00  0.00    -0.252 OA
BRANCH   2   4
ATOM      4  O   UNL     1       3.372   1.334   2.470  1.00  0.00    -0.481 OA
ATOM      5  H   UNL     1       2.893   2.209   2.279  1.00  0.00     0.296 HD
ENDBRANCH   2   4
ENDBRANCH   1   2
BRANCH   1   6
ATOM      6  C   UNL     1       6.550   1.887   0.688  1.00  0.00     0.047 C 
BRANCH   6   7
ATOM      7  C   UNL     1       7.208   1.098  -0.371  1.00  0.00    -0.047 A 
ATOM      8  C   UNL     1       8.544   1.175  -0.674  1.00  0.00     0.004 A 
ATOM      9  C   UNL     1       6.427   0.232  -1.099  1.00  0.00     0.004 A 
ATOM     10  C   UNL     1       9.076   0.398  -1.685  1.00  0.00     0.000 A 
ATOM     11  C   UNL     1       6.934  -0.542  -2.101  1.00  0.00     0.000 A 
ATOM     12  C   UNL     1       8.276  -0.466  -2.405  1.00  0.00     0.000 A 
ENDBRANCH   6   7
ENDBRANCH   1   6
TORSDOF 4
ENDMDL
MODEL 4
REMARK VINA RESULT:      -6.6      1.957      2.317
REMARK SMILES O=C(O)CCc1ccccc1
REMARK SMILES IDX 4 1 2 2 1 3 3 4 5 6 6 7 7 8 11 9 8 10 10 11 9 12
REMARK H PARENT 3 5
REMARK Flexibility Score: inf
ROOT
ATOM      1  C   UNL     1       8.294   0.249  -2.150  1.00  0.00     0.127 C 
ENDROOT
BRANCH   1   2
ATOM      2  C   UNL     1       9.428   0.397  -1.207  1.00  0.00     0.303 C 
ATOM      3  O   UNL     1       9.529  -0.342  -0.215  1.00  0.00    -0.252 OA
BRANCH   2   4
ATOM      4  O   UNL     1      10.382   1.369  -1.435  1.00  0.00    -0.481 OA
ATOM      5  H   UNL     1      10.654   2.041  -0.722  1.00  0.00     0.296 HD
ENDBRANCH   2   4
ENDBRANCH   1   2
BRANCH   1   6
ATOM      6  C   UNL     1       7.176  -0.540  -1.516  1.00  0.00     0.047 C 
BRANCH   6   7
ATOM      7  C   UNL     1       6.372   0.263  -0.574  1.00  0.00    -0.047 A 
ATOM      8  C   UNL     1       5.810   1.476  -0.879  1.00  0.00     0.004 A 
ATOM      9  C   UNL     1       6.177  -0.243   0.689  1.00  0.00     0.004 A 
ATOM     10  C   UNL     1       5.072   2.161   0.066  1.00  0.00     0.000 A 
ATOM     11  C   UNL     1       5.452   0.418   1.636  1.00  0.00     0.000 A 
ATOM     12  C   UNL     1       4.886   1.638   1.330  1.00  0.00     0.000 A 
ENDBRANCH   6   7
ENDBRANCH   1   6
TORSDOF 4
ENDMDL
MODEL 5
REMARK VINA RESULT:      -6.6      1.985      2.902
REMARK SMILES O=C(O)CCc1ccccc1
REMARK SMILES IDX 4 1 2 2 1 3 3 4 5 6 6 7 7 8 11 9 8 10 10 11 9 12
REMARK H PARENT 3 5
REMARK Flexibility Score: inf
ROOT
ATOM      1  C   UNL     1       8.315  -1.721   1.176  1.00  0.00     0.127 C 
ENDROOT
BRANCH   1   2
ATOM      2  C   UNL     1       8.716  -2.978   0.501  1.00  0.00     0.303 C 
ATOM      3  O   UNL     1       9.447  -3.801   1.074  1.00  0.00    -0.252 OA
BRANCH   2   4
ATOM      4  O   UNL     1       8.271  -3.236  -0.781  1.00  0.00    -0.481 OA
ATOM      5  H   UNL     1       8.827  -3.018  -1.603  1.00  0.00     0.296 HD
ENDBRANCH   2   4
ENDBRANCH   1   2
BRANCH   1   6
ATOM      6  C   UNL     1       6.816  -1.659   1.333  1.00  0.00     0.047 C 
BRANCH   6   7
ATOM      7  C   UNL     1       6.244  -0.381   0.867  1.00  0.00    -0.047 A 
ATOM      8  C   UNL     1       5.467   0.444   1.638  1.00  0.00     0.004 A 
ATOM      9  C   UNL     1       6.510   0.002  -0.426  1.00  0.00     0.004 A 
ATOM     10  C   UNL     1       4.971   1.625   1.119  1.00  0.00     0.000 A 
ATOM     11  C   UNL     1       6.030   1.163  -0.958  1.00  0.00     0.000 A 
ATOM     12  C   UNL     1       5.249   1.993  -0.182  1.00  0.00     0.000 A 
ENDBRANCH   6   7
ENDBRANCH   1   6
TORSDOF 4
ENDMDL
