@<TRIPOS>MOLECULE
/home/cewinharhar/GITHUB/reincatalyze/data/processed/docking_pred/2023-Apr-25-1630_maxeplen5_maxtrainstep200_exh32_gamma099_lrac3e-4_lrcr1e-3/87c24324279ed01ab1d4888e5c128f335f215516_ligand_2.pdbqt
 12 12 0 0 0
SMALL
GASTEIGER

@<TRIPOS>ATOM
      1  C          8.4260   -0.6610   -2.1100 C.3     1  UNL1        0.1270
      2  C          8.4670   -1.9160   -2.8970 C.2     1  UNL1        0.3030
      3  O          9.5400   -2.5080   -3.0930 O.2     1  UNL1       -0.2520
      4  O          7.2970   -2.4340   -3.4170 O.3     1  UNL1       -0.4810
      5  H          7.0020   -2.2560   -4.3730 H       1  UNL1        0.2960
      6  C          7.0390   -0.0680   -2.1290 C.3     1  UNL1        0.0470
      7  C          6.4730    0.1070   -0.7780 C.2     1  UNL1       -0.0470
      8  C          5.8180    1.2350   -0.3560 C.2     1  UNL1        0.0040
      9  C          6.6170   -0.9300    0.1130 C.2     1  UNL1        0.0040
     10  C          5.3200    1.3140    0.9310 C.2     1  UNL1        0.0000
     11  C          6.1330   -0.8720    1.3870 C.2     1  UNL1        0.0000
     12  C          5.4730    0.2620    1.8110 C.2     1  UNL1        0.0000
@<TRIPOS>BOND
     1     5     4    1
     2     4     2    1
     3     3     2    2
     4     2     1    1
     5     6     1    1
     6     6     7    1
     7     7     8    2
     8     7     9    1
     9     8    10    1
    10     9    11    2
    11    10    12    2
    12    11    12    1
