@<TRIPOS>MOLECULE
/home/cewinharhar/GITHUB/reincatalyze/data/processed/docking_pred/2023-Apr-25-1630_maxeplen5_maxtrainstep200_exh32_gamma099_lrac3e-4_lrcr1e-3/895ea28dab147140afd805a2e235fc395d2e1c3a_ligand_2.pdbqt
 12 12 0 0 0
SMALL
GASTEIGER

@<TRIPOS>ATOM
      1  C          5.0050    1.7810    0.7220 C.3     1  UNL1        0.1270
      2  C          4.5080    1.0720    1.9250 C.2     1  UNL1        0.3030
      3  O          5.1740    0.1660    2.4490 O.2     1  UNL1       -0.2520
      4  O          3.2870    1.4240    2.4680 O.3     1  UNL1       -0.4810
      5  H          2.4600    1.5700    1.8970 H       1  UNL1        0.2960
      6  C          6.5130    1.8210    0.7160 C.3     1  UNL1        0.0470
      7  C          7.1030    1.0200   -0.3740 C.2     1  UNL1       -0.0470
      8  C          6.4120    0.0920   -1.1100 C.2     1  UNL1        0.0040
      9  C          8.4310    1.2210   -0.6640 C.2     1  UNL1        0.0040
     10  C          7.0460   -0.6140   -2.1140 C.2     1  UNL1        0.0000
     11  C          9.0750    0.5330   -1.6500 C.2     1  UNL1        0.0000
     12  C          8.3810   -0.4000   -2.3920 C.2     1  UNL1        0.0000
@<TRIPOS>BOND
     1    12    10    2
     2    12    11    1
     3    10     8    1
     4    11     9    2
     5     8     7    2
     6     9     7    1
     7     7     6    1
     8     6     1    1
     9     1     2    1
    10     5     4    1
    11     2     3    2
    12     2     4    1
