MODEL 1
REMARK VINA RESULT:      -7.4      0.000      0.000
REMARK SMILES O=C(O)CCc1ccccc1
REMARK SMILES IDX 4 1 2 2 1 3 3 4 5 6 6 7 7 8 11 9 8 10 10 11 9 12
REMARK H PARENT 3 5
REMARK Flexibility Score: inf
ROOT
ATOM      1  C   UNL     1       8.471  -0.639  -2.147  1.00  0.00     0.127 C 
ENDROOT
BRANCH   1   2
ATOM      2  C   UNL     1       8.491  -1.908  -2.912  1.00  0.00     0.303 C 
ATOM      3  O   UNL     1       9.554  -2.521  -3.098  1.00  0.00    -0.252 OA
BRANCH   2   4
ATOM      4  O   UNL     1       7.312  -2.415  -3.424  1.00  0.00    -0.481 OA
ATOM      5  H   UNL     1       6.550  -1.815  -3.728  1.00  0.00     0.296 HD
ENDBRANCH   2   4
ENDBRANCH   1   2
BRANCH   1   6
ATOM      6  C   UNL     1       7.077  -0.066  -2.108  1.00  0.00     0.047 C 
BRANCH   6   7
ATOM      7  C   UNL     1       6.523   0.000  -0.742  1.00  0.00    -0.047 A 
ATOM      8  C   UNL     1       6.616  -1.011   0.178  1.00  0.00     0.004 A 
ATOM      9  C   UNL     1       5.870   1.153  -0.374  1.00  0.00     0.004 A 
ATOM     10  C   UNL     1       6.066  -0.864   1.437  1.00  0.00     0.000 A 
ATOM     11  C   UNL     1       5.320   1.318   0.862  1.00  0.00     0.000 A 
ATOM     12  C   UNL     1       5.414   0.301   1.789  1.00  0.00     0.000 A 
ENDBRANCH   6   7
ENDBRANCH   1   6
TORSDOF 4
ENDMDL
MODEL 2
REMARK VINA RESULT:      -7.3      0.080      1.428
REMARK SMILES O=C(O)CCc1ccccc1
REMARK SMILES IDX 4 1 2 2 1 3 3 4 5 6 6 7 7 8 11 9 8 10 10 11 9 12
REMARK H PARENT 3 5
REMARK Flexibility Score: inf
ROOT
ATOM      1  C   UNL     1       8.396  -0.661  -2.118  1.00  0.00     0.127 C 
ENDROOT
BRANCH   1   2
ATOM      2  C   UNL     1       8.455  -1.920  -2.898  1.00  0.00     0.303 C 
ATOM      3  O   UNL     1       9.535  -2.500  -3.088  1.00  0.00    -0.252 OA
BRANCH   2   4
ATOM      4  O   UNL     1       7.292  -2.453  -3.420  1.00  0.00    -0.481 OA
ATOM      5  H   UNL     1       6.634  -2.980  -2.854  1.00  0.00     0.296 HD
ENDBRANCH   2   4
ENDBRANCH   1   2
BRANCH   1   6
ATOM      6  C   UNL     1       6.998  -0.094  -2.130  1.00  0.00     0.047 C 
BRANCH   6   7
ATOM      7  C   UNL     1       6.447   0.098  -0.775  1.00  0.00    -0.047 A 
ATOM      8  C   UNL     1       5.812   1.239  -0.355  1.00  0.00     0.004 A 
ATOM      9  C   UNL     1       6.584  -0.935   0.121  1.00  0.00     0.004 A 
ATOM     10  C   UNL     1       5.326   1.334   0.935  1.00  0.00     0.000 A 
ATOM     11  C   UNL     1       6.112  -0.861   1.399  1.00  0.00     0.000 A 
ATOM     12  C   UNL     1       5.473   0.285   1.821  1.00  0.00     0.000 A 
ENDBRANCH   6   7
ENDBRANCH   1   6
TORSDOF 4
ENDMDL
MODEL 3
REMARK VINA RESULT:      -7.2      0.650      1.167
REMARK SMILES O=C(O)CCc1ccccc1
REMARK SMILES IDX 4 1 2 2 1 3 3 4 5 6 6 7 7 8 11 9 8 10 10 11 9 12
REMARK H PARENT 3 5
REMARK Flexibility Score: inf
ROOT
ATOM      1  C   UNL     1       8.238  -0.950  -1.833  1.00  0.00     0.127 C 
ENDROOT
BRANCH   1   2
ATOM      2  C   UNL     1       8.394  -2.031  -2.835  1.00  0.00     0.303 C 
ATOM      3  O   UNL     1       9.512  -2.503  -3.092  1.00  0.00    -0.252 OA
BRANCH   2   4
ATOM      4  O   UNL     1       7.280  -2.518  -3.493  1.00  0.00    -0.481 OA
ATOM      5  H   UNL     1       6.395  -2.019  -3.505  1.00  0.00     0.296 HD
ENDBRANCH   2   4
ENDBRANCH   1   2
BRANCH   1   6
ATOM      6  C   UNL     1       7.433  -1.433  -0.653  1.00  0.00     0.047 C 
BRANCH   6   7
ATOM      7  C   UNL     1       6.593  -0.375  -0.060  1.00  0.00    -0.047 A 
ATOM      8  C   UNL     1       6.117  -0.397   1.225  1.00  0.00     0.004 A 
ATOM      9  C   UNL     1       6.270   0.701  -0.853  1.00  0.00     0.004 A 
ATOM     10  C   UNL     1       5.335   0.639   1.699  1.00  0.00     0.000 A 
ATOM     11  C   UNL     1       5.499   1.733  -0.405  1.00  0.00     0.000 A 
ATOM     12  C   UNL     1       5.021   1.712   0.888  1.00  0.00     0.000 A 
ENDBRANCH   6   7
ENDBRANCH   1   6
TORSDOF 4
ENDMDL
MODEL 4
REMARK VINA RESULT:      -6.8      3.358      5.058
REMARK SMILES O=C(O)CCc1ccccc1
REMARK SMILES IDX 4 1 2 2 1 3 3 4 5 6 6 7 7 8 11 9 8 10 10 11 9 12
REMARK H PARENT 3 5
REMARK Flexibility Score: inf
ROOT
ATOM      1  C   UNL     1       5.005   1.781   0.722  1.00  0.00     0.127 C 
ENDROOT
BRANCH   1   2
ATOM      2  C   UNL     1       4.508   1.072   1.925  1.00  0.00     0.303 C 
ATOM      3  O   UNL     1       5.174   0.166   2.449  1.00  0.00    -0.252 OA
BRANCH   2   4
ATOM      4  O   UNL     1       3.287   1.424   2.468  1.00  0.00    -0.481 OA
ATOM      5  H   UNL     1       2.460   1.570   1.897  1.00  0.00     0.296 HD
ENDBRANCH   2   4
ENDBRANCH   1   2
BRANCH   1   6
ATOM      6  C   UNL     1       6.513   1.821   0.716  1.00  0.00     0.047 C 
BRANCH   6   7
ATOM      7  C   UNL     1       7.103   1.020  -0.374  1.00  0.00    -0.047 A 
ATOM      8  C   UNL     1       6.412   0.092  -1.110  1.00  0.00     0.004 A 
ATOM      9  C   UNL     1       8.431   1.221  -0.664  1.00  0.00     0.004 A 
ATOM     10  C   UNL     1       7.046  -0.614  -2.114  1.00  0.00     0.000 A 
ATOM     11  C   UNL     1       9.075   0.533  -1.650  1.00  0.00     0.000 A 
ATOM     12  C   UNL     1       8.381  -0.400  -2.392  1.00  0.00     0.000 A 
ENDBRANCH   6   7
ENDBRANCH   1   6
TORSDOF 4
ENDMDL
MODEL 5
REMARK VINA RESULT:      -6.7      3.811      4.953
REMARK SMILES O=C(O)CCc1ccccc1
REMARK SMILES IDX 4 1 2 2 1 3 3 4 5 6 6 7 7 8 11 9 8 10 10 11 9 12
REMARK H PARENT 3 5
REMARK Flexibility Score: inf
ROOT
ATOM      1  C   UNL     1       5.515   2.942  -0.062  1.00  0.00     0.127 C 
ENDROOT
BRANCH   1   2
ATOM      2  C   UNL     1       6.292   3.907   0.751  1.00  0.00     0.303 C 
ATOM      3  O   UNL     1       6.993   4.775   0.208  1.00  0.00    -0.252 OA
BRANCH   2   4
ATOM      4  O   UNL     1       6.234   3.840   2.130  1.00  0.00    -0.481 OA
ATOM      5  H   UNL     1       6.507   3.008   2.645  1.00  0.00     0.296 HD
ENDBRANCH   2   4
ENDBRANCH   1   2
BRANCH   1   6
ATOM      6  C   UNL     1       4.912   1.874   0.817  1.00  0.00     0.047 C 
BRANCH   6   7
ATOM      7  C   UNL     1       5.710   0.634   0.841  1.00  0.00    -0.047 A 
ATOM      8  C   UNL     1       6.382   0.127  -0.242  1.00  0.00     0.004 A 
ATOM      9  C   UNL     1       5.782  -0.055   2.028  1.00  0.00     0.004 A 
ATOM     10  C   UNL     1       7.106  -1.044  -0.130  1.00  0.00     0.000 A 
ATOM     11  C   UNL     1       6.491  -1.213   2.160  1.00  0.00     0.000 A 
ATOM     12  C   UNL     1       7.166  -1.722   1.072  1.00  0.00     0.000 A 
ENDBRANCH   6   7
ENDBRANCH   1   6
TORSDOF 4
ENDMDL
