@<TRIPOS>MOLECULE
/home/cewinharhar/GITHUB/reincatalyze/data/processed/docking_pred/2023-Apr-25-1630_maxeplen5_maxtrainstep200_exh32_gamma099_lrac3e-4_lrcr1e-3/895ea28dab147140afd805a2e235fc395d2e1c3a_ligand_2.pdbqt
 12 12 0 0 0
SMALL
GASTEIGER

@<TRIPOS>ATOM
      1  C          5.5150    2.9420   -0.0620 C.3     1  UNL1        0.1270
      2  C          6.2920    3.9070    0.7510 C.2     1  UNL1        0.3030
      3  O          6.9930    4.7750    0.2080 O.2     1  UNL1       -0.2520
      4  O          6.2340    3.8400    2.1300 O.3     1  UNL1       -0.4810
      5  H          6.5070    3.0080    2.6450 H       1  UNL1        0.2960
      6  C          4.9120    1.8740    0.8170 C.3     1  UNL1        0.0470
      7  C          5.7100    0.6340    0.8410 C.2     1  UNL1       -0.0470
      8  C          6.3820    0.1270   -0.2420 C.2     1  UNL1        0.0040
      9  C          5.7820   -0.0550    2.0280 C.2     1  UNL1        0.0040
     10  C          7.1060   -1.0440   -0.1300 C.2     1  UNL1        0.0000
     11  C          6.4910   -1.2130    2.1600 C.2     1  UNL1        0.0000
     12  C          7.1660   -1.7220    1.0720 C.2     1  UNL1        0.0000
@<TRIPOS>BOND
     1     8    10    1
     2     8     7    2
     3    10    12    2
     4     1     2    1
     5     1     6    1
     6     3     2    2
     7     2     4    1
     8     6     7    1
     9     7     9    1
    10    12    11    1
    11     9    11    2
    12     4     5    1
