@<TRIPOS>MOLECULE
/home/cewinharhar/GITHUB/reincatalyze/data/processed/docking_pred/2023-Apr-25-1630_maxeplen5_maxtrainstep200_exh32_gamma099_lrac3e-4_lrcr1e-3/895ea28dab147140afd805a2e235fc395d2e1c3a_ligand_2.pdbqt
 12 12 0 0 0
SMALL
GASTEIGER

@<TRIPOS>ATOM
      1  C          8.2380   -0.9500   -1.8330 C.3     1  UNL1        0.1270
      2  C          8.3940   -2.0310   -2.8350 C.2     1  UNL1        0.3030
      3  O          9.5120   -2.5030   -3.0920 O.2     1  UNL1       -0.2520
      4  O          7.2800   -2.5180   -3.4930 O.3     1  UNL1       -0.4810
      5  H          6.3950   -2.0190   -3.5050 H       1  UNL1        0.2960
      6  C          7.4330   -1.4330   -0.6530 C.3     1  UNL1        0.0470
      7  C          6.5930   -0.3750   -0.0600 C.2     1  UNL1       -0.0470
      8  C          6.1170   -0.3970    1.2250 C.2     1  UNL1        0.0040
      9  C          6.2700    0.7010   -0.8530 C.2     1  UNL1        0.0040
     10  C          5.3350    0.6390    1.6990 C.2     1  UNL1        0.0000
     11  C          5.4990    1.7330   -0.4050 C.2     1  UNL1        0.0000
     12  C          5.0210    1.7120    0.8880 C.2     1  UNL1        0.0000
@<TRIPOS>BOND
     1     5     4    1
     2     4     2    1
     3     3     2    2
     4     2     1    1
     5     1     6    1
     6     9    11    1
     7     9     7    2
     8     6     7    1
     9    11    12    2
    10     7     8    1
    11    12    10    1
    12     8    10    2
