@<TRIPOS>MOLECULE
/home/cewinharhar/GITHUB/reincatalyze/data/processed/docking_pred/2023-Apr-25-1630_maxeplen5_maxtrainstep200_exh32_gamma099_lrac3e-4_lrcr1e-3/895ea28dab147140afd805a2e235fc395d2e1c3a_ligand_2.pdbqt
 12 12 0 0 0
SMALL
GASTEIGER

@<TRIPOS>ATOM
      1  C          8.3960   -0.6610   -2.1180 C.3     1  UNL1        0.1270
      2  C          8.4550   -1.9200   -2.8980 C.2     1  UNL1        0.3030
      3  O          9.5350   -2.5000   -3.0880 O.2     1  UNL1       -0.2520
      4  O          7.2920   -2.4530   -3.4200 O.3     1  UNL1       -0.4810
      5  H          6.6340   -2.9800   -2.8540 H       1  UNL1        0.2960
      6  C          6.9980   -0.0940   -2.1300 C.3     1  UNL1        0.0470
      7  C          6.4470    0.0980   -0.7750 C.2     1  UNL1       -0.0470
      8  C          5.8120    1.2390   -0.3550 C.2     1  UNL1        0.0040
      9  C          6.5840   -0.9350    0.1210 C.2     1  UNL1        0.0040
     10  C          5.3260    1.3340    0.9350 C.2     1  UNL1        0.0000
     11  C          6.1120   -0.8610    1.3990 C.2     1  UNL1        0.0000
     12  C          5.4730    0.2850    1.8210 C.2     1  UNL1        0.0000
@<TRIPOS>BOND
     1     4     2    1
     2     4     5    1
     3     3     2    2
     4     2     1    1
     5     6     1    1
     6     6     7    1
     7     7     8    2
     8     7     9    1
     9     8    10    1
    10     9    11    2
    11    10    12    2
    12    11    12    1
