@<TRIPOS>MOLECULE
/home/cewinharhar/GITHUB/reincatalyze/data/processed/docking_pred/2023-Apr-25-1630_maxeplen5_maxtrainstep200_exh32_gamma099_lrac3e-4_lrcr1e-3/895ea28dab147140afd805a2e235fc395d2e1c3a_ligand_2.pdbqt
 12 12 0 0 0
SMALL
GASTEIGER

@<TRIPOS>ATOM
      1  C          8.4710   -0.6390   -2.1470 C.3     1  UNL1        0.1270
      2  C          8.4910   -1.9080   -2.9120 C.2     1  UNL1        0.3030
      3  O          9.5540   -2.5210   -3.0980 O.2     1  UNL1       -0.2520
      4  O          7.3120   -2.4150   -3.4240 O.3     1  UNL1       -0.4810
      5  H          6.5500   -1.8150   -3.7280 H       1  UNL1        0.2960
      6  C          7.0770   -0.0660   -2.1080 C.3     1  UNL1        0.0470
      7  C          6.5230    0.0000   -0.7420 C.2     1  UNL1       -0.0470
      8  C          6.6160   -1.0110    0.1780 C.2     1  UNL1        0.0040
      9  C          5.8700    1.1530   -0.3740 C.2     1  UNL1        0.0040
     10  C          6.0660   -0.8640    1.4370 C.2     1  UNL1        0.0000
     11  C          5.3200    1.3180    0.8620 C.2     1  UNL1        0.0000
     12  C          5.4140    0.3010    1.7890 C.2     1  UNL1        0.0000
@<TRIPOS>BOND
     1     5     4    1
     2     4     2    1
     3     3     2    2
     4     2     1    1
     5     1     6    1
     6     6     7    1
     7     7     9    2
     8     7     8    1
     9     9    11    1
    10     8    10    2
    11    11    12    2
    12    10    12    1
