@<TRIPOS>MOLECULE
/home/cewinharhar/GITHUB/reincatalyze/data/processed/docking_pred/2023-Apr-25-1630_maxeplen5_maxtrainstep200_exh32_gamma099_lrac3e-4_lrcr1e-3/8a11bcf53d23875e79cb17a52aa7b3de0dc85e7d_ligand_2.pdbqt
 12 12 0 0 0
SMALL
GASTEIGER

@<TRIPOS>ATOM
      1  C          5.0420    1.7190    0.7030 C.3     1  UNL1        0.1270
      2  C          4.5930    1.0260    1.9340 C.2     1  UNL1        0.3030
      3  O          5.3100    0.1750    2.4810 O.2     1  UNL1       -0.2520
      4  O          3.3600    1.3320    2.4770 O.3     1  UNL1       -0.4810
      5  H          2.4910    0.9830    2.0830 H       1  UNL1        0.2960
      6  C          6.5420    1.8760    0.7010 C.3     1  UNL1        0.0470
      7  C          7.1990    1.0890   -0.3610 C.2     1  UNL1       -0.0470
      8  C          8.5320    1.1730   -0.6720 C.2     1  UNL1        0.0040
      9  C          6.4180    0.2180   -1.0830 C.2     1  UNL1        0.0040
     10  C          9.0630    0.3980   -1.6850 C.2     1  UNL1        0.0000
     11  C          6.9230   -0.5550   -2.0870 C.2     1  UNL1        0.0000
     12  C          8.2630   -0.4720   -2.3990 C.2     1  UNL1        0.0000
@<TRIPOS>BOND
     1    12    11    2
     2    12    10    1
     3    11     9    1
     4    10     8    2
     5     9     7    2
     6     8     7    1
     7     7     6    1
     8     6     1    1
     9     1     2    1
    10     2     4    1
    11     2     3    2
    12     5     4    1
