@<TRIPOS>MOLECULE
/home/cewinharhar/GITHUB/reincatalyze/data/processed/docking_pred/2023-Apr-25-1630_maxeplen5_maxtrainstep200_exh32_gamma099_lrac3e-4_lrcr1e-3/8a11bcf53d23875e79cb17a52aa7b3de0dc85e7d_ligand_2.pdbqt
 12 12 0 0 0
SMALL
GASTEIGER

@<TRIPOS>ATOM
      1  C          8.2380   -0.7840   -2.1120 C.3     1  UNL1        0.1270
      2  C          8.3950   -2.0100   -2.9310 C.2     1  UNL1        0.3030
      3  O          9.5100   -2.5300   -3.0880 O.2     1  UNL1       -0.2520
      4  O          7.2860   -2.5790   -3.5270 O.3     1  UNL1       -0.4810
      5  H          7.2190   -2.7160   -4.5320 H       1  UNL1        0.2960
      6  C          7.8200   -1.1370   -0.7060 C.3     1  UNL1        0.0470
      7  C          6.8320   -0.1930   -0.1490 C.2     1  UNL1       -0.0470
      8  C          6.3600    0.9110   -0.8120 C.2     1  UNL1        0.0040
      9  C          6.3570   -0.4410    1.1170 C.2     1  UNL1        0.0040
     10  C          5.4340    1.7430   -0.2130 C.2     1  UNL1        0.0000
     11  C          5.4440    0.3680    1.7260 C.2     1  UNL1        0.0000
     12  C          4.9690    1.4770    1.0600 C.2     1  UNL1        0.0000
@<TRIPOS>BOND
     1     5     4    1
     2     4     2    1
     3     3     2    2
     4     2     1    1
     5     1     6    1
     6     8    10    1
     7     8     7    2
     8     6     7    1
     9    10    12    2
    10     7     9    1
    11    12    11    1
    12     9    11    2
