@<TRIPOS>MOLECULE
/home/cewinharhar/GITHUB/reincatalyze/data/processed/docking_pred/2023-Apr-25-1630_maxeplen5_maxtrainstep200_exh32_gamma099_lrac3e-4_lrcr1e-3/8a11bcf53d23875e79cb17a52aa7b3de0dc85e7d_ligand_2.pdbqt
 12 12 0 0 0
SMALL
GASTEIGER

@<TRIPOS>ATOM
      1  C          8.4220   -0.6400   -2.1270 C.3     1  UNL1        0.1270
      2  C          8.4760   -1.9010   -2.9040 C.2     1  UNL1        0.3030
      3  O          9.5560   -2.4790   -3.1030 O.2     1  UNL1       -0.2520
      4  O          7.3100   -2.4380   -3.4150 O.3     1  UNL1       -0.4810
      5  H          6.7520   -3.1140   -2.9000 H       1  UNL1        0.2960
      6  C          7.0260   -0.0690   -2.1400 C.3     1  UNL1        0.0470
      7  C          6.4680    0.1130   -0.7860 C.2     1  UNL1       -0.0470
      8  C          5.8230    1.2470   -0.3630 C.2     1  UNL1        0.0040
      9  C          6.6090   -0.9240    0.1050 C.2     1  UNL1        0.0040
     10  C          5.3330    1.3320    0.9260 C.2     1  UNL1        0.0000
     11  C          6.1330   -0.8590    1.3820 C.2     1  UNL1        0.0000
     12  C          5.4840    0.2800    1.8070 C.2     1  UNL1        0.0000
@<TRIPOS>BOND
     1     4     2    1
     2     4     5    1
     3     3     2    2
     4     2     1    1
     5     6     1    1
     6     6     7    1
     7     7     8    2
     8     7     9    1
     9     8    10    1
    10     9    11    2
    11    10    12    2
    12    11    12    1
