MODEL 1
REMARK VINA RESULT:      -7.3      0.000      0.000
REMARK SMILES O=C(O)CCc1ccccc1
REMARK SMILES IDX 4 1 2 2 1 3 3 4 5 6 6 7 7 8 11 9 8 10 10 11 9 12
REMARK H PARENT 3 5
REMARK Flexibility Score: inf
ROOT
ATOM      1  C   UNL     1       8.422  -0.640  -2.127  1.00  0.00     0.127 C 
ENDROOT
BRANCH   1   2
ATOM      2  C   UNL     1       8.476  -1.901  -2.904  1.00  0.00     0.303 C 
ATOM      3  O   UNL     1       9.556  -2.479  -3.103  1.00  0.00    -0.252 OA
BRANCH   2   4
ATOM      4  O   UNL     1       7.310  -2.438  -3.415  1.00  0.00    -0.481 OA
ATOM      5  H   UNL     1       6.752  -3.114  -2.900  1.00  0.00     0.296 HD
ENDBRANCH   2   4
ENDBRANCH   1   2
BRANCH   1   6
ATOM      6  C   UNL     1       7.026  -0.069  -2.140  1.00  0.00     0.047 C 
BRANCH   6   7
ATOM      7  C   UNL     1       6.468   0.113  -0.786  1.00  0.00    -0.047 A 
ATOM      8  C   UNL     1       5.823   1.247  -0.363  1.00  0.00     0.004 A 
ATOM      9  C   UNL     1       6.609  -0.924   0.105  1.00  0.00     0.004 A 
ATOM     10  C   UNL     1       5.333   1.332   0.926  1.00  0.00     0.000 A 
ATOM     11  C   UNL     1       6.133  -0.859   1.382  1.00  0.00     0.000 A 
ATOM     12  C   UNL     1       5.484   0.280   1.807  1.00  0.00     0.000 A 
ENDBRANCH   6   7
ENDBRANCH   1   6
TORSDOF 4
ENDMDL
MODEL 2
REMARK VINA RESULT:      -7.3      0.107      1.429
REMARK SMILES O=C(O)CCc1ccccc1
REMARK SMILES IDX 4 1 2 2 1 3 3 4 5 6 6 7 7 8 11 9 8 10 10 11 9 12
REMARK H PARENT 3 5
REMARK Flexibility Score: inf
ROOT
ATOM      1  C   UNL     1       8.429  -0.548  -2.252  1.00  0.00     0.127 C 
ENDROOT
BRANCH   1   2
ATOM      2  C   UNL     1       8.482  -1.863  -2.934  1.00  0.00     0.303 C 
ATOM      3  O   UNL     1       9.561  -2.457  -3.085  1.00  0.00    -0.252 OA
BRANCH   2   4
ATOM      4  O   UNL     1       7.317  -2.432  -3.409  1.00  0.00    -0.481 OA
ATOM      5  H   UNL     1       7.212  -2.730  -4.375  1.00  0.00     0.296 HD
ENDBRANCH   2   4
ENDBRANCH   1   2
BRANCH   1   6
ATOM      6  C   UNL     1       7.012  -0.035  -2.199  1.00  0.00     0.047 C 
BRANCH   6   7
ATOM      7  C   UNL     1       6.490   0.066  -0.822  1.00  0.00    -0.047 A 
ATOM      8  C   UNL     1       6.586  -0.931   0.114  1.00  0.00     0.004 A 
ATOM      9  C   UNL     1       5.867   1.237  -0.461  1.00  0.00     0.004 A 
ATOM     10  C   UNL     1       6.067  -0.751   1.382  1.00  0.00     0.000 A 
ATOM     11  C   UNL     1       5.348   1.434   0.784  1.00  0.00     0.000 A 
ATOM     12  C   UNL     1       5.445   0.432   1.727  1.00  0.00     0.000 A 
ENDBRANCH   6   7
ENDBRANCH   1   6
TORSDOF 4
ENDMDL
MODEL 3
REMARK VINA RESULT:      -7.0      0.634      1.059
REMARK SMILES O=C(O)CCc1ccccc1
REMARK SMILES IDX 4 1 2 2 1 3 3 4 5 6 6 7 7 8 11 9 8 10 10 11 9 12
REMARK H PARENT 3 5
REMARK Flexibility Score: inf
ROOT
ATOM      1  C   UNL     1       8.238  -0.784  -2.112  1.00  0.00     0.127 C 
ENDROOT
BRANCH   1   2
ATOM      2  C   UNL     1       8.395  -2.010  -2.931  1.00  0.00     0.303 C 
ATOM      3  O   UNL     1       9.510  -2.530  -3.088  1.00  0.00    -0.252 OA
BRANCH   2   4
ATOM      4  O   UNL     1       7.286  -2.579  -3.527  1.00  0.00    -0.481 OA
ATOM      5  H   UNL     1       7.219  -2.716  -4.532  1.00  0.00     0.296 HD
ENDBRANCH   2   4
ENDBRANCH   1   2
BRANCH   1   6
ATOM      6  C   UNL     1       7.820  -1.137  -0.706  1.00  0.00     0.047 C 
BRANCH   6   7
ATOM      7  C   UNL     1       6.832  -0.193  -0.149  1.00  0.00    -0.047 A 
ATOM      8  C   UNL     1       6.360   0.911  -0.812  1.00  0.00     0.004 A 
ATOM      9  C   UNL     1       6.357  -0.441   1.117  1.00  0.00     0.004 A 
ATOM     10  C   UNL     1       5.434   1.743  -0.213  1.00  0.00     0.000 A 
ATOM     11  C   UNL     1       5.444   0.368   1.726  1.00  0.00     0.000 A 
ATOM     12  C   UNL     1       4.969   1.477   1.060  1.00  0.00     0.000 A 
ENDBRANCH   6   7
ENDBRANCH   1   6
TORSDOF 4
ENDMDL
MODEL 4
REMARK VINA RESULT:      -6.7      3.341      5.019
REMARK SMILES O=C(O)CCc1ccccc1
REMARK SMILES IDX 4 1 2 2 1 3 3 4 5 6 6 7 7 8 11 9 8 10 10 11 9 12
REMARK H PARENT 3 5
REMARK Flexibility Score: inf
ROOT
ATOM      1  C   UNL     1       5.042   1.719   0.703  1.00  0.00     0.127 C 
ENDROOT
BRANCH   1   2
ATOM      2  C   UNL     1       4.593   1.026   1.934  1.00  0.00     0.303 C 
ATOM      3  O   UNL     1       5.310   0.175   2.481  1.00  0.00    -0.252 OA
BRANCH   2   4
ATOM      4  O   UNL     1       3.360   1.332   2.477  1.00  0.00    -0.481 OA
ATOM      5  H   UNL     1       2.491   0.983   2.083  1.00  0.00     0.296 HD
ENDBRANCH   2   4
ENDBRANCH   1   2
BRANCH   1   6
ATOM      6  C   UNL     1       6.542   1.876   0.701  1.00  0.00     0.047 C 
BRANCH   6   7
ATOM      7  C   UNL     1       7.199   1.089  -0.361  1.00  0.00    -0.047 A 
ATOM      8  C   UNL     1       8.532   1.173  -0.672  1.00  0.00     0.004 A 
ATOM      9  C   UNL     1       6.418   0.218  -1.083  1.00  0.00     0.004 A 
ATOM     10  C   UNL     1       9.063   0.398  -1.685  1.00  0.00     0.000 A 
ATOM     11  C   UNL     1       6.923  -0.555  -2.087  1.00  0.00     0.000 A 
ATOM     12  C   UNL     1       8.263  -0.472  -2.399  1.00  0.00     0.000 A 
ENDBRANCH   6   7
ENDBRANCH   1   6
TORSDOF 4
ENDMDL
MODEL 5
REMARK VINA RESULT:      -6.7      1.924      2.653
REMARK SMILES O=C(O)CCc1ccccc1
REMARK SMILES IDX 4 1 2 2 1 3 3 4 5 6 6 7 7 8 11 9 8 10 10 11 9 12
REMARK H PARENT 3 5
REMARK Flexibility Score: inf
ROOT
ATOM      1  C   UNL     1       8.243   0.239  -2.207  1.00  0.00     0.127 C 
ENDROOT
BRANCH   1   2
ATOM      2  C   UNL     1       9.364   0.344  -1.243  1.00  0.00     0.303 C 
ATOM      3  O   UNL     1       9.432  -0.413  -0.263  1.00  0.00    -0.252 OA
BRANCH   2   4
ATOM      4  O   UNL     1      10.345   1.298  -1.439  1.00  0.00    -0.481 OA
ATOM      5  H   UNL     1      10.568   1.667  -2.359  1.00  0.00     0.296 HD
ENDBRANCH   2   4
ENDBRANCH   1   2
BRANCH   1   6
ATOM      6  C   UNL     1       7.097  -0.536  -1.606  1.00  0.00     0.047 C 
BRANCH   6   7
ATOM      7  C   UNL     1       6.337   0.246  -0.612  1.00  0.00    -0.047 A 
ATOM      8  C   UNL     1       6.098  -0.164   0.674  1.00  0.00     0.004 A 
ATOM      9  C   UNL     1       5.836   1.464  -1.007  1.00  0.00     0.004 A 
ATOM     10  C   UNL     1       5.373   0.633   1.539  1.00  0.00     0.000 A 
ATOM     11  C   UNL     1       5.118   2.266  -0.169  1.00  0.00     0.000 A 
ATOM     12  C   UNL     1       4.879   1.854   1.124  1.00  0.00     0.000 A 
ENDBRANCH   6   7
ENDBRANCH   1   6
TORSDOF 4
ENDMDL
