@<TRIPOS>MOLECULE
/home/cewinharhar/GITHUB/reincatalyze/data/processed/docking_pred/2023-Apr-25-1630_maxeplen5_maxtrainstep200_exh32_gamma099_lrac3e-4_lrcr1e-3/8a11bcf53d23875e79cb17a52aa7b3de0dc85e7d_ligand_2.pdbqt
 12 12 0 0 0
SMALL
GASTEIGER

@<TRIPOS>ATOM
      1  C          8.2430    0.2390   -2.2070 C.3     1  UNL1        0.1270
      2  C          9.3640    0.3440   -1.2430 C.2     1  UNL1        0.3030
      3  O          9.4320   -0.4130   -0.2630 O.2     1  UNL1       -0.2520
      4  O         10.3450    1.2980   -1.4390 O.3     1  UNL1       -0.4810
      5  H         10.5680    1.6670   -2.3590 H       1  UNL1        0.2960
      6  C          7.0970   -0.5360   -1.6060 C.3     1  UNL1        0.0470
      7  C          6.3370    0.2460   -0.6120 C.2     1  UNL1       -0.0470
      8  C          6.0980   -0.1640    0.6740 C.2     1  UNL1        0.0040
      9  C          5.8360    1.4640   -1.0070 C.2     1  UNL1        0.0040
     10  C          5.3730    0.6330    1.5390 C.2     1  UNL1        0.0000
     11  C          5.1180    2.2660   -0.1690 C.2     1  UNL1        0.0000
     12  C          4.8790    1.8540    1.1240 C.2     1  UNL1        0.0000
@<TRIPOS>BOND
     1     5     4    1
     2     1     6    1
     3     1     2    1
     4     6     7    1
     5     4     2    1
     6     2     3    2
     7     9     7    2
     8     9    11    1
     9     7     8    1
    10    11    12    2
    11     8    10    2
    12    12    10    1
