@<TRIPOS>MOLECULE
/home/cewinharhar/GITHUB/reincatalyze/data/processed/docking_pred/2023-Apr-25-1630_maxeplen5_maxtrainstep200_exh32_gamma099_lrac3e-4_lrcr1e-3/91438d65c636cbfd2c8442c68b92b155f88758ee_ligand_2.pdbqt
 12 12 0 0 0
SMALL
GASTEIGER

@<TRIPOS>ATOM
      1  C          8.4010   -0.6010   -2.1950 C.3     1  UNL1        0.1270
      2  C          8.4420   -1.9000   -2.9080 C.2     1  UNL1        0.3030
      3  O          9.5130   -2.5110   -3.0530 O.2     1  UNL1       -0.2520
      4  O          7.2750   -2.4370   -3.4160 O.3     1  UNL1       -0.4810
      5  H          6.5130   -1.8570   -3.7550 H       1  UNL1        0.2960
      6  C          6.9850   -0.0870   -2.1120 C.3     1  UNL1        0.0470
      7  C          6.4800   -0.0230   -0.7270 C.2     1  UNL1       -0.0470
      8  C          6.5840   -1.0450    0.1810 C.2     1  UNL1        0.0040
      9  C          5.8660    1.1400   -0.3260 C.2     1  UNL1        0.0040
     10  C          6.0810   -0.8980    1.4590 C.2     1  UNL1        0.0000
     11  C          5.3630    1.3050    0.9310 C.2     1  UNL1        0.0000
     12  C          5.4670    0.2770    1.8440 C.2     1  UNL1        0.0000
@<TRIPOS>BOND
     1     5     4    1
     2     4     2    1
     3     3     2    2
     4     2     1    1
     5     1     6    1
     6     6     7    1
     7     7     9    2
     8     7     8    1
     9     9    11    1
    10     8    10    2
    11    11    12    2
    12    10    12    1
