MODEL 1
REMARK VINA RESULT:      -7.3      0.000      0.000
REMARK SMILES O=C(O)CCc1ccccc1
REMARK SMILES IDX 4 1 2 2 1 3 3 4 5 6 6 7 7 8 11 9 8 10 10 11 9 12
REMARK H PARENT 3 5
REMARK Flexibility Score: inf
ROOT
ATOM      1  C   UNL     1       8.401  -0.601  -2.195  1.00  0.00     0.127 C 
ENDROOT
BRANCH   1   2
ATOM      2  C   UNL     1       8.442  -1.900  -2.908  1.00  0.00     0.303 C 
ATOM      3  O   UNL     1       9.513  -2.511  -3.053  1.00  0.00    -0.252 OA
BRANCH   2   4
ATOM      4  O   UNL     1       7.275  -2.437  -3.416  1.00  0.00    -0.481 OA
ATOM      5  H   UNL     1       6.513  -1.857  -3.755  1.00  0.00     0.296 HD
ENDBRANCH   2   4
ENDBRANCH   1   2
BRANCH   1   6
ATOM      6  C   UNL     1       6.985  -0.087  -2.112  1.00  0.00     0.047 C 
BRANCH   6   7
ATOM      7  C   UNL     1       6.480  -0.023  -0.727  1.00  0.00    -0.047 A 
ATOM      8  C   UNL     1       6.584  -1.045   0.181  1.00  0.00     0.004 A 
ATOM      9  C   UNL     1       5.866   1.140  -0.326  1.00  0.00     0.004 A 
ATOM     10  C   UNL     1       6.081  -0.898   1.459  1.00  0.00     0.000 A 
ATOM     11  C   UNL     1       5.363   1.305   0.931  1.00  0.00     0.000 A 
ATOM     12  C   UNL     1       5.467   0.277   1.844  1.00  0.00     0.000 A 
ENDBRANCH   6   7
ENDBRANCH   1   6
TORSDOF 4
ENDMDL
MODEL 2
REMARK VINA RESULT:      -7.3      0.076      1.428
REMARK SMILES O=C(O)CCc1ccccc1
REMARK SMILES IDX 4 1 2 2 1 3 3 4 5 6 6 7 7 8 11 9 8 10 10 11 9 12
REMARK H PARENT 3 5
REMARK Flexibility Score: inf
ROOT
ATOM      1  C   UNL     1       8.414  -0.631  -2.146  1.00  0.00     0.127 C 
ENDROOT
BRANCH   1   2
ATOM      2  C   UNL     1       8.473  -1.904  -2.902  1.00  0.00     0.303 C 
ATOM      3  O   UNL     1       9.552  -2.495  -3.067  1.00  0.00    -0.252 OA
BRANCH   2   4
ATOM      4  O   UNL     1       7.314  -2.440  -3.428  1.00  0.00    -0.481 OA
ATOM      5  H   UNL     1       7.233  -3.423  -3.675  1.00  0.00     0.296 HD
ENDBRANCH   2   4
ENDBRANCH   1   2
BRANCH   1   6
ATOM      6  C   UNL     1       7.007  -0.087  -2.134  1.00  0.00     0.047 C 
BRANCH   6   7
ATOM      7  C   UNL     1       6.465   0.070  -0.771  1.00  0.00    -0.047 A 
ATOM      8  C   UNL     1       5.828   1.197  -0.318  1.00  0.00     0.004 A 
ATOM      9  C   UNL     1       6.614  -0.984   0.099  1.00  0.00     0.004 A 
ATOM     10  C   UNL     1       5.353   1.259   0.978  1.00  0.00     0.000 A 
ATOM     11  C   UNL     1       6.152  -0.943   1.382  1.00  0.00     0.000 A 
ATOM     12  C   UNL     1       5.511   0.189   1.837  1.00  0.00     0.000 A 
ENDBRANCH   6   7
ENDBRANCH   1   6
TORSDOF 4
ENDMDL
MODEL 3
REMARK VINA RESULT:      -7.2      0.673      1.178
REMARK SMILES O=C(O)CCc1ccccc1
REMARK SMILES IDX 4 1 2 2 1 3 3 4 5 6 6 7 7 8 11 9 8 10 10 11 9 12
REMARK H PARENT 3 5
REMARK Flexibility Score: inf
ROOT
ATOM      1  C   UNL     1       8.196  -0.947  -1.859  1.00  0.00     0.127 C 
ENDROOT
BRANCH   1   2
ATOM      2  C   UNL     1       8.409  -2.026  -2.853  1.00  0.00     0.303 C 
ATOM      3  O   UNL     1       9.548  -2.457  -3.088  1.00  0.00    -0.252 OA
BRANCH   2   4
ATOM      4  O   UNL     1       7.326  -2.557  -3.527  1.00  0.00    -0.481 OA
ATOM      5  H   UNL     1       6.464  -2.036  -3.665  1.00  0.00     0.296 HD
ENDBRANCH   2   4
ENDBRANCH   1   2
BRANCH   1   6
ATOM      6  C   UNL     1       7.347  -1.441  -0.715  1.00  0.00     0.047 C 
BRANCH   6   7
ATOM      7  C   UNL     1       6.544  -0.371  -0.094  1.00  0.00    -0.047 A 
ATOM      8  C   UNL     1       6.079  -0.403   1.196  1.00  0.00     0.004 A 
ATOM      9  C   UNL     1       6.243   0.728  -0.864  1.00  0.00     0.004 A 
ATOM     10  C   UNL     1       5.332   0.646   1.696  1.00  0.00     0.000 A 
ATOM     11  C   UNL     1       5.507   1.773  -0.390  1.00  0.00     0.000 A 
ATOM     12  C   UNL     1       5.040   1.741   0.907  1.00  0.00     0.000 A 
ENDBRANCH   6   7
ENDBRANCH   1   6
TORSDOF 4
ENDMDL
MODEL 4
REMARK VINA RESULT:      -7.0      0.729      1.902
REMARK SMILES O=C(O)CCc1ccccc1
REMARK SMILES IDX 4 1 2 2 1 3 3 4 5 6 6 7 7 8 11 9 8 10 10 11 9 12
REMARK H PARENT 3 5
REMARK Flexibility Score: inf
ROOT
ATOM      1  C   UNL     1       8.362  -1.108  -1.634  1.00  0.00     0.127 C 
ENDROOT
BRANCH   1   2
ATOM      2  C   UNL     1       8.355  -2.053  -2.777  1.00  0.00     0.303 C 
ATOM      3  O   UNL     1       7.286  -2.429  -3.282  1.00  0.00    -0.252 OA
BRANCH   2   4
ATOM      4  O   UNL     1       9.552  -2.519  -3.284  1.00  0.00    -0.481 OA
ATOM      5  H   UNL     1       9.599  -3.108  -4.111  1.00  0.00     0.296 HD
ENDBRANCH   2   4
ENDBRANCH   1   2
BRANCH   1   6
ATOM      6  C   UNL     1       7.322  -1.501  -0.615  1.00  0.00     0.047 C 
BRANCH   6   7
ATOM      7  C   UNL     1       6.527  -0.353  -0.137  1.00  0.00    -0.047 A 
ATOM      8  C   UNL     1       6.222   0.746  -0.899  1.00  0.00     0.004 A 
ATOM      9  C   UNL     1       6.067  -0.392   1.157  1.00  0.00     0.004 A 
ATOM     10  C   UNL     1       5.471   1.777  -0.369  1.00  0.00     0.000 A 
ATOM     11  C   UNL     1       5.325   0.616   1.700  1.00  0.00     0.000 A 
ATOM     12  C   UNL     1       5.017   1.720   0.933  1.00  0.00     0.000 A 
ENDBRANCH   6   7
ENDBRANCH   1   6
TORSDOF 4
ENDMDL
MODEL 5
REMARK VINA RESULT:      -6.7      3.337      5.030
REMARK SMILES O=C(O)CCc1ccccc1
REMARK SMILES IDX 4 1 2 2 1 3 3 4 5 6 6 7 7 8 11 9 8 10 10 11 9 12
REMARK H PARENT 3 5
REMARK Flexibility Score: inf
ROOT
ATOM      1  C   UNL     1       5.054   1.743   0.691  1.00  0.00     0.127 C 
ENDROOT
BRANCH   1   2
ATOM      2  C   UNL     1       4.602   1.046   1.918  1.00  0.00     0.303 C 
ATOM      3  O   UNL     1       5.321   0.196   2.467  1.00  0.00    -0.252 OA
BRANCH   2   4
ATOM      4  O   UNL     1       3.366   1.345   2.457  1.00  0.00    -0.481 OA
ATOM      5  H   UNL     1       3.098   2.292   2.710  1.00  0.00     0.296 HD
ENDBRANCH   2   4
ENDBRANCH   1   2
BRANCH   1   6
ATOM      6  C   UNL     1       6.554   1.897   0.690  1.00  0.00     0.047 C 
BRANCH   6   7
ATOM      7  C   UNL     1       7.211   1.105  -0.367  1.00  0.00    -0.047 A 
ATOM      8  C   UNL     1       8.547   1.176  -0.668  1.00  0.00     0.004 A 
ATOM      9  C   UNL     1       6.427   0.242  -1.096  1.00  0.00     0.004 A 
ATOM     10  C   UNL     1       9.078   0.396  -1.677  1.00  0.00     0.000 A 
ATOM     11  C   UNL     1       6.932  -0.536  -2.096  1.00  0.00     0.000 A 
ATOM     12  C   UNL     1       8.276  -0.465  -2.398  1.00  0.00     0.000 A 
ENDBRANCH   6   7
ENDBRANCH   1   6
TORSDOF 4
ENDMDL
