@<TRIPOS>MOLECULE
/home/cewinharhar/GITHUB/reincatalyze/data/processed/docking_pred/2023-Apr-25-1630_maxeplen5_maxtrainstep200_exh32_gamma099_lrac3e-4_lrcr1e-3/91438d65c636cbfd2c8442c68b92b155f88758ee_ligand_2.pdbqt
 12 12 0 0 0
SMALL
GASTEIGER

@<TRIPOS>ATOM
      1  C          8.4140   -0.6310   -2.1460 C.3     1  UNL1        0.1270
      2  C          8.4730   -1.9040   -2.9020 C.2     1  UNL1        0.3030
      3  O          9.5520   -2.4950   -3.0670 O.2     1  UNL1       -0.2520
      4  O          7.3140   -2.4400   -3.4280 O.3     1  UNL1       -0.4810
      5  H          7.2330   -3.4230   -3.6750 H       1  UNL1        0.2960
      6  C          7.0070   -0.0870   -2.1340 C.3     1  UNL1        0.0470
      7  C          6.4650    0.0700   -0.7710 C.2     1  UNL1       -0.0470
      8  C          5.8280    1.1970   -0.3180 C.2     1  UNL1        0.0040
      9  C          6.6140   -0.9840    0.0990 C.2     1  UNL1        0.0040
     10  C          5.3530    1.2590    0.9780 C.2     1  UNL1        0.0000
     11  C          6.1520   -0.9430    1.3820 C.2     1  UNL1        0.0000
     12  C          5.5110    0.1890    1.8370 C.2     1  UNL1        0.0000
@<TRIPOS>BOND
     1     5     4    1
     2     4     2    1
     3     3     2    2
     4     2     1    1
     5     1     6    1
     6     6     7    1
     7     7     8    2
     8     7     9    1
     9     8    10    1
    10     9    11    2
    11    10    12    2
    12    11    12    1
