@<TRIPOS>MOLECULE
/home/cewinharhar/GITHUB/reincatalyze/data/processed/docking_pred/2023-Apr-25-1630_maxeplen5_maxtrainstep200_exh32_gamma099_lrac3e-4_lrcr1e-3/91438d65c636cbfd2c8442c68b92b155f88758ee_ligand_2.pdbqt
 12 12 0 0 0
SMALL
GASTEIGER

@<TRIPOS>ATOM
      1  C          8.3620   -1.1080   -1.6340 C.3     1  UNL1        0.1270
      2  C          8.3550   -2.0530   -2.7770 C.2     1  UNL1        0.3030
      3  O          7.2860   -2.4290   -3.2820 O.2     1  UNL1       -0.2520
      4  O          9.5520   -2.5190   -3.2840 O.3     1  UNL1       -0.4810
      5  H          9.5990   -3.1080   -4.1110 H       1  UNL1        0.2960
      6  C          7.3220   -1.5010   -0.6150 C.3     1  UNL1        0.0470
      7  C          6.5270   -0.3530   -0.1370 C.2     1  UNL1       -0.0470
      8  C          6.2220    0.7460   -0.8990 C.2     1  UNL1        0.0040
      9  C          6.0670   -0.3920    1.1570 C.2     1  UNL1        0.0040
     10  C          5.4710    1.7770   -0.3690 C.2     1  UNL1        0.0000
     11  C          5.3250    0.6160    1.7000 C.2     1  UNL1        0.0000
     12  C          5.0170    1.7200    0.9330 C.2     1  UNL1        0.0000
@<TRIPOS>BOND
     1     5     4    1
     2     4     2    1
     3     3     2    2
     4     2     1    1
     5     1     6    1
     6     8    10    1
     7     8     7    2
     8     6     7    1
     9    10    12    2
    10     7     9    1
    11    12    11    1
    12     9    11    2
