@<TRIPOS>MOLECULE
/home/cewinharhar/GITHUB/reincatalyze/data/processed/docking_pred/2023-Apr-25-1630_maxeplen5_maxtrainstep200_exh32_gamma099_lrac3e-4_lrcr1e-3/91438d65c636cbfd2c8442c68b92b155f88758ee_ligand_2.pdbqt
 12 12 0 0 0
SMALL
GASTEIGER

@<TRIPOS>ATOM
      1  C          8.1960   -0.9470   -1.8590 C.3     1  UNL1        0.1270
      2  C          8.4090   -2.0260   -2.8530 C.2     1  UNL1        0.3030
      3  O          9.5480   -2.4570   -3.0880 O.2     1  UNL1       -0.2520
      4  O          7.3260   -2.5570   -3.5270 O.3     1  UNL1       -0.4810
      5  H          6.4640   -2.0360   -3.6650 H       1  UNL1        0.2960
      6  C          7.3470   -1.4410   -0.7150 C.3     1  UNL1        0.0470
      7  C          6.5440   -0.3710   -0.0940 C.2     1  UNL1       -0.0470
      8  C          6.0790   -0.4030    1.1960 C.2     1  UNL1        0.0040
      9  C          6.2430    0.7280   -0.8640 C.2     1  UNL1        0.0040
     10  C          5.3320    0.6460    1.6960 C.2     1  UNL1        0.0000
     11  C          5.5070    1.7730   -0.3900 C.2     1  UNL1        0.0000
     12  C          5.0400    1.7410    0.9070 C.2     1  UNL1        0.0000
@<TRIPOS>BOND
     1     5     4    1
     2     4     2    1
     3     3     2    2
     4     2     1    1
     5     1     6    1
     6     9    11    1
     7     9     7    2
     8     6     7    1
     9    11    12    2
    10     7     8    1
    11    12    10    1
    12     8    10    2
