@<TRIPOS>MOLECULE
/home/cewinharhar/GITHUB/reincatalyze/data/processed/docking_pred/2023-Apr-25-1630_maxeplen5_maxtrainstep200_exh32_gamma099_lrac3e-4_lrcr1e-3/91438d65c636cbfd2c8442c68b92b155f88758ee_ligand_2.pdbqt
 12 12 0 0 0
SMALL
GASTEIGER

@<TRIPOS>ATOM
      1  C          5.0540    1.7430    0.6910 C.3     1  UNL1        0.1270
      2  C          4.6020    1.0460    1.9180 C.2     1  UNL1        0.3030
      3  O          5.3210    0.1960    2.4670 O.2     1  UNL1       -0.2520
      4  O          3.3660    1.3450    2.4570 O.3     1  UNL1       -0.4810
      5  H          3.0980    2.2920    2.7100 H       1  UNL1        0.2960
      6  C          6.5540    1.8970    0.6900 C.3     1  UNL1        0.0470
      7  C          7.2110    1.1050   -0.3670 C.2     1  UNL1       -0.0470
      8  C          8.5470    1.1760   -0.6680 C.2     1  UNL1        0.0040
      9  C          6.4270    0.2420   -1.0960 C.2     1  UNL1        0.0040
     10  C          9.0780    0.3960   -1.6770 C.2     1  UNL1        0.0000
     11  C          6.9320   -0.5360   -2.0960 C.2     1  UNL1        0.0000
     12  C          8.2760   -0.4650   -2.3980 C.2     1  UNL1        0.0000
@<TRIPOS>BOND
     1    12    11    2
     2    12    10    1
     3    11     9    1
     4    10     8    2
     5     9     7    2
     6     8     7    1
     7     7     6    1
     8     6     1    1
     9     1     2    1
    10     2     4    1
    11     2     3    2
    12     4     5    1
