MODEL 1
REMARK VINA RESULT:      -7.3      0.000      0.000
REMARK SMILES O=C(O)CCc1ccccc1
REMARK SMILES IDX 4 1 2 2 1 3 3 4 5 6 6 7 7 8 11 9 8 10 10 11 9 12
REMARK H PARENT 3 5
REMARK Flexibility Score: inf
ROOT
ATOM      1  C   UNL     1       8.440  -0.779  -1.958  1.00  0.00     0.127 C 
ENDROOT
BRANCH   1   2
ATOM      2  C   UNL     1       8.470  -1.958  -2.855  1.00  0.00     0.303 C 
ATOM      3  O   UNL     1       9.540  -2.525  -3.124  1.00  0.00    -0.252 OA
BRANCH   2   4
ATOM      4  O   UNL     1       7.291  -2.432  -3.399  1.00  0.00    -0.481 OA
ATOM      5  H   UNL     1       7.276  -3.088  -4.175  1.00  0.00     0.296 HD
ENDBRANCH   2   4
ENDBRANCH   1   2
BRANCH   1   6
ATOM      6  C   UNL     1       7.120  -0.058  -2.074  1.00  0.00     0.047 C 
BRANCH   6   7
ATOM      7  C   UNL     1       6.477   0.174  -0.767  1.00  0.00    -0.047 A 
ATOM      8  C   UNL     1       5.776   1.307  -0.441  1.00  0.00     0.004 A 
ATOM      9  C   UNL     1       6.591  -0.813   0.183  1.00  0.00     0.004 A 
ATOM     10  C   UNL     1       5.206   1.440   0.811  1.00  0.00     0.000 A 
ATOM     11  C   UNL     1       6.037  -0.701   1.424  1.00  0.00     0.000 A 
ATOM     12  C   UNL     1       5.332   0.438   1.752  1.00  0.00     0.000 A 
ENDBRANCH   6   7
ENDBRANCH   1   6
TORSDOF 4
ENDMDL
MODEL 2
REMARK VINA RESULT:      -7.3      0.141      1.433
REMARK SMILES O=C(O)CCc1ccccc1
REMARK SMILES IDX 4 1 2 2 1 3 3 4 5 6 6 7 7 8 11 9 8 10 10 11 9 12
REMARK H PARENT 3 5
REMARK Flexibility Score: inf
ROOT
ATOM      1  C   UNL     1       8.438  -0.585  -2.217  1.00  0.00     0.127 C 
ENDROOT
BRANCH   1   2
ATOM      2  C   UNL     1       8.488  -1.883  -2.931  1.00  0.00     0.303 C 
ATOM      3  O   UNL     1       9.562  -2.486  -3.078  1.00  0.00    -0.252 OA
BRANCH   2   4
ATOM      4  O   UNL     1       7.324  -2.428  -3.438  1.00  0.00    -0.481 OA
ATOM      5  H   UNL     1       6.678  -1.892  -4.012  1.00  0.00     0.296 HD
ENDBRANCH   2   4
ENDBRANCH   1   2
BRANCH   1   6
ATOM      6  C   UNL     1       7.028  -0.050  -2.188  1.00  0.00     0.047 C 
BRANCH   6   7
ATOM      7  C   UNL     1       6.483   0.056  -0.821  1.00  0.00    -0.047 A 
ATOM      8  C   UNL     1       6.566  -0.936   0.122  1.00  0.00     0.004 A 
ATOM      9  C   UNL     1       5.850   1.227  -0.476  1.00  0.00     0.004 A 
ATOM     10  C   UNL     1       6.025  -0.752   1.380  1.00  0.00     0.000 A 
ATOM     11  C   UNL     1       5.309   1.428   0.759  1.00  0.00     0.000 A 
ATOM     12  C   UNL     1       5.394   0.431   1.708  1.00  0.00     0.000 A 
ENDBRANCH   6   7
ENDBRANCH   1   6
TORSDOF 4
ENDMDL
MODEL 3
REMARK VINA RESULT:      -7.2      0.538      1.577
REMARK SMILES O=C(O)CCc1ccccc1
REMARK SMILES IDX 4 1 2 2 1 3 3 4 5 6 6 7 7 8 11 9 8 10 10 11 9 12
REMARK H PARENT 3 5
REMARK Flexibility Score: inf
ROOT
ATOM      1  C   UNL     1       8.184  -0.867  -1.955  1.00  0.00     0.127 C 
ENDROOT
BRANCH   1   2
ATOM      2  C   UNL     1       8.356  -2.002  -2.892  1.00  0.00     0.303 C 
ATOM      3  O   UNL     1       9.479  -2.485  -3.105  1.00  0.00    -0.252 OA
BRANCH   2   4
ATOM      4  O   UNL     1       7.253  -2.530  -3.535  1.00  0.00    -0.481 OA
ATOM      5  H   UNL     1       6.463  -2.919  -3.028  1.00  0.00     0.296 HD
ENDBRANCH   2   4
ENDBRANCH   1   2
BRANCH   1   6
ATOM      6  C   UNL     1       7.610  -1.343  -0.644  1.00  0.00     0.047 C 
BRANCH   6   7
ATOM      7  C   UNL     1       6.698  -0.360  -0.028  1.00  0.00    -0.047 A 
ATOM      8  C   UNL     1       6.164  -0.484   1.229  1.00  0.00     0.004 A 
ATOM      9  C   UNL     1       6.363   0.749  -0.768  1.00  0.00     0.004 A 
ATOM     10  C   UNL     1       5.316   0.486   1.727  1.00  0.00     0.000 A 
ATOM     11  C   UNL     1       5.527   1.718  -0.295  1.00  0.00     0.000 A 
ATOM     12  C   UNL     1       4.992   1.594   0.969  1.00  0.00     0.000 A 
ENDBRANCH   6   7
ENDBRANCH   1   6
TORSDOF 4
ENDMDL
MODEL 4
REMARK VINA RESULT:      -6.8      3.358      5.086
REMARK SMILES O=C(O)CCc1ccccc1
REMARK SMILES IDX 4 1 2 2 1 3 3 4 5 6 6 7 7 8 11 9 8 10 10 11 9 12
REMARK H PARENT 3 5
REMARK Flexibility Score: inf
ROOT
ATOM      1  C   UNL     1       5.023   1.799   0.753  1.00  0.00     0.127 C 
ENDROOT
BRANCH   1   2
ATOM      2  C   UNL     1       4.483   1.094   1.939  1.00  0.00     0.303 C 
ATOM      3  O   UNL     1       5.121   0.175   2.478  1.00  0.00    -0.252 OA
BRANCH   2   4
ATOM      4  O   UNL     1       3.254   1.463   2.452  1.00  0.00    -0.481 OA
ATOM      5  H   UNL     1       2.591   0.785   2.817  1.00  0.00     0.296 HD
ENDBRANCH   2   4
ENDBRANCH   1   2
BRANCH   1   6
ATOM      6  C   UNL     1       6.531   1.781   0.767  1.00  0.00     0.047 C 
BRANCH   6   7
ATOM      7  C   UNL     1       7.105   0.986  -0.336  1.00  0.00    -0.047 A 
ATOM      8  C   UNL     1       6.415   0.034  -1.041  1.00  0.00     0.004 A 
ATOM      9  C   UNL     1       8.417   1.219  -0.673  1.00  0.00     0.004 A 
ATOM     10  C   UNL     1       7.033  -0.665  -2.060  1.00  0.00     0.000 A 
ATOM     11  C   UNL     1       9.045   0.540  -1.675  1.00  0.00     0.000 A 
ATOM     12  C   UNL     1       8.352  -0.417  -2.385  1.00  0.00     0.000 A 
ENDBRANCH   6   7
ENDBRANCH   1   6
TORSDOF 4
ENDMDL
MODEL 5
REMARK VINA RESULT:      -6.7      1.937      2.641
REMARK SMILES O=C(O)CCc1ccccc1
REMARK SMILES IDX 4 1 2 2 1 3 3 4 5 6 6 7 7 8 11 9 8 10 10 11 9 12
REMARK H PARENT 3 5
REMARK Flexibility Score: inf
ROOT
ATOM      1  C   UNL     1       8.278   0.169  -2.168  1.00  0.00     0.127 C 
ENDROOT
BRANCH   1   2
ATOM      2  C   UNL     1       9.397   0.329  -1.210  1.00  0.00     0.303 C 
ATOM      3  O   UNL     1       9.478  -0.391  -0.202  1.00  0.00    -0.252 OA
BRANCH   2   4
ATOM      4  O   UNL     1      10.361   1.291  -1.442  1.00  0.00    -0.481 OA
ATOM      5  H   UNL     1      10.569   1.639  -2.373  1.00  0.00     0.296 HD
ENDBRANCH   2   4
ENDBRANCH   1   2
BRANCH   1   6
ATOM      6  C   UNL     1       7.151  -0.613  -1.541  1.00  0.00     0.047 C 
BRANCH   6   7
ATOM      7  C   UNL     1       6.372   0.183  -0.572  1.00  0.00    -0.047 A 
ATOM      8  C   UNL     1       6.122  -0.202   0.720  1.00  0.00     0.004 A 
ATOM      9  C   UNL     1       5.864   1.387  -0.999  1.00  0.00     0.004 A 
ATOM     10  C   UNL     1       5.381   0.606   1.559  1.00  0.00     0.000 A 
ATOM     11  C   UNL     1       5.129   2.199  -0.187  1.00  0.00     0.000 A 
ATOM     12  C   UNL     1       4.879   1.813   1.113  1.00  0.00     0.000 A 
ENDBRANCH   6   7
ENDBRANCH   1   6
TORSDOF 4
ENDMDL
