@<TRIPOS>MOLECULE
/home/cewinharhar/GITHUB/reincatalyze/data/processed/docking_pred/2023-Apr-25-1630_maxeplen5_maxtrainstep200_exh32_gamma099_lrac3e-4_lrcr1e-3/93c3770ef064b633c902e85f3368d9330fbaaeb8_ligand_2.pdbqt
 12 12 0 0 0
SMALL
GASTEIGER

@<TRIPOS>ATOM
      1  C          8.1840   -0.8670   -1.9550 C.3     1  UNL1        0.1270
      2  C          8.3560   -2.0020   -2.8920 C.2     1  UNL1        0.3030
      3  O          9.4790   -2.4850   -3.1050 O.2     1  UNL1       -0.2520
      4  O          7.2530   -2.5300   -3.5350 O.3     1  UNL1       -0.4810
      5  H          6.4630   -2.9190   -3.0280 H       1  UNL1        0.2960
      6  C          7.6100   -1.3430   -0.6440 C.3     1  UNL1        0.0470
      7  C          6.6980   -0.3600   -0.0280 C.2     1  UNL1       -0.0470
      8  C          6.1640   -0.4840    1.2290 C.2     1  UNL1        0.0040
      9  C          6.3630    0.7490   -0.7680 C.2     1  UNL1        0.0040
     10  C          5.3160    0.4860    1.7270 C.2     1  UNL1        0.0000
     11  C          5.5270    1.7180   -0.2950 C.2     1  UNL1        0.0000
     12  C          4.9920    1.5940    0.9690 C.2     1  UNL1        0.0000
@<TRIPOS>BOND
     1     4     5    1
     2     4     2    1
     3     3     2    2
     4     2     1    1
     5     1     6    1
     6     9    11    1
     7     9     7    2
     8     6     7    1
     9    11    12    2
    10     7     8    1
    11    12    10    1
    12     8    10    2
