@<TRIPOS>MOLECULE
/home/cewinharhar/GITHUB/reincatalyze/data/processed/docking_pred/2023-Apr-25-1630_maxeplen5_maxtrainstep200_exh32_gamma099_lrac3e-4_lrcr1e-3/93c3770ef064b633c902e85f3368d9330fbaaeb8_ligand_2.pdbqt
 12 12 0 0 0
SMALL
GASTEIGER

@<TRIPOS>ATOM
      1  C          8.4400   -0.7790   -1.9580 C.3     1  UNL1        0.1270
      2  C          8.4700   -1.9580   -2.8550 C.2     1  UNL1        0.3030
      3  O          9.5400   -2.5250   -3.1240 O.2     1  UNL1       -0.2520
      4  O          7.2910   -2.4320   -3.3990 O.3     1  UNL1       -0.4810
      5  H          7.2760   -3.0880   -4.1750 H       1  UNL1        0.2960
      6  C          7.1200   -0.0580   -2.0740 C.3     1  UNL1        0.0470
      7  C          6.4770    0.1740   -0.7670 C.2     1  UNL1       -0.0470
      8  C          5.7760    1.3070   -0.4410 C.2     1  UNL1        0.0040
      9  C          6.5910   -0.8130    0.1830 C.2     1  UNL1        0.0040
     10  C          5.2060    1.4400    0.8110 C.2     1  UNL1        0.0000
     11  C          6.0370   -0.7010    1.4240 C.2     1  UNL1        0.0000
     12  C          5.3320    0.4380    1.7520 C.2     1  UNL1        0.0000
@<TRIPOS>BOND
     1     5     4    1
     2     4     2    1
     3     3     2    2
     4     2     1    1
     5     6     1    1
     6     6     7    1
     7     7     8    2
     8     7     9    1
     9     8    10    1
    10     9    11    2
    11    10    12    2
    12    11    12    1
