@<TRIPOS>MOLECULE
/home/cewinharhar/GITHUB/reincatalyze/data/processed/docking_pred/2023-Apr-25-1630_maxeplen5_maxtrainstep200_exh32_gamma099_lrac3e-4_lrcr1e-3/93c3770ef064b633c902e85f3368d9330fbaaeb8_ligand_2.pdbqt
 12 12 0 0 0
SMALL
GASTEIGER

@<TRIPOS>ATOM
      1  C          8.4380   -0.5850   -2.2170 C.3     1  UNL1        0.1270
      2  C          8.4880   -1.8830   -2.9310 C.2     1  UNL1        0.3030
      3  O          9.5620   -2.4860   -3.0780 O.2     1  UNL1       -0.2520
      4  O          7.3240   -2.4280   -3.4380 O.3     1  UNL1       -0.4810
      5  H          6.6780   -1.8920   -4.0120 H       1  UNL1        0.2960
      6  C          7.0280   -0.0500   -2.1880 C.3     1  UNL1        0.0470
      7  C          6.4830    0.0560   -0.8210 C.2     1  UNL1       -0.0470
      8  C          6.5660   -0.9360    0.1220 C.2     1  UNL1        0.0040
      9  C          5.8500    1.2270   -0.4760 C.2     1  UNL1        0.0040
     10  C          6.0250   -0.7520    1.3800 C.2     1  UNL1        0.0000
     11  C          5.3090    1.4280    0.7590 C.2     1  UNL1        0.0000
     12  C          5.3940    0.4310    1.7080 C.2     1  UNL1        0.0000
@<TRIPOS>BOND
     1     5     4    1
     2     4     2    1
     3     3     2    2
     4     2     1    1
     5     1     6    1
     6     6     7    1
     7     7     9    2
     8     7     8    1
     9     9    11    1
    10     8    10    2
    11    11    12    2
    12    10    12    1
