@<TRIPOS>MOLECULE
/home/cewinharhar/GITHUB/reincatalyze/data/processed/docking_pred/2023-Apr-25-1630_maxeplen5_maxtrainstep200_exh32_gamma099_lrac3e-4_lrcr1e-3/93c3770ef064b633c902e85f3368d9330fbaaeb8_ligand_2.pdbqt
 12 12 0 0 0
SMALL
GASTEIGER

@<TRIPOS>ATOM
      1  C          5.0230    1.7990    0.7530 C.3     1  UNL1        0.1270
      2  C          4.4830    1.0940    1.9390 C.2     1  UNL1        0.3030
      3  O          5.1210    0.1750    2.4780 O.2     1  UNL1       -0.2520
      4  O          3.2540    1.4630    2.4520 O.3     1  UNL1       -0.4810
      5  H          2.5910    0.7850    2.8170 H       1  UNL1        0.2960
      6  C          6.5310    1.7810    0.7670 C.3     1  UNL1        0.0470
      7  C          7.1050    0.9860   -0.3360 C.2     1  UNL1       -0.0470
      8  C          6.4150    0.0340   -1.0410 C.2     1  UNL1        0.0040
      9  C          8.4170    1.2190   -0.6730 C.2     1  UNL1        0.0040
     10  C          7.0330   -0.6650   -2.0600 C.2     1  UNL1        0.0000
     11  C          9.0450    0.5400   -1.6750 C.2     1  UNL1        0.0000
     12  C          8.3520   -0.4170   -2.3850 C.2     1  UNL1        0.0000
@<TRIPOS>BOND
     1    12    10    2
     2    12    11    1
     3    10     8    1
     4    11     9    2
     5     8     7    2
     6     9     7    1
     7     7     6    1
     8     1     6    1
     9     1     2    1
    10     2     4    1
    11     2     3    2
    12     4     5    1
