@<TRIPOS>MOLECULE
/home/cewinharhar/GITHUB/reincatalyze/data/processed/docking_pred/2023-Apr-25-1630_maxeplen5_maxtrainstep200_exh32_gamma099_lrac3e-4_lrcr1e-3/93c3770ef064b633c902e85f3368d9330fbaaeb8_ligand_2.pdbqt
 12 12 0 0 0
SMALL
GASTEIGER

@<TRIPOS>ATOM
      1  C          8.2780    0.1690   -2.1680 C.3     1  UNL1        0.1270
      2  C          9.3970    0.3290   -1.2100 C.2     1  UNL1        0.3030
      3  O          9.4780   -0.3910   -0.2020 O.2     1  UNL1       -0.2520
      4  O         10.3610    1.2910   -1.4420 O.3     1  UNL1       -0.4810
      5  H         10.5690    1.6390   -2.3730 H       1  UNL1        0.2960
      6  C          7.1510   -0.6130   -1.5410 C.3     1  UNL1        0.0470
      7  C          6.3720    0.1830   -0.5720 C.2     1  UNL1       -0.0470
      8  C          6.1220   -0.2020    0.7200 C.2     1  UNL1        0.0040
      9  C          5.8640    1.3870   -0.9990 C.2     1  UNL1        0.0040
     10  C          5.3810    0.6060    1.5590 C.2     1  UNL1        0.0000
     11  C          5.1290    2.1990   -0.1870 C.2     1  UNL1        0.0000
     12  C          4.8790    1.8130    1.1130 C.2     1  UNL1        0.0000
@<TRIPOS>BOND
     1     5     4    1
     2     1     6    1
     3     1     2    1
     4     6     7    1
     5     4     2    1
     6     2     3    2
     7     9     7    2
     8     9    11    1
     9     7     8    1
    10    11    12    2
    11     8    10    2
    12    12    10    1
