@<TRIPOS>MOLECULE
/home/cewinharhar/GITHUB/reincatalyze/data/processed/docking_pred/2023-Apr-25-1630_maxeplen5_maxtrainstep200_exh32_gamma099_lrac3e-4_lrcr1e-3/9545d038953ad0bd3b50a81295f717fe73892d7b_ligand_2.pdbqt
 12 12 0 0 0
SMALL
GASTEIGER

@<TRIPOS>ATOM
      1  C          8.2880    0.4090   -1.9860 C.3     1  UNL1        0.1270
      2  C          9.4730    0.4340   -1.0960 C.2     1  UNL1        0.3030
      3  O          9.5570   -0.3380   -0.1290 O.2     1  UNL1       -0.2520
      4  O         10.4950    1.3290   -1.3470 O.3     1  UNL1       -0.4810
      5  H         10.3200    2.2810   -1.6580 H       1  UNL1        0.2960
      6  C          7.2160   -0.4860   -1.4160 C.3     1  UNL1        0.0470
      7  C          6.3800    0.1930   -0.4080 C.2     1  UNL1       -0.0470
      8  C          5.7860    1.4150   -0.5930 C.2     1  UNL1        0.0040
      9  C          6.1880   -0.4450    0.7950 C.2     1  UNL1        0.0040
     10  C          5.0190    1.9790    0.4080 C.2     1  UNL1        0.0000
     11  C          5.4350    0.0950    1.7960 C.2     1  UNL1        0.0000
     12  C          4.8370    1.3230    1.6090 C.2     1  UNL1        0.0000
@<TRIPOS>BOND
     1     1     6    1
     2     1     2    1
     3     5     4    1
     4     6     7    1
     5     4     2    1
     6     2     3    2
     7     8     7    2
     8     8    10    1
     9     7     9    1
    10    10    12    2
    11     9    11    2
    12    12    11    1
