@<TRIPOS>MOLECULE
/home/cewinharhar/GITHUB/reincatalyze/data/processed/docking_pred/2023-Apr-25-1630_maxeplen5_maxtrainstep200_exh32_gamma099_lrac3e-4_lrcr1e-3/9545d038953ad0bd3b50a81295f717fe73892d7b_ligand_2.pdbqt
 12 12 0 0 0
SMALL
GASTEIGER

@<TRIPOS>ATOM
      1  C          8.4000   -0.7370   -2.0070 C.3     1  UNL1        0.1270
      2  C          8.3760   -1.9440   -2.8670 C.2     1  UNL1        0.3030
      3  O          7.3000   -2.4280   -3.2520 O.2     1  UNL1       -0.2520
      4  O          9.5650   -2.5360   -3.2450 O.3     1  UNL1       -0.4810
      5  H          9.8070   -3.4870   -2.9790 H       1  UNL1        0.2960
      6  C          7.0790   -0.0120   -2.0740 C.3     1  UNL1        0.0470
      7  C          6.4670    0.1870   -0.7460 C.2     1  UNL1       -0.0470
      8  C          5.7880    1.3180   -0.3710 C.2     1  UNL1        0.0040
      9  C          6.5910   -0.8290    0.1710 C.2     1  UNL1        0.0040
     10  C          5.2470    1.4200    0.8960 C.2     1  UNL1        0.0000
     11  C          6.0640   -0.7470    1.4270 C.2     1  UNL1        0.0000
     12  C          5.3810    0.3890    1.8040 C.2     1  UNL1        0.0000
@<TRIPOS>BOND
     1     3     2    2
     2     4     5    1
     3     4     2    1
     4     2     1    1
     5     6     1    1
     6     6     7    1
     7     7     8    2
     8     7     9    1
     9     8    10    1
    10     9    11    2
    11    10    12    2
    12    11    12    1
