@<TRIPOS>MOLECULE
/home/cewinharhar/GITHUB/reincatalyze/data/processed/docking_pred/2023-Apr-25-1630_maxeplen5_maxtrainstep200_exh32_gamma099_lrac3e-4_lrcr1e-3/9545d038953ad0bd3b50a81295f717fe73892d7b_ligand_2.pdbqt
 12 12 0 0 0
SMALL
GASTEIGER

@<TRIPOS>ATOM
      1  C          8.4450   -0.6620   -2.1240 C.3     1  UNL1        0.1270
      2  C          8.4830   -1.9240   -2.9010 C.2     1  UNL1        0.3030
      3  O          9.5550   -2.5170   -3.0960 O.2     1  UNL1       -0.2520
      4  O          7.3110   -2.4440   -3.4150 O.3     1  UNL1       -0.4810
      5  H          6.4100   -2.2970   -2.9690 H       1  UNL1        0.2960
      6  C          7.0420   -0.1120   -2.0760 C.3     1  UNL1        0.0470
      7  C          6.5070   -0.0270   -0.7030 C.2     1  UNL1       -0.0470
      8  C          6.6230   -1.0220    0.2330 C.2     1  UNL1        0.0040
      9  C          5.8480    1.1250   -0.3460 C.2     1  UNL1        0.0040
     10  C          6.0900   -0.8580    1.4970 C.2     1  UNL1        0.0000
     11  C          5.3140    1.3060    0.8960 C.2     1  UNL1        0.0000
     12  C          5.4320    0.3060    1.8380 C.2     1  UNL1        0.0000
@<TRIPOS>BOND
     1     4     5    1
     2     4     2    1
     3     3     2    2
     4     2     1    1
     5     1     6    1
     6     6     7    1
     7     7     9    2
     8     7     8    1
     9     9    11    1
    10     8    10    2
    11    11    12    2
    12    10    12    1
