@<TRIPOS>MOLECULE
/home/cewinharhar/GITHUB/reincatalyze/data/processed/docking_pred/2023-Apr-25-1630_maxeplen5_maxtrainstep200_exh32_gamma099_lrac3e-4_lrcr1e-3/9545d038953ad0bd3b50a81295f717fe73892d7b_ligand_2.pdbqt
 12 12 0 0 0
SMALL
GASTEIGER

@<TRIPOS>ATOM
      1  C          5.0470    1.6870    0.7190 C.3     1  UNL1        0.1270
      2  C          4.5950    1.0120    1.9590 C.2     1  UNL1        0.3030
      3  O          5.3150    0.1750    2.5240 O.2     1  UNL1       -0.2520
      4  O          3.3580    1.3190    2.4910 O.3     1  UNL1       -0.4810
      5  H          2.4900    1.0920    2.0130 H       1  UNL1        0.2960
      6  C          6.5460    1.8510    0.7200 C.3     1  UNL1        0.0470
      7  C          7.2080    1.0700   -0.3420 C.2     1  UNL1       -0.0470
      8  C          8.5270    1.2060   -0.6930 C.2     1  UNL1        0.0040
      9  C          6.4490    0.1480   -1.0230 C.2     1  UNL1        0.0040
     10  C          9.0650    0.4330   -1.7040 C.2     1  UNL1        0.0000
     11  C          6.9600   -0.6240   -2.0240 C.2     1  UNL1        0.0000
     12  C          8.2860   -0.4880   -2.3760 C.2     1  UNL1        0.0000
@<TRIPOS>BOND
     1    12    11    2
     2    12    10    1
     3    11     9    1
     4    10     8    2
     5     9     7    2
     6     8     7    1
     7     7     6    1
     8     1     6    1
     9     1     2    1
    10     2     4    1
    11     2     3    2
    12     5     4    1
