@<TRIPOS>MOLECULE
/home/cewinharhar/GITHUB/reincatalyze/data/processed/docking_pred/2023-Apr-25-1630_maxeplen5_maxtrainstep200_exh32_gamma099_lrac3e-4_lrcr1e-3/9545d038953ad0bd3b50a81295f717fe73892d7b_ligand_2.pdbqt
 12 12 0 0 0
SMALL
GASTEIGER

@<TRIPOS>ATOM
      1  C          8.2700   -0.9720   -1.8140 C.3     1  UNL1        0.1270
      2  C          8.4020   -2.0330   -2.8420 C.2     1  UNL1        0.3030
      3  O          9.5150   -2.4960   -3.1370 O.2     1  UNL1       -0.2520
      4  O          7.2730   -2.5100   -3.4780 O.3     1  UNL1       -0.4810
      5  H          6.6230   -1.8990   -3.9640 H       1  UNL1        0.2960
      6  C          7.3070   -1.3980   -0.7340 C.3     1  UNL1        0.0470
      7  C          6.5100   -0.2760   -0.2020 C.2     1  UNL1       -0.0470
      8  C          6.1770    0.8430   -0.9220 C.2     1  UNL1        0.0040
      9  C          6.0770   -0.3630    1.0990 C.2     1  UNL1        0.0040
     10  C          5.4260    1.8470   -0.3430 C.2     1  UNL1        0.0000
     11  C          5.3350    0.6180    1.6890 C.2     1  UNL1        0.0000
     12  C          4.9990    1.7430    0.9660 C.2     1  UNL1        0.0000
@<TRIPOS>BOND
     1     5     4    1
     2     4     2    1
     3     3     2    2
     4     2     1    1
     5     1     6    1
     6     8    10    1
     7     8     7    2
     8     6     7    1
     9    10    12    2
    10     7     9    1
    11    12    11    1
    12     9    11    2
