MODEL 1
REMARK VINA RESULT:      -7.3      0.000      0.000
REMARK SMILES O=C(O)CCc1ccccc1
REMARK SMILES IDX 4 1 2 2 1 3 3 4 5 6 6 7 7 8 11 9 8 10 10 11 9 12
REMARK H PARENT 3 5
REMARK Flexibility Score: inf
ROOT
ATOM      1  C   UNL     1       8.445  -0.662  -2.124  1.00  0.00     0.127 C 
ENDROOT
BRANCH   1   2
ATOM      2  C   UNL     1       8.483  -1.924  -2.901  1.00  0.00     0.303 C 
ATOM      3  O   UNL     1       9.555  -2.517  -3.096  1.00  0.00    -0.252 OA
BRANCH   2   4
ATOM      4  O   UNL     1       7.311  -2.444  -3.415  1.00  0.00    -0.481 OA
ATOM      5  H   UNL     1       6.410  -2.297  -2.969  1.00  0.00     0.296 HD
ENDBRANCH   2   4
ENDBRANCH   1   2
BRANCH   1   6
ATOM      6  C   UNL     1       7.042  -0.112  -2.076  1.00  0.00     0.047 C 
BRANCH   6   7
ATOM      7  C   UNL     1       6.507  -0.027  -0.703  1.00  0.00    -0.047 A 
ATOM      8  C   UNL     1       6.623  -1.022   0.233  1.00  0.00     0.004 A 
ATOM      9  C   UNL     1       5.848   1.125  -0.346  1.00  0.00     0.004 A 
ATOM     10  C   UNL     1       6.090  -0.858   1.497  1.00  0.00     0.000 A 
ATOM     11  C   UNL     1       5.314   1.306   0.896  1.00  0.00     0.000 A 
ATOM     12  C   UNL     1       5.432   0.306   1.838  1.00  0.00     0.000 A 
ENDBRANCH   6   7
ENDBRANCH   1   6
TORSDOF 4
ENDMDL
MODEL 2
REMARK VINA RESULT:      -7.3      0.158      1.728
REMARK SMILES O=C(O)CCc1ccccc1
REMARK SMILES IDX 4 1 2 2 1 3 3 4 5 6 6 7 7 8 11 9 8 10 10 11 9 12
REMARK H PARENT 3 5
REMARK Flexibility Score: inf
ROOT
ATOM      1  C   UNL     1       8.400  -0.737  -2.007  1.00  0.00     0.127 C 
ENDROOT
BRANCH   1   2
ATOM      2  C   UNL     1       8.376  -1.944  -2.867  1.00  0.00     0.303 C 
ATOM      3  O   UNL     1       7.300  -2.428  -3.252  1.00  0.00    -0.252 OA
BRANCH   2   4
ATOM      4  O   UNL     1       9.565  -2.536  -3.245  1.00  0.00    -0.481 OA
ATOM      5  H   UNL     1       9.807  -3.487  -2.979  1.00  0.00     0.296 HD
ENDBRANCH   2   4
ENDBRANCH   1   2
BRANCH   1   6
ATOM      6  C   UNL     1       7.079  -0.012  -2.074  1.00  0.00     0.047 C 
BRANCH   6   7
ATOM      7  C   UNL     1       6.467   0.187  -0.746  1.00  0.00    -0.047 A 
ATOM      8  C   UNL     1       5.788   1.318  -0.371  1.00  0.00     0.004 A 
ATOM      9  C   UNL     1       6.591  -0.829   0.171  1.00  0.00     0.004 A 
ATOM     10  C   UNL     1       5.247   1.420   0.896  1.00  0.00     0.000 A 
ATOM     11  C   UNL     1       6.064  -0.747   1.427  1.00  0.00     0.000 A 
ATOM     12  C   UNL     1       5.381   0.389   1.804  1.00  0.00     0.000 A 
ENDBRANCH   6   7
ENDBRANCH   1   6
TORSDOF 4
ENDMDL
MODEL 3
REMARK VINA RESULT:      -7.2      0.674      1.616
REMARK SMILES O=C(O)CCc1ccccc1
REMARK SMILES IDX 4 1 2 2 1 3 3 4 5 6 6 7 7 8 11 9 8 10 10 11 9 12
REMARK H PARENT 3 5
REMARK Flexibility Score: inf
ROOT
ATOM      1  C   UNL     1       8.270  -0.972  -1.814  1.00  0.00     0.127 C 
ENDROOT
BRANCH   1   2
ATOM      2  C   UNL     1       8.402  -2.033  -2.842  1.00  0.00     0.303 C 
ATOM      3  O   UNL     1       9.515  -2.496  -3.137  1.00  0.00    -0.252 OA
BRANCH   2   4
ATOM      4  O   UNL     1       7.273  -2.510  -3.478  1.00  0.00    -0.481 OA
ATOM      5  H   UNL     1       6.623  -1.899  -3.964  1.00  0.00     0.296 HD
ENDBRANCH   2   4
ENDBRANCH   1   2
BRANCH   1   6
ATOM      6  C   UNL     1       7.307  -1.398  -0.734  1.00  0.00     0.047 C 
BRANCH   6   7
ATOM      7  C   UNL     1       6.510  -0.276  -0.202  1.00  0.00    -0.047 A 
ATOM      8  C   UNL     1       6.177   0.843  -0.922  1.00  0.00     0.004 A 
ATOM      9  C   UNL     1       6.077  -0.363   1.099  1.00  0.00     0.004 A 
ATOM     10  C   UNL     1       5.426   1.847  -0.343  1.00  0.00     0.000 A 
ATOM     11  C   UNL     1       5.335   0.618   1.689  1.00  0.00     0.000 A 
ATOM     12  C   UNL     1       4.999   1.743   0.966  1.00  0.00     0.000 A 
ENDBRANCH   6   7
ENDBRANCH   1   6
TORSDOF 4
ENDMDL
MODEL 4
REMARK VINA RESULT:      -6.7      3.354      5.056
REMARK SMILES O=C(O)CCc1ccccc1
REMARK SMILES IDX 4 1 2 2 1 3 3 4 5 6 6 7 7 8 11 9 8 10 10 11 9 12
REMARK H PARENT 3 5
REMARK Flexibility Score: inf
ROOT
ATOM      1  C   UNL     1       5.047   1.687   0.719  1.00  0.00     0.127 C 
ENDROOT
BRANCH   1   2
ATOM      2  C   UNL     1       4.595   1.012   1.959  1.00  0.00     0.303 C 
ATOM      3  O   UNL     1       5.315   0.175   2.524  1.00  0.00    -0.252 OA
BRANCH   2   4
ATOM      4  O   UNL     1       3.358   1.319   2.491  1.00  0.00    -0.481 OA
ATOM      5  H   UNL     1       2.490   1.092   2.013  1.00  0.00     0.296 HD
ENDBRANCH   2   4
ENDBRANCH   1   2
BRANCH   1   6
ATOM      6  C   UNL     1       6.546   1.851   0.720  1.00  0.00     0.047 C 
BRANCH   6   7
ATOM      7  C   UNL     1       7.208   1.070  -0.342  1.00  0.00    -0.047 A 
ATOM      8  C   UNL     1       8.527   1.206  -0.693  1.00  0.00     0.004 A 
ATOM      9  C   UNL     1       6.449   0.148  -1.023  1.00  0.00     0.004 A 
ATOM     10  C   UNL     1       9.065   0.433  -1.704  1.00  0.00     0.000 A 
ATOM     11  C   UNL     1       6.960  -0.624  -2.024  1.00  0.00     0.000 A 
ATOM     12  C   UNL     1       8.286  -0.488  -2.376  1.00  0.00     0.000 A 
ENDBRANCH   6   7
ENDBRANCH   1   6
TORSDOF 4
ENDMDL
MODEL 5
REMARK VINA RESULT:      -6.6      2.002      2.684
REMARK SMILES O=C(O)CCc1ccccc1
REMARK SMILES IDX 4 1 2 2 1 3 3 4 5 6 6 7 7 8 11 9 8 10 10 11 9 12
REMARK H PARENT 3 5
REMARK Flexibility Score: inf
ROOT
ATOM      1  C   UNL     1       8.288   0.409  -1.986  1.00  0.00     0.127 C 
ENDROOT
BRANCH   1   2
ATOM      2  C   UNL     1       9.473   0.434  -1.096  1.00  0.00     0.303 C 
ATOM      3  O   UNL     1       9.557  -0.338  -0.129  1.00  0.00    -0.252 OA
BRANCH   2   4
ATOM      4  O   UNL     1      10.495   1.329  -1.347  1.00  0.00    -0.481 OA
ATOM      5  H   UNL     1      10.320   2.281  -1.658  1.00  0.00     0.296 HD
ENDBRANCH   2   4
ENDBRANCH   1   2
BRANCH   1   6
ATOM      6  C   UNL     1       7.216  -0.486  -1.416  1.00  0.00     0.047 C 
BRANCH   6   7
ATOM      7  C   UNL     1       6.380   0.193  -0.408  1.00  0.00    -0.047 A 
ATOM      8  C   UNL     1       5.786   1.415  -0.593  1.00  0.00     0.004 A 
ATOM      9  C   UNL     1       6.188  -0.445   0.795  1.00  0.00     0.004 A 
ATOM     10  C   UNL     1       5.019   1.979   0.408  1.00  0.00     0.000 A 
ATOM     11  C   UNL     1       5.435   0.095   1.796  1.00  0.00     0.000 A 
ATOM     12  C   UNL     1       4.837   1.323   1.609  1.00  0.00     0.000 A 
ENDBRANCH   6   7
ENDBRANCH   1   6
TORSDOF 4
ENDMDL
