@<TRIPOS>MOLECULE
/home/cewinharhar/GITHUB/reincatalyze/data/processed/docking_pred/2023-Apr-25-1630_maxeplen5_maxtrainstep200_exh32_gamma099_lrac3e-4_lrcr1e-3/955e59fc22a1e87e2ab10a68f3a5c98643a236a4_ligand_2.pdbqt
 12 12 0 0 0
SMALL
GASTEIGER

@<TRIPOS>ATOM
      1  C          8.2310   -1.6720    1.1090 C.3     1  UNL1        0.1270
      2  C          8.5550   -2.8920    0.3330 C.2     1  UNL1        0.3030
      3  O          9.2210   -3.8090    0.8400 O.2     1  UNL1       -0.2520
      4  O          8.1110   -3.0110   -0.9700 O.3     1  UNL1       -0.4810
      5  H          8.7450   -2.9910   -1.7630 H       1  UNL1        0.2960
      6  C          6.7430   -1.5650    1.3310 C.3     1  UNL1        0.0470
      7  C          6.1830   -0.2860    0.8530 C.2     1  UNL1       -0.0470
      8  C          5.4190    0.5560    1.6190 C.2     1  UNL1        0.0040
      9  C          6.4480    0.0800   -0.4450 C.2     1  UNL1        0.0040
     10  C          4.9340    1.7360    1.0890 C.2     1  UNL1        0.0000
     11  C          5.9790    1.2400   -0.9870 C.2     1  UNL1        0.0000
     12  C          5.2100    2.0870   -0.2170 C.2     1  UNL1        0.0000
@<TRIPOS>BOND
     1     5     4    1
     2    11     9    1
     3    11    12    2
     4     4     2    1
     5     9     7    2
     6    12    10    1
     7     2     3    2
     8     2     1    1
     9     7     6    1
    10     7     8    1
    11    10     8    2
    12     1     6    1
