@<TRIPOS>MOLECULE
/home/cewinharhar/GITHUB/reincatalyze/data/processed/docking_pred/2023-Apr-25-1630_maxeplen5_maxtrainstep200_exh32_gamma099_lrac3e-4_lrcr1e-3/955e59fc22a1e87e2ab10a68f3a5c98643a236a4_ligand_2.pdbqt
 12 12 0 0 0
SMALL
GASTEIGER

@<TRIPOS>ATOM
      1  C          5.0540    1.6740    0.6950 C.3     1  UNL1        0.1270
      2  C          4.5920    1.0250    1.9440 C.2     1  UNL1        0.3030
      3  O          5.3030    0.1910    2.5270 O.2     1  UNL1       -0.2520
      4  O          3.3550    1.3510    2.4660 O.3     1  UNL1       -0.4810
      5  H          3.2420    1.7190    3.4060 H       1  UNL1        0.2960
      6  C          6.5550    1.8300    0.7020 C.3     1  UNL1        0.0470
      7  C          7.2170    1.0440   -0.3560 C.2     1  UNL1       -0.0470
      8  C          8.5400    1.1690   -0.6970 C.2     1  UNL1        0.0040
      9  C          6.4550    0.1280   -1.0410 C.2     1  UNL1        0.0040
     10  C          9.0780    0.3900   -1.7030 C.2     1  UNL1        0.0000
     11  C          6.9670   -0.6490   -2.0380 C.2     1  UNL1        0.0000
     12  C          8.2960   -0.5240   -2.3810 C.2     1  UNL1        0.0000
@<TRIPOS>BOND
     1    12    11    2
     2    12    10    1
     3    11     9    1
     4    10     8    2
     5     9     7    2
     6     8     7    1
     7     7     6    1
     8     1     6    1
     9     1     2    1
    10     2     4    1
    11     2     3    2
    12     4     5    1
