@<TRIPOS>MOLECULE
/home/cewinharhar/GITHUB/reincatalyze/data/processed/docking_pred/2023-Apr-25-1630_maxeplen5_maxtrainstep200_exh32_gamma099_lrac3e-4_lrcr1e-3/955e59fc22a1e87e2ab10a68f3a5c98643a236a4_ligand_2.pdbqt
 12 12 0 0 0
SMALL
GASTEIGER

@<TRIPOS>ATOM
      1  C          8.3620   -1.0920   -1.6580 C.3     1  UNL1        0.1270
      2  C          8.3570   -2.0610   -2.7800 C.2     1  UNL1        0.3030
      3  O          7.2900   -2.4380   -3.2890 O.2     1  UNL1       -0.2520
      4  O          9.5550   -2.5500   -3.2640 O.3     1  UNL1       -0.4810
      5  H          9.8120   -2.4840   -4.2450 H       1  UNL1        0.2960
      6  C          7.3500   -1.4870   -0.6120 C.3     1  UNL1        0.0470
      7  C          6.5480   -0.3460   -0.1310 C.2     1  UNL1       -0.0470
      8  C          6.2410    0.7550   -0.8890 C.2     1  UNL1        0.0040
      9  C          6.0810   -0.3940    1.1610 C.2     1  UNL1        0.0040
     10  C          5.4840    1.7810   -0.3570 C.2     1  UNL1        0.0000
     11  C          5.3320    0.6070    1.7050 C.2     1  UNL1        0.0000
     12  C          5.0230    1.7140    0.9430 C.2     1  UNL1        0.0000
@<TRIPOS>BOND
     1     5     4    1
     2     3     2    2
     3     4     2    1
     4     2     1    1
     5     1     6    1
     6     8    10    1
     7     8     7    2
     8     6     7    1
     9    10    12    2
    10     7     9    1
    11    12    11    1
    12     9    11    2
