MODEL 1
REMARK VINA RESULT:      -7.3      0.000      0.000
REMARK SMILES O=C(O)CCc1ccccc1
REMARK SMILES IDX 4 1 2 2 1 3 3 4 5 6 6 7 7 8 11 9 8 10 10 11 9 12
REMARK H PARENT 3 5
REMARK Flexibility Score: inf
ROOT
ATOM      1  C   UNL     1       8.410  -0.659  -2.116  1.00  0.00     0.127 C 
ENDROOT
BRANCH   1   2
ATOM      2  C   UNL     1       8.473  -1.914  -2.901  1.00  0.00     0.303 C 
ATOM      3  O   UNL     1       9.554  -2.492  -3.091  1.00  0.00    -0.252 OA
BRANCH   2   4
ATOM      4  O   UNL     1       7.312  -2.447  -3.429  1.00  0.00    -0.481 OA
ATOM      5  H   UNL     1       7.021  -2.273  -4.387  1.00  0.00     0.296 HD
ENDBRANCH   2   4
ENDBRANCH   1   2
BRANCH   1   6
ATOM      6  C   UNL     1       7.013  -0.092  -2.133  1.00  0.00     0.047 C 
BRANCH   6   7
ATOM      7  C   UNL     1       6.455   0.098  -0.780  1.00  0.00    -0.047 A 
ATOM      8  C   UNL     1       5.813   1.235  -0.362  1.00  0.00     0.004 A 
ATOM      9  C   UNL     1       6.591  -0.936   0.115  1.00  0.00     0.004 A 
ATOM     10  C   UNL     1       5.322   1.327   0.926  1.00  0.00     0.000 A 
ATOM     11  C   UNL     1       6.113  -0.866   1.391  1.00  0.00     0.000 A 
ATOM     12  C   UNL     1       5.468   0.278   1.811  1.00  0.00     0.000 A 
ENDBRANCH   6   7
ENDBRANCH   1   6
TORSDOF 4
ENDMDL
MODEL 2
REMARK VINA RESULT:      -7.3      0.093      1.429
REMARK SMILES O=C(O)CCc1ccccc1
REMARK SMILES IDX 4 1 2 2 1 3 3 4 5 6 6 7 7 8 11 9 8 10 10 11 9 12
REMARK H PARENT 3 5
REMARK Flexibility Score: inf
ROOT
ATOM      1  C   UNL     1       8.449  -0.575  -2.227  1.00  0.00     0.127 C 
ENDROOT
BRANCH   1   2
ATOM      2  C   UNL     1       8.496  -1.880  -2.928  1.00  0.00     0.303 C 
ATOM      3  O   UNL     1       9.571  -2.481  -3.080  1.00  0.00    -0.252 OA
BRANCH   2   4
ATOM      4  O   UNL     1       7.329  -2.433  -3.420  1.00  0.00    -0.481 OA
ATOM      5  H   UNL     1       7.144  -2.515  -4.415  1.00  0.00     0.296 HD
ENDBRANCH   2   4
ENDBRANCH   1   2
BRANCH   1   6
ATOM      6  C   UNL     1       7.036  -0.050  -2.179  1.00  0.00     0.047 C 
BRANCH   6   7
ATOM      7  C   UNL     1       6.506   0.043  -0.804  1.00  0.00    -0.047 A 
ATOM      8  C   UNL     1       6.613  -0.953   0.132  1.00  0.00     0.004 A 
ATOM      9  C   UNL     1       5.864   1.204  -0.446  1.00  0.00     0.004 A 
ATOM     10  C   UNL     1       6.085  -0.781   1.398  1.00  0.00     0.000 A 
ATOM     11  C   UNL     1       5.337   1.393   0.797  1.00  0.00     0.000 A 
ATOM     12  C   UNL     1       5.444   0.393   1.740  1.00  0.00     0.000 A 
ENDBRANCH   6   7
ENDBRANCH   1   6
TORSDOF 4
ENDMDL
MODEL 3
REMARK VINA RESULT:      -7.0      0.696      1.531
REMARK SMILES O=C(O)CCc1ccccc1
REMARK SMILES IDX 4 1 2 2 1 3 3 4 5 6 6 7 7 8 11 9 8 10 10 11 9 12
REMARK H PARENT 3 5
REMARK Flexibility Score: inf
ROOT
ATOM      1  C   UNL     1       8.362  -1.092  -1.658  1.00  0.00     0.127 C 
ENDROOT
BRANCH   1   2
ATOM      2  C   UNL     1       8.357  -2.061  -2.780  1.00  0.00     0.303 C 
ATOM      3  O   UNL     1       7.290  -2.438  -3.289  1.00  0.00    -0.252 OA
BRANCH   2   4
ATOM      4  O   UNL     1       9.555  -2.550  -3.264  1.00  0.00    -0.481 OA
ATOM      5  H   UNL     1       9.812  -2.484  -4.245  1.00  0.00     0.296 HD
ENDBRANCH   2   4
ENDBRANCH   1   2
BRANCH   1   6
ATOM      6  C   UNL     1       7.350  -1.487  -0.612  1.00  0.00     0.047 C 
BRANCH   6   7
ATOM      7  C   UNL     1       6.548  -0.346  -0.131  1.00  0.00    -0.047 A 
ATOM      8  C   UNL     1       6.241   0.755  -0.889  1.00  0.00     0.004 A 
ATOM      9  C   UNL     1       6.081  -0.394   1.161  1.00  0.00     0.004 A 
ATOM     10  C   UNL     1       5.484   1.781  -0.357  1.00  0.00     0.000 A 
ATOM     11  C   UNL     1       5.332   0.607   1.705  1.00  0.00     0.000 A 
ATOM     12  C   UNL     1       5.023   1.714   0.943  1.00  0.00     0.000 A 
ENDBRANCH   6   7
ENDBRANCH   1   6
TORSDOF 4
ENDMDL
MODEL 4
REMARK VINA RESULT:      -6.7      3.357      5.025
REMARK SMILES O=C(O)CCc1ccccc1
REMARK SMILES IDX 4 1 2 2 1 3 3 4 5 6 6 7 7 8 11 9 8 10 10 11 9 12
REMARK H PARENT 3 5
REMARK Flexibility Score: inf
ROOT
ATOM      1  C   UNL     1       5.054   1.674   0.695  1.00  0.00     0.127 C 
ENDROOT
BRANCH   1   2
ATOM      2  C   UNL     1       4.592   1.025   1.944  1.00  0.00     0.303 C 
ATOM      3  O   UNL     1       5.303   0.191   2.527  1.00  0.00    -0.252 OA
BRANCH   2   4
ATOM      4  O   UNL     1       3.355   1.351   2.466  1.00  0.00    -0.481 OA
ATOM      5  H   UNL     1       3.242   1.719   3.406  1.00  0.00     0.296 HD
ENDBRANCH   2   4
ENDBRANCH   1   2
BRANCH   1   6
ATOM      6  C   UNL     1       6.555   1.830   0.702  1.00  0.00     0.047 C 
BRANCH   6   7
ATOM      7  C   UNL     1       7.217   1.044  -0.356  1.00  0.00    -0.047 A 
ATOM      8  C   UNL     1       8.540   1.169  -0.697  1.00  0.00     0.004 A 
ATOM      9  C   UNL     1       6.455   0.128  -1.041  1.00  0.00     0.004 A 
ATOM     10  C   UNL     1       9.078   0.390  -1.703  1.00  0.00     0.000 A 
ATOM     11  C   UNL     1       6.967  -0.649  -2.038  1.00  0.00     0.000 A 
ATOM     12  C   UNL     1       8.296  -0.524  -2.381  1.00  0.00     0.000 A 
ENDBRANCH   6   7
ENDBRANCH   1   6
TORSDOF 4
ENDMDL
MODEL 5
REMARK VINA RESULT:      -6.5      1.900      2.831
REMARK SMILES O=C(O)CCc1ccccc1
REMARK SMILES IDX 4 1 2 2 1 3 3 4 5 6 6 7 7 8 11 9 8 10 10 11 9 12
REMARK H PARENT 3 5
REMARK Flexibility Score: inf
ROOT
ATOM      1  C   UNL     1       8.231  -1.672   1.109  1.00  0.00     0.127 C 
ENDROOT
BRANCH   1   2
ATOM      2  C   UNL     1       8.555  -2.892   0.333  1.00  0.00     0.303 C 
ATOM      3  O   UNL     1       9.221  -3.809   0.840  1.00  0.00    -0.252 OA
BRANCH   2   4
ATOM      4  O   UNL     1       8.111  -3.011  -0.970  1.00  0.00    -0.481 OA
ATOM      5  H   UNL     1       8.745  -2.991  -1.763  1.00  0.00     0.296 HD
ENDBRANCH   2   4
ENDBRANCH   1   2
BRANCH   1   6
ATOM      6  C   UNL     1       6.743  -1.565   1.331  1.00  0.00     0.047 C 
BRANCH   6   7
ATOM      7  C   UNL     1       6.183  -0.286   0.853  1.00  0.00    -0.047 A 
ATOM      8  C   UNL     1       5.419   0.556   1.619  1.00  0.00     0.004 A 
ATOM      9  C   UNL     1       6.448   0.080  -0.445  1.00  0.00     0.004 A 
ATOM     10  C   UNL     1       4.934   1.736   1.089  1.00  0.00     0.000 A 
ATOM     11  C   UNL     1       5.979   1.240  -0.987  1.00  0.00     0.000 A 
ATOM     12  C   UNL     1       5.210   2.087  -0.217  1.00  0.00     0.000 A 
ENDBRANCH   6   7
ENDBRANCH   1   6
TORSDOF 4
ENDMDL
