@<TRIPOS>MOLECULE
/home/cewinharhar/GITHUB/reincatalyze/data/processed/docking_pred/2023-Apr-25-1630_maxeplen5_maxtrainstep200_exh32_gamma099_lrac3e-4_lrcr1e-3/955e59fc22a1e87e2ab10a68f3a5c98643a236a4_ligand_2.pdbqt
 12 12 0 0 0
SMALL
GASTEIGER

@<TRIPOS>ATOM
      1  C          8.4100   -0.6590   -2.1160 C.3     1  UNL1        0.1270
      2  C          8.4730   -1.9140   -2.9010 C.2     1  UNL1        0.3030
      3  O          9.5540   -2.4920   -3.0910 O.2     1  UNL1       -0.2520
      4  O          7.3120   -2.4470   -3.4290 O.3     1  UNL1       -0.4810
      5  H          7.0210   -2.2730   -4.3870 H       1  UNL1        0.2960
      6  C          7.0130   -0.0920   -2.1330 C.3     1  UNL1        0.0470
      7  C          6.4550    0.0980   -0.7800 C.2     1  UNL1       -0.0470
      8  C          5.8130    1.2350   -0.3620 C.2     1  UNL1        0.0040
      9  C          6.5910   -0.9360    0.1150 C.2     1  UNL1        0.0040
     10  C          5.3220    1.3270    0.9260 C.2     1  UNL1        0.0000
     11  C          6.1130   -0.8660    1.3910 C.2     1  UNL1        0.0000
     12  C          5.4680    0.2780    1.8110 C.2     1  UNL1        0.0000
@<TRIPOS>BOND
     1     5     4    1
     2     4     2    1
     3     3     2    2
     4     2     1    1
     5     6     1    1
     6     6     7    1
     7     7     8    2
     8     7     9    1
     9     8    10    1
    10     9    11    2
    11    10    12    2
    12    11    12    1
