@<TRIPOS>MOLECULE
/home/cewinharhar/GITHUB/reincatalyze/data/processed/docking_pred/2023-Apr-25-1630_maxeplen5_maxtrainstep200_exh32_gamma099_lrac3e-4_lrcr1e-3/97b80f67ae9ab19215981068b7c743dd8d1e9d0d_ligand_2.pdbqt
 12 12 0 0 0
SMALL
GASTEIGER

@<TRIPOS>ATOM
      1  C          8.4130   -0.6450   -2.1150 C.3     1  UNL1        0.1270
      2  C          8.4640   -1.9030   -2.8980 C.2     1  UNL1        0.3030
      3  O          9.5420   -2.4870   -3.0920 O.2     1  UNL1       -0.2520
      4  O          7.2980   -2.4300   -3.4180 O.3     1  UNL1       -0.4810
      5  H          6.8730   -3.2770   -3.0500 H       1  UNL1        0.2960
      6  C          7.0170   -0.0750   -2.1180 C.3     1  UNL1        0.0470
      7  C          6.4640    0.0920   -0.7600 C.2     1  UNL1       -0.0470
      8  C          5.8310    1.2250   -0.3190 C.2     1  UNL1        0.0040
      9  C          6.5970   -0.9590    0.1160 C.2     1  UNL1        0.0040
     10  C          5.3440    1.2960    0.9720 C.2     1  UNL1        0.0000
     11  C          6.1240   -0.9090    1.3940 C.2     1  UNL1        0.0000
     12  C          5.4870    0.2300    1.8380 C.2     1  UNL1        0.0000
@<TRIPOS>BOND
     1     4     5    1
     2     4     2    1
     3     3     2    2
     4     2     1    1
     5     6     1    1
     6     6     7    1
     7     7     8    2
     8     7     9    1
     9     8    10    1
    10     9    11    2
    11    10    12    2
    12    11    12    1
