@<TRIPOS>MOLECULE
/home/cewinharhar/GITHUB/reincatalyze/data/processed/docking_pred/2023-Apr-25-1630_maxeplen5_maxtrainstep200_exh32_gamma099_lrac3e-4_lrcr1e-3/97b80f67ae9ab19215981068b7c743dd8d1e9d0d_ligand_2.pdbqt
 12 12 0 0 0
SMALL
GASTEIGER

@<TRIPOS>ATOM
      1  C          8.5120    0.6930   -1.6310 C.3     1  UNL1        0.1270
      2  C          9.6640    0.2850   -0.7920 C.2     1  UNL1        0.3030
      3  O          9.5130   -0.5040    0.1530 O.2     1  UNL1       -0.2520
      4  O         10.9200    0.7910   -1.0660 O.3     1  UNL1       -0.4810
      5  H         11.7500    0.2050   -1.0850 H       1  UNL1        0.2960
      6  C          7.3290   -0.2100   -1.3820 C.3     1  UNL1        0.0470
      7  C          6.4340    0.2990   -0.3240 C.2     1  UNL1       -0.0470
      8  C          6.1740   -0.3600    0.8500 C.2     1  UNL1        0.0040
      9  C          5.8230    1.5120   -0.5360 C.2     1  UNL1        0.0040
     10  C          5.3200    0.1910    1.7860 C.2     1  UNL1        0.0000
     11  C          4.9760    2.0720    0.3750 C.2     1  UNL1        0.0000
     12  C          4.7150    1.4100    1.5550 C.2     1  UNL1        0.0000
@<TRIPOS>BOND
     1     1     6    1
     2     1     2    1
     3     6     7    1
     4     5     4    1
     5     4     2    1
     6     2     3    2
     7     9     7    2
     8     9    11    1
     9     7     8    1
    10    11    12    2
    11     8    10    2
    12    12    10    1
