MODEL 1
REMARK VINA RESULT:      -7.3      0.000      0.000
REMARK SMILES O=C(O)CCc1ccccc1
REMARK SMILES IDX 4 1 2 2 1 3 3 4 5 6 6 7 7 8 11 9 8 10 10 11 9 12
REMARK H PARENT 3 5
REMARK Flexibility Score: inf
ROOT
ATOM      1  C   UNL     1       8.413  -0.645  -2.115  1.00  0.00     0.127 C 
ENDROOT
BRANCH   1   2
ATOM      2  C   UNL     1       8.464  -1.903  -2.898  1.00  0.00     0.303 C 
ATOM      3  O   UNL     1       9.542  -2.487  -3.092  1.00  0.00    -0.252 OA
BRANCH   2   4
ATOM      4  O   UNL     1       7.298  -2.430  -3.418  1.00  0.00    -0.481 OA
ATOM      5  H   UNL     1       6.873  -3.277  -3.050  1.00  0.00     0.296 HD
ENDBRANCH   2   4
ENDBRANCH   1   2
BRANCH   1   6
ATOM      6  C   UNL     1       7.017  -0.075  -2.118  1.00  0.00     0.047 C 
BRANCH   6   7
ATOM      7  C   UNL     1       6.464   0.092  -0.760  1.00  0.00    -0.047 A 
ATOM      8  C   UNL     1       5.831   1.225  -0.319  1.00  0.00     0.004 A 
ATOM      9  C   UNL     1       6.597  -0.959   0.116  1.00  0.00     0.004 A 
ATOM     10  C   UNL     1       5.344   1.296   0.972  1.00  0.00     0.000 A 
ATOM     11  C   UNL     1       6.124  -0.909   1.394  1.00  0.00     0.000 A 
ATOM     12  C   UNL     1       5.487   0.230   1.838  1.00  0.00     0.000 A 
ENDBRANCH   6   7
ENDBRANCH   1   6
TORSDOF 4
ENDMDL
MODEL 2
REMARK VINA RESULT:      -7.3      0.077      1.428
REMARK SMILES O=C(O)CCc1ccccc1
REMARK SMILES IDX 4 1 2 2 1 3 3 4 5 6 6 7 7 8 11 9 8 10 10 11 9 12
REMARK H PARENT 3 5
REMARK Flexibility Score: inf
ROOT
ATOM      1  C   UNL     1       8.438  -0.602  -2.192  1.00  0.00     0.127 C 
ENDROOT
BRANCH   1   2
ATOM      2  C   UNL     1       8.486  -1.899  -2.907  1.00  0.00     0.303 C 
ATOM      3  O   UNL     1       9.559  -2.505  -3.051  1.00  0.00    -0.252 OA
BRANCH   2   4
ATOM      4  O   UNL     1       7.322  -2.439  -3.420  1.00  0.00    -0.481 OA
ATOM      5  H   UNL     1       6.426  -2.343  -2.951  1.00  0.00     0.296 HD
ENDBRANCH   2   4
ENDBRANCH   1   2
BRANCH   1   6
ATOM      6  C   UNL     1       7.021  -0.088  -2.121  1.00  0.00     0.047 C 
BRANCH   6   7
ATOM      7  C   UNL     1       6.508  -0.012  -0.740  1.00  0.00    -0.047 A 
ATOM      8  C   UNL     1       6.631  -1.017   0.186  1.00  0.00     0.004 A 
ATOM      9  C   UNL     1       5.864   1.142  -0.362  1.00  0.00     0.004 A 
ATOM     10  C   UNL     1       6.118  -0.860   1.459  1.00  0.00     0.000 A 
ATOM     11  C   UNL     1       5.351   1.316   0.890  1.00  0.00     0.000 A 
ATOM     12  C   UNL     1       5.475   0.307   1.820  1.00  0.00     0.000 A 
ENDBRANCH   6   7
ENDBRANCH   1   6
TORSDOF 4
ENDMDL
MODEL 3
REMARK VINA RESULT:      -6.7      3.339      5.015
REMARK SMILES O=C(O)CCc1ccccc1
REMARK SMILES IDX 4 1 2 2 1 3 3 4 5 6 6 7 7 8 11 9 8 10 10 11 9 12
REMARK H PARENT 3 5
REMARK Flexibility Score: inf
ROOT
ATOM      1  C   UNL     1       5.044   1.654   0.689  1.00  0.00     0.127 C 
ENDROOT
BRANCH   1   2
ATOM      2  C   UNL     1       4.603   0.992   1.940  1.00  0.00     0.303 C 
ATOM      3  O   UNL     1       5.322   0.152   2.502  1.00  0.00    -0.252 OA
BRANCH   2   4
ATOM      4  O   UNL     1       3.375   1.314   2.486  1.00  0.00    -0.481 OA
ATOM      5  H   UNL     1       2.678   1.850   1.977  1.00  0.00     0.296 HD
ENDBRANCH   2   4
ENDBRANCH   1   2
BRANCH   1   6
ATOM      6  C   UNL     1       6.541   1.839   0.688  1.00  0.00     0.047 C 
BRANCH   6   7
ATOM      7  C   UNL     1       7.212   1.064  -0.373  1.00  0.00    -0.047 A 
ATOM      8  C   UNL     1       8.543   1.173  -0.684  1.00  0.00     0.004 A 
ATOM      9  C   UNL     1       6.449   0.177  -1.095  1.00  0.00     0.004 A 
ATOM     10  C   UNL     1       9.090   0.407  -1.696  1.00  0.00     0.000 A 
ATOM     11  C   UNL     1       6.969  -0.587  -2.098  1.00  0.00     0.000 A 
ATOM     12  C   UNL     1       8.307  -0.479  -2.410  1.00  0.00     0.000 A 
ENDBRANCH   6   7
ENDBRANCH   1   6
TORSDOF 4
ENDMDL
MODEL 4
REMARK VINA RESULT:      -6.7      3.815      4.908
REMARK SMILES O=C(O)CCc1ccccc1
REMARK SMILES IDX 4 1 2 2 1 3 3 4 5 6 6 7 7 8 11 9 8 10 10 11 9 12
REMARK H PARENT 3 5
REMARK Flexibility Score: inf
ROOT
ATOM      1  C   UNL     1       5.466   2.910   0.033  1.00  0.00     0.127 C 
ENDROOT
BRANCH   1   2
ATOM      2  C   UNL     1       6.275   3.863   0.828  1.00  0.00     0.303 C 
ATOM      3  O   UNL     1       6.912   4.772   0.274  1.00  0.00    -0.252 OA
BRANCH   2   4
ATOM      4  O   UNL     1       6.321   3.738   2.203  1.00  0.00    -0.481 OA
ATOM      5  H   UNL     1       6.875   4.358   2.787  1.00  0.00     0.296 HD
ENDBRANCH   2   4
ENDBRANCH   1   2
BRANCH   1   6
ATOM      6  C   UNL     1       4.913   1.818   0.916  1.00  0.00     0.047 C 
BRANCH   6   7
ATOM      7  C   UNL     1       5.731   0.591   0.888  1.00  0.00    -0.047 A 
ATOM      8  C   UNL     1       6.442   0.161  -0.203  1.00  0.00     0.004 A 
ATOM      9  C   UNL     1       5.779  -0.169   2.033  1.00  0.00     0.004 A 
ATOM     10  C   UNL     1       7.182  -1.004  -0.140  1.00  0.00     0.000 A 
ATOM     11  C   UNL     1       6.503  -1.322   2.115  1.00  0.00     0.000 A 
ATOM     12  C   UNL     1       7.219  -1.754   1.018  1.00  0.00     0.000 A 
ENDBRANCH   6   7
ENDBRANCH   1   6
TORSDOF 4
ENDMDL
MODEL 5
REMARK VINA RESULT:      -6.6      2.082      2.753
REMARK SMILES O=C(O)CCc1ccccc1
REMARK SMILES IDX 4 1 2 2 1 3 3 4 5 6 6 7 7 8 11 9 8 10 10 11 9 12
REMARK H PARENT 3 5
REMARK Flexibility Score: inf
ROOT
ATOM      1  C   UNL     1       8.512   0.693  -1.631  1.00  0.00     0.127 C 
ENDROOT
BRANCH   1   2
ATOM      2  C   UNL     1       9.664   0.285  -0.792  1.00  0.00     0.303 C 
ATOM      3  O   UNL     1       9.513  -0.504   0.153  1.00  0.00    -0.252 OA
BRANCH   2   4
ATOM      4  O   UNL     1      10.920   0.791  -1.066  1.00  0.00    -0.481 OA
ATOM      5  H   UNL     1      11.750   0.205  -1.085  1.00  0.00     0.296 HD
ENDBRANCH   2   4
ENDBRANCH   1   2
BRANCH   1   6
ATOM      6  C   UNL     1       7.329  -0.210  -1.382  1.00  0.00     0.047 C 
BRANCH   6   7
ATOM      7  C   UNL     1       6.434   0.299  -0.324  1.00  0.00    -0.047 A 
ATOM      8  C   UNL     1       6.174  -0.360   0.850  1.00  0.00     0.004 A 
ATOM      9  C   UNL     1       5.823   1.512  -0.536  1.00  0.00     0.004 A 
ATOM     10  C   UNL     1       5.320   0.191   1.786  1.00  0.00     0.000 A 
ATOM     11  C   UNL     1       4.976   2.072   0.375  1.00  0.00     0.000 A 
ATOM     12  C   UNL     1       4.715   1.410   1.555  1.00  0.00     0.000 A 
ENDBRANCH   6   7
ENDBRANCH   1   6
TORSDOF 4
ENDMDL
