@<TRIPOS>MOLECULE
/home/cewinharhar/GITHUB/reincatalyze/data/processed/docking_pred/2023-Apr-25-1630_maxeplen5_maxtrainstep200_exh32_gamma099_lrac3e-4_lrcr1e-3/97b80f67ae9ab19215981068b7c743dd8d1e9d0d_ligand_2.pdbqt
 12 12 0 0 0
SMALL
GASTEIGER

@<TRIPOS>ATOM
      1  C          8.4380   -0.6020   -2.1920 C.3     1  UNL1        0.1270
      2  C          8.4860   -1.8990   -2.9070 C.2     1  UNL1        0.3030
      3  O          9.5590   -2.5050   -3.0510 O.2     1  UNL1       -0.2520
      4  O          7.3220   -2.4390   -3.4200 O.3     1  UNL1       -0.4810
      5  H          6.4260   -2.3430   -2.9510 H       1  UNL1        0.2960
      6  C          7.0210   -0.0880   -2.1210 C.3     1  UNL1        0.0470
      7  C          6.5080   -0.0120   -0.7400 C.2     1  UNL1       -0.0470
      8  C          6.6310   -1.0170    0.1860 C.2     1  UNL1        0.0040
      9  C          5.8640    1.1420   -0.3620 C.2     1  UNL1        0.0040
     10  C          6.1180   -0.8600    1.4590 C.2     1  UNL1        0.0000
     11  C          5.3510    1.3160    0.8900 C.2     1  UNL1        0.0000
     12  C          5.4750    0.3070    1.8200 C.2     1  UNL1        0.0000
@<TRIPOS>BOND
     1     4     5    1
     2     4     2    1
     3     3     2    2
     4     2     1    1
     5     1     6    1
     6     6     7    1
     7     7     9    2
     8     7     8    1
     9     9    11    1
    10     8    10    2
    11    11    12    2
    12    10    12    1
