@<TRIPOS>MOLECULE
/home/cewinharhar/GITHUB/reincatalyze/data/processed/docking_pred/2023-Apr-25-1630_maxeplen5_maxtrainstep200_exh32_gamma099_lrac3e-4_lrcr1e-3/97b80f67ae9ab19215981068b7c743dd8d1e9d0d_ligand_2.pdbqt
 12 12 0 0 0
SMALL
GASTEIGER

@<TRIPOS>ATOM
      1  C          5.4660    2.9100    0.0330 C.3     1  UNL1        0.1270
      2  C          6.2750    3.8630    0.8280 C.2     1  UNL1        0.3030
      3  O          6.9120    4.7720    0.2740 O.2     1  UNL1       -0.2520
      4  O          6.3210    3.7380    2.2030 O.3     1  UNL1       -0.4810
      5  H          6.8750    4.3580    2.7870 H       1  UNL1        0.2960
      6  C          4.9130    1.8180    0.9160 C.3     1  UNL1        0.0470
      7  C          5.7310    0.5910    0.8880 C.2     1  UNL1       -0.0470
      8  C          6.4420    0.1610   -0.2030 C.2     1  UNL1        0.0040
      9  C          5.7790   -0.1690    2.0330 C.2     1  UNL1        0.0040
     10  C          7.1820   -1.0040   -0.1400 C.2     1  UNL1        0.0000
     11  C          6.5030   -1.3220    2.1150 C.2     1  UNL1        0.0000
     12  C          7.2190   -1.7540    1.0180 C.2     1  UNL1        0.0000
@<TRIPOS>BOND
     1     8    10    1
     2     8     7    2
     3    10    12    2
     4     1     2    1
     5     1     6    1
     6     3     2    2
     7     2     4    1
     8     7     6    1
     9     7     9    1
    10    12    11    1
    11     9    11    2
    12     4     5    1
