@<TRIPOS>MOLECULE
/home/cewinharhar/GITHUB/reincatalyze/data/processed/docking_pred/2023-Apr-25-1630_maxeplen5_maxtrainstep200_exh32_gamma099_lrac3e-4_lrcr1e-3/98ce2146f260201d1ebb2f82702d5d512d51d1e1_ligand_2.pdbqt
 12 12 0 0 0
SMALL
GASTEIGER

@<TRIPOS>ATOM
      1  C          8.4280   -0.6480   -2.1230 C.3     1  UNL1        0.1270
      2  C          8.4830   -1.9110   -2.8960 C.2     1  UNL1        0.3030
      3  O          9.5620   -2.4960   -3.0810 O.2     1  UNL1       -0.2520
      4  O          7.3200   -2.4430   -3.4180 O.3     1  UNL1       -0.4810
      5  H          6.4770   -1.8890   -3.5410 H       1  UNL1        0.2960
      6  C          7.0340   -0.0730   -2.1460 C.3     1  UNL1        0.0470
      7  C          6.4710    0.1170   -0.7950 C.2     1  UNL1       -0.0470
      8  C          5.8080    1.2450   -0.3860 C.2     1  UNL1        0.0040
      9  C          6.6260   -0.9070    0.1100 C.2     1  UNL1        0.0040
     10  C          5.3140    1.3380    0.9000 C.2     1  UNL1        0.0000
     11  C          6.1470   -0.8340    1.3840 C.2     1  UNL1        0.0000
     12  C          5.4790    0.3000    1.7950 C.2     1  UNL1        0.0000
@<TRIPOS>BOND
     1     5     4    1
     2     4     2    1
     3     3     2    2
     4     2     1    1
     5     6     1    1
     6     6     7    1
     7     7     8    2
     8     7     9    1
     9     8    10    1
    10     9    11    2
    11    10    12    2
    12    11    12    1
