MODEL 1
REMARK VINA RESULT:      -7.3      0.000      0.000
REMARK SMILES O=C(O)CCc1ccccc1
REMARK SMILES IDX 4 1 2 2 1 3 3 4 5 6 6 7 7 8 11 9 8 10 10 11 9 12
REMARK H PARENT 3 5
REMARK Flexibility Score: inf
ROOT
ATOM      1  C   UNL     1       8.428  -0.648  -2.123  1.00  0.00     0.127 C 
ENDROOT
BRANCH   1   2
ATOM      2  C   UNL     1       8.483  -1.911  -2.896  1.00  0.00     0.303 C 
ATOM      3  O   UNL     1       9.562  -2.496  -3.081  1.00  0.00    -0.252 OA
BRANCH   2   4
ATOM      4  O   UNL     1       7.320  -2.443  -3.418  1.00  0.00    -0.481 OA
ATOM      5  H   UNL     1       6.477  -1.889  -3.541  1.00  0.00     0.296 HD
ENDBRANCH   2   4
ENDBRANCH   1   2
BRANCH   1   6
ATOM      6  C   UNL     1       7.034  -0.073  -2.146  1.00  0.00     0.047 C 
BRANCH   6   7
ATOM      7  C   UNL     1       6.471   0.117  -0.795  1.00  0.00    -0.047 A 
ATOM      8  C   UNL     1       5.808   1.245  -0.386  1.00  0.00     0.004 A 
ATOM      9  C   UNL     1       6.626  -0.907   0.110  1.00  0.00     0.004 A 
ATOM     10  C   UNL     1       5.314   1.338   0.900  1.00  0.00     0.000 A 
ATOM     11  C   UNL     1       6.147  -0.834   1.384  1.00  0.00     0.000 A 
ATOM     12  C   UNL     1       5.479   0.300   1.795  1.00  0.00     0.000 A 
ENDBRANCH   6   7
ENDBRANCH   1   6
TORSDOF 4
ENDMDL
MODEL 2
REMARK VINA RESULT:      -7.3      0.122      1.724
REMARK SMILES O=C(O)CCc1ccccc1
REMARK SMILES IDX 4 1 2 2 1 3 3 4 5 6 6 7 7 8 11 9 8 10 10 11 9 12
REMARK H PARENT 3 5
REMARK Flexibility Score: inf
ROOT
ATOM      1  C   UNL     1       8.426  -0.657  -2.120  1.00  0.00     0.127 C 
ENDROOT
BRANCH   1   2
ATOM      2  C   UNL     1       8.385  -1.919  -2.896  1.00  0.00     0.303 C 
ATOM      3  O   UNL     1       7.303  -2.422  -3.234  1.00  0.00    -0.252 OA
BRANCH   2   4
ATOM      4  O   UNL     1       9.567  -2.542  -3.248  1.00  0.00    -0.481 OA
ATOM      5  H   UNL     1      10.367  -2.583  -2.622  1.00  0.00     0.296 HD
ENDBRANCH   2   4
ENDBRANCH   1   2
BRANCH   1   6
ATOM      6  C   UNL     1       7.065  -0.008  -2.092  1.00  0.00     0.047 C 
BRANCH   6   7
ATOM      7  C   UNL     1       6.500   0.078  -0.732  1.00  0.00    -0.047 A 
ATOM      8  C   UNL     1       6.595  -0.916   0.208  1.00  0.00     0.004 A 
ATOM      9  C   UNL     1       5.834   1.231  -0.390  1.00  0.00     0.004 A 
ATOM     10  C   UNL     1       6.033  -0.751   1.460  1.00  0.00     0.000 A 
ATOM     11  C   UNL     1       5.272   1.414   0.839  1.00  0.00     0.000 A 
ATOM     12  C   UNL     1       5.368   0.415   1.785  1.00  0.00     0.000 A 
ENDBRANCH   6   7
ENDBRANCH   1   6
TORSDOF 4
ENDMDL
MODEL 3
REMARK VINA RESULT:      -6.7      3.343      5.017
REMARK SMILES O=C(O)CCc1ccccc1
REMARK SMILES IDX 4 1 2 2 1 3 3 4 5 6 6 7 7 8 11 9 8 10 10 11 9 12
REMARK H PARENT 3 5
REMARK Flexibility Score: inf
ROOT
ATOM      1  C   UNL     1       5.052   1.631   0.699  1.00  0.00     0.127 C 
ENDROOT
BRANCH   1   2
ATOM      2  C   UNL     1       4.599   0.976   1.949  1.00  0.00     0.303 C 
ATOM      3  O   UNL     1       5.309   0.133   2.517  1.00  0.00    -0.252 OA
BRANCH   2   4
ATOM      4  O   UNL     1       3.371   1.309   2.488  1.00  0.00    -0.481 OA
ATOM      5  H   UNL     1       2.732   1.952   2.028  1.00  0.00     0.296 HD
ENDBRANCH   2   4
ENDBRANCH   1   2
BRANCH   1   6
ATOM      6  C   UNL     1       6.550   1.805   0.704  1.00  0.00     0.047 C 
BRANCH   6   7
ATOM      7  C   UNL     1       7.218   1.043  -0.368  1.00  0.00    -0.047 A 
ATOM      8  C   UNL     1       8.537   1.190  -0.713  1.00  0.00     0.004 A 
ATOM      9  C   UNL     1       6.464   0.129  -1.065  1.00  0.00     0.004 A 
ATOM     10  C   UNL     1       9.081   0.434  -1.733  1.00  0.00     0.000 A 
ATOM     11  C   UNL     1       6.982  -0.627  -2.075  1.00  0.00     0.000 A 
ATOM     12  C   UNL     1       8.309  -0.480  -2.421  1.00  0.00     0.000 A 
ENDBRANCH   6   7
ENDBRANCH   1   6
TORSDOF 4
ENDMDL
MODEL 4
REMARK VINA RESULT:      -6.6      2.007      2.325
REMARK SMILES O=C(O)CCc1ccccc1
REMARK SMILES IDX 4 1 2 2 1 3 3 4 5 6 6 7 7 8 11 9 8 10 10 11 9 12
REMARK H PARENT 3 5
REMARK Flexibility Score: inf
ROOT
ATOM      1  C   UNL     1       8.324   0.393  -1.957  1.00  0.00     0.127 C 
ENDROOT
BRANCH   1   2
ATOM      2  C   UNL     1       9.496   0.416  -1.049  1.00  0.00     0.303 C 
ATOM      3  O   UNL     1       9.561  -0.352  -0.077  1.00  0.00    -0.252 OA
BRANCH   2   4
ATOM      4  O   UNL     1      10.527   1.304  -1.289  1.00  0.00    -0.481 OA
ATOM      5  H   UNL     1      10.362   2.255  -1.607  1.00  0.00     0.296 HD
ENDBRANCH   2   4
ENDBRANCH   1   2
BRANCH   1   6
ATOM      6  C   UNL     1       7.236  -0.488  -1.395  1.00  0.00     0.047 C 
BRANCH   6   7
ATOM      7  C   UNL     1       6.389   0.207  -0.407  1.00  0.00    -0.047 A 
ATOM      8  C   UNL     1       5.806   1.431  -0.615  1.00  0.00     0.004 A 
ATOM      9  C   UNL     1       6.175  -0.416   0.799  1.00  0.00     0.004 A 
ATOM     10  C   UNL     1       5.028   2.010   0.368  1.00  0.00     0.000 A 
ATOM     11  C   UNL     1       5.410   0.139   1.783  1.00  0.00     0.000 A 
ATOM     12  C   UNL     1       4.824   1.369   1.574  1.00  0.00     0.000 A 
ENDBRANCH   6   7
ENDBRANCH   1   6
TORSDOF 4
ENDMDL
MODEL 5
REMARK VINA RESULT:      -6.5      3.704      5.110
REMARK SMILES O=C(O)CCc1ccccc1
REMARK SMILES IDX 4 1 2 2 1 3 3 4 5 6 6 7 7 8 11 9 8 10 10 11 9 12
REMARK H PARENT 3 5
REMARK Flexibility Score: inf
ROOT
ATOM      1  C   UNL     1       5.328   2.867   0.147  1.00  0.00     0.127 C 
ENDROOT
BRANCH   1   2
ATOM      2  C   UNL     1       6.186   3.808   0.906  1.00  0.00     0.303 C 
ATOM      3  O   UNL     1       6.265   3.738   2.142  1.00  0.00    -0.252 OA
BRANCH   2   4
ATOM      4  O   UNL     1       6.904   4.774   0.229  1.00  0.00    -0.481 OA
ATOM      5  H   UNL     1       6.777   5.767   0.403  1.00  0.00     0.296 HD
ENDBRANCH   2   4
ENDBRANCH   1   2
BRANCH   1   6
ATOM      6  C   UNL     1       5.213   1.550   0.874  1.00  0.00     0.047 C 
BRANCH   6   7
ATOM      7  C   UNL     1       5.998   0.475   0.238  1.00  0.00    -0.047 A 
ATOM      8  C   UNL     1       6.477  -0.626   0.900  1.00  0.00     0.004 A 
ATOM      9  C   UNL     1       6.265   0.590  -1.106  1.00  0.00     0.004 A 
ATOM     10  C   UNL     1       7.205  -1.586   0.224  1.00  0.00     0.000 A 
ATOM     11  C   UNL     1       6.982  -0.346  -1.791  1.00  0.00     0.000 A 
ATOM     12  C   UNL     1       7.463  -1.453  -1.126  1.00  0.00     0.000 A 
ENDBRANCH   6   7
ENDBRANCH   1   6
TORSDOF 4
ENDMDL
