@<TRIPOS>MOLECULE
/home/cewinharhar/GITHUB/reincatalyze/data/processed/docking_pred/2023-Apr-25-1630_maxeplen5_maxtrainstep200_exh32_gamma099_lrac3e-4_lrcr1e-3/98ce2146f260201d1ebb2f82702d5d512d51d1e1_ligand_2.pdbqt
 12 12 0 0 0
SMALL
GASTEIGER

@<TRIPOS>ATOM
      1  C          8.3240    0.3930   -1.9570 C.3     1  UNL1        0.1270
      2  C          9.4960    0.4160   -1.0490 C.2     1  UNL1        0.3030
      3  O          9.5610   -0.3520   -0.0770 O.2     1  UNL1       -0.2520
      4  O         10.5270    1.3040   -1.2890 O.3     1  UNL1       -0.4810
      5  H         10.3620    2.2550   -1.6070 H       1  UNL1        0.2960
      6  C          7.2360   -0.4880   -1.3950 C.3     1  UNL1        0.0470
      7  C          6.3890    0.2070   -0.4070 C.2     1  UNL1       -0.0470
      8  C          5.8060    1.4310   -0.6150 C.2     1  UNL1        0.0040
      9  C          6.1750   -0.4160    0.7990 C.2     1  UNL1        0.0040
     10  C          5.0280    2.0100    0.3680 C.2     1  UNL1        0.0000
     11  C          5.4100    0.1390    1.7830 C.2     1  UNL1        0.0000
     12  C          4.8240    1.3690    1.5740 C.2     1  UNL1        0.0000
@<TRIPOS>BOND
     1     1     6    1
     2     1     2    1
     3     5     4    1
     4     6     7    1
     5     4     2    1
     6     2     3    2
     7     8     7    2
     8     8    10    1
     9     7     9    1
    10    10    12    2
    11     9    11    2
    12    12    11    1
