@<TRIPOS>MOLECULE
/home/cewinharhar/GITHUB/reincatalyze/data/processed/docking_pred/2023-Apr-25-1630_maxeplen5_maxtrainstep200_exh32_gamma099_lrac3e-4_lrcr1e-3/98ce2146f260201d1ebb2f82702d5d512d51d1e1_ligand_2.pdbqt
 12 12 0 0 0
SMALL
GASTEIGER

@<TRIPOS>ATOM
      1  C          5.3280    2.8670    0.1470 C.3     1  UNL1        0.1270
      2  C          6.1860    3.8080    0.9060 C.2     1  UNL1        0.3030
      3  O          6.2650    3.7380    2.1420 O.2     1  UNL1       -0.2520
      4  O          6.9040    4.7740    0.2290 O.3     1  UNL1       -0.4810
      5  H          6.7770    5.7670    0.4030 H       1  UNL1        0.2960
      6  C          5.2130    1.5500    0.8740 C.3     1  UNL1        0.0470
      7  C          5.9980    0.4750    0.2380 C.2     1  UNL1       -0.0470
      8  C          6.4770   -0.6260    0.9000 C.2     1  UNL1        0.0040
      9  C          6.2650    0.5900   -1.1060 C.2     1  UNL1        0.0040
     10  C          7.2050   -1.5860    0.2240 C.2     1  UNL1        0.0000
     11  C          6.9820   -0.3460   -1.7910 C.2     1  UNL1        0.0000
     12  C          7.4630   -1.4530   -1.1260 C.2     1  UNL1        0.0000
@<TRIPOS>BOND
     1    11    12    2
     2    11     9    1
     3    12    10    1
     4     9     7    2
     5     1     6    1
     6     1     2    1
     7    10     8    2
     8     4     5    1
     9     4     2    1
    10     7     6    1
    11     7     8    1
    12     2     3    2
