@<TRIPOS>MOLECULE
/home/cewinharhar/GITHUB/reincatalyze/data/processed/docking_pred/2023-Apr-25-1630_maxeplen5_maxtrainstep200_exh32_gamma099_lrac3e-4_lrcr1e-3/98ce2146f260201d1ebb2f82702d5d512d51d1e1_ligand_2.pdbqt
 12 12 0 0 0
SMALL
GASTEIGER

@<TRIPOS>ATOM
      1  C          8.4260   -0.6570   -2.1200 C.3     1  UNL1        0.1270
      2  C          8.3850   -1.9190   -2.8960 C.2     1  UNL1        0.3030
      3  O          7.3030   -2.4220   -3.2340 O.2     1  UNL1       -0.2520
      4  O          9.5670   -2.5420   -3.2480 O.3     1  UNL1       -0.4810
      5  H         10.3670   -2.5830   -2.6220 H       1  UNL1        0.2960
      6  C          7.0650   -0.0080   -2.0920 C.3     1  UNL1        0.0470
      7  C          6.5000    0.0780   -0.7320 C.2     1  UNL1       -0.0470
      8  C          6.5950   -0.9160    0.2080 C.2     1  UNL1        0.0040
      9  C          5.8340    1.2310   -0.3900 C.2     1  UNL1        0.0040
     10  C          6.0330   -0.7510    1.4600 C.2     1  UNL1        0.0000
     11  C          5.2720    1.4140    0.8390 C.2     1  UNL1        0.0000
     12  C          5.3680    0.4150    1.7850 C.2     1  UNL1        0.0000
@<TRIPOS>BOND
     1     4     2    1
     2     4     5    1
     3     3     2    2
     4     2     1    1
     5     1     6    1
     6     6     7    1
     7     7     9    2
     8     7     8    1
     9     9    11    1
    10     8    10    2
    11    11    12    2
    12    10    12    1
