@<TRIPOS>MOLECULE
/home/cewinharhar/GITHUB/reincatalyze/data/processed/docking_pred/2023-Apr-25-1630_maxeplen5_maxtrainstep200_exh32_gamma099_lrac3e-4_lrcr1e-3/98ce2146f260201d1ebb2f82702d5d512d51d1e1_ligand_2.pdbqt
 12 12 0 0 0
SMALL
GASTEIGER

@<TRIPOS>ATOM
      1  C          5.0520    1.6310    0.6990 C.3     1  UNL1        0.1270
      2  C          4.5990    0.9760    1.9490 C.2     1  UNL1        0.3030
      3  O          5.3090    0.1330    2.5170 O.2     1  UNL1       -0.2520
      4  O          3.3710    1.3090    2.4880 O.3     1  UNL1       -0.4810
      5  H          2.7320    1.9520    2.0280 H       1  UNL1        0.2960
      6  C          6.5500    1.8050    0.7040 C.3     1  UNL1        0.0470
      7  C          7.2180    1.0430   -0.3680 C.2     1  UNL1       -0.0470
      8  C          8.5370    1.1900   -0.7130 C.2     1  UNL1        0.0040
      9  C          6.4640    0.1290   -1.0650 C.2     1  UNL1        0.0040
     10  C          9.0810    0.4340   -1.7330 C.2     1  UNL1        0.0000
     11  C          6.9820   -0.6270   -2.0750 C.2     1  UNL1        0.0000
     12  C          8.3090   -0.4800   -2.4210 C.2     1  UNL1        0.0000
@<TRIPOS>BOND
     1    12    11    2
     2    12    10    1
     3    11     9    1
     4    10     8    2
     5     9     7    2
     6     8     7    1
     7     7     6    1
     8     1     6    1
     9     1     2    1
    10     2     4    1
    11     2     3    2
    12     5     4    1
