@<TRIPOS>MOLECULE
/home/cewinharhar/GITHUB/reincatalyze/data/processed/docking_pred/2023-Apr-25-1630_maxeplen5_maxtrainstep200_exh32_gamma099_lrac3e-4_lrcr1e-3/9a7d3f5f853688f06c0e35b58fb12e655ab1ce10_ligand_2.pdbqt
 12 12 0 0 0
SMALL
GASTEIGER

@<TRIPOS>ATOM
      1  C          5.0560    1.7260    0.7120 C.3     1  UNL1        0.1270
      2  C          4.5960    1.0260    1.9350 C.2     1  UNL1        0.3030
      3  O          5.3050    0.1660    2.4790 O.2     1  UNL1       -0.2520
      4  O          3.3620    1.3350    2.4740 O.3     1  UNL1       -0.4810
      5  H          2.6350    1.7990    1.9370 H       1  UNL1        0.2960
      6  C          6.5570    1.8710    0.7170 C.3     1  UNL1        0.0470
      7  C          7.2110    1.0970   -0.3550 C.2     1  UNL1       -0.0470
      8  C          8.5410    1.1900   -0.6730 C.2     1  UNL1        0.0040
      9  C          6.4300    0.2280   -1.0800 C.2     1  UNL1        0.0040
     10  C          9.0710    0.4270   -1.6960 C.2     1  UNL1        0.0000
     11  C          6.9330   -0.5340   -2.0940 C.2     1  UNL1        0.0000
     12  C          8.2710   -0.4400   -2.4140 C.2     1  UNL1        0.0000
@<TRIPOS>BOND
     1    12    11    2
     2    12    10    1
     3    11     9    1
     4    10     8    2
     5     9     7    2
     6     8     7    1
     7     7     6    1
     8     1     6    1
     9     1     2    1
    10     2     4    1
    11     2     3    2
    12     5     4    1
