@<TRIPOS>MOLECULE
/home/cewinharhar/GITHUB/reincatalyze/data/processed/docking_pred/2023-Apr-25-1630_maxeplen5_maxtrainstep200_exh32_gamma099_lrac3e-4_lrcr1e-3/9a7d3f5f853688f06c0e35b58fb12e655ab1ce10_ligand_2.pdbqt
 12 12 0 0 0
SMALL
GASTEIGER

@<TRIPOS>ATOM
      1  C          5.5620    2.8650    0.0140 C.3     1  UNL1        0.1270
      2  C          6.2500    3.9250    0.7890 C.2     1  UNL1        0.3030
      3  O          6.9510    4.7750    0.2180 O.2     1  UNL1       -0.2520
      4  O          6.1120    3.9650    2.1630 O.3     1  UNL1       -0.4810
      5  H          6.5790    3.3030    2.7760 H       1  UNL1        0.2960
      6  C          4.9440    1.8480    0.9410 C.3     1  UNL1        0.0470
      7  C          5.7140    0.5910    1.0070 C.2     1  UNL1       -0.0470
      8  C          5.7430   -0.2400    2.0970 C.2     1  UNL1        0.0040
      9  C          6.4500    0.2360   -0.0990 C.2     1  UNL1        0.0040
     10  C          6.4940   -1.3990    2.0720 C.2     1  UNL1        0.0000
     11  C          7.1980   -0.9030   -0.1440 C.2     1  UNL1        0.0000
     12  C          7.2270   -1.7400    0.9520 C.2     1  UNL1        0.0000
@<TRIPOS>BOND
     1    11     9    1
     2    11    12    2
     3     9     7    2
     4     1     2    1
     5     1     6    1
     6     3     2    2
     7     2     4    1
     8     6     7    1
     9    12    10    1
    10     7     8    1
    11    10     8    2
    12     4     5    1
