MODEL 1
REMARK VINA RESULT:      -7.3      0.000      0.000
REMARK SMILES O=C(O)CCc1ccccc1
REMARK SMILES IDX 4 1 2 2 1 3 3 4 5 6 6 7 7 8 11 9 8 10 10 11 9 12
REMARK H PARENT 3 5
REMARK Flexibility Score: inf
ROOT
ATOM      1  C   UNL     1       8.418  -0.646  -2.124  1.00  0.00     0.127 C 
ENDROOT
BRANCH   1   2
ATOM      2  C   UNL     1       8.379  -1.908  -2.900  1.00  0.00     0.303 C 
ATOM      3  O   UNL     1       7.297  -2.416  -3.233  1.00  0.00    -0.252 OA
BRANCH   2   4
ATOM      4  O   UNL     1       9.562  -2.527  -3.256  1.00  0.00    -0.481 OA
ATOM      5  H   UNL     1      10.423  -2.008  -3.405  1.00  0.00     0.296 HD
ENDBRANCH   2   4
ENDBRANCH   1   2
BRANCH   1   6
ATOM      6  C   UNL     1       7.053  -0.004  -2.087  1.00  0.00     0.047 C 
BRANCH   6   7
ATOM      7  C   UNL     1       6.495   0.075  -0.724  1.00  0.00    -0.047 A 
ATOM      8  C   UNL     1       6.600  -0.922   0.212  1.00  0.00     0.004 A 
ATOM      9  C   UNL     1       5.825   1.224  -0.375  1.00  0.00     0.004 A 
ATOM     10  C   UNL     1       6.044  -0.763   1.467  1.00  0.00     0.000 A 
ATOM     11  C   UNL     1       5.269   1.400   0.857  1.00  0.00     0.000 A 
ATOM     12  C   UNL     1       5.375   0.399   1.799  1.00  0.00     0.000 A 
ENDBRANCH   6   7
ENDBRANCH   1   6
TORSDOF 4
ENDMDL
MODEL 2
REMARK VINA RESULT:      -7.3      0.073      1.428
REMARK SMILES O=C(O)CCc1ccccc1
REMARK SMILES IDX 4 1 2 2 1 3 3 4 5 6 6 7 7 8 11 9 8 10 10 11 9 12
REMARK H PARENT 3 5
REMARK Flexibility Score: inf
ROOT
ATOM      1  C   UNL     1       8.393  -0.729  -2.019  1.00  0.00     0.127 C 
ENDROOT
BRANCH   1   2
ATOM      2  C   UNL     1       8.366  -1.939  -2.874  1.00  0.00     0.303 C 
ATOM      3  O   UNL     1       7.290  -2.421  -3.259  1.00  0.00    -0.252 OA
BRANCH   2   4
ATOM      4  O   UNL     1       9.555  -2.538  -3.245  1.00  0.00    -0.481 OA
ATOM      5  H   UNL     1      10.006  -3.248  -2.675  1.00  0.00     0.296 HD
ENDBRANCH   2   4
ENDBRANCH   1   2
BRANCH   1   6
ATOM      6  C   UNL     1       7.067  -0.011  -2.076  1.00  0.00     0.047 C 
BRANCH   6   7
ATOM      7  C   UNL     1       6.461   0.179  -0.745  1.00  0.00    -0.047 A 
ATOM      8  C   UNL     1       5.786   1.308  -0.358  1.00  0.00     0.004 A 
ATOM      9  C   UNL     1       6.586  -0.845   0.164  1.00  0.00     0.004 A 
ATOM     10  C   UNL     1       5.250   1.401   0.912  1.00  0.00     0.000 A 
ATOM     11  C   UNL     1       6.065  -0.772   1.422  1.00  0.00     0.000 A 
ATOM     12  C   UNL     1       5.385   0.362   1.811  1.00  0.00     0.000 A 
ENDBRANCH   6   7
ENDBRANCH   1   6
TORSDOF 4
ENDMDL
MODEL 3
REMARK VINA RESULT:      -6.7      3.275      5.113
REMARK SMILES O=C(O)CCc1ccccc1
REMARK SMILES IDX 4 1 2 2 1 3 3 4 5 6 6 7 7 8 11 9 8 10 10 11 9 12
REMARK H PARENT 3 5
REMARK Flexibility Score: inf
ROOT
ATOM      1  C   UNL     1       5.056   1.726   0.712  1.00  0.00     0.127 C 
ENDROOT
BRANCH   1   2
ATOM      2  C   UNL     1       4.596   1.026   1.935  1.00  0.00     0.303 C 
ATOM      3  O   UNL     1       5.305   0.166   2.479  1.00  0.00    -0.252 OA
BRANCH   2   4
ATOM      4  O   UNL     1       3.362   1.335   2.474  1.00  0.00    -0.481 OA
ATOM      5  H   UNL     1       2.635   1.799   1.937  1.00  0.00     0.296 HD
ENDBRANCH   2   4
ENDBRANCH   1   2
BRANCH   1   6
ATOM      6  C   UNL     1       6.557   1.871   0.717  1.00  0.00     0.047 C 
BRANCH   6   7
ATOM      7  C   UNL     1       7.211   1.097  -0.355  1.00  0.00    -0.047 A 
ATOM      8  C   UNL     1       8.541   1.190  -0.673  1.00  0.00     0.004 A 
ATOM      9  C   UNL     1       6.430   0.228  -1.080  1.00  0.00     0.004 A 
ATOM     10  C   UNL     1       9.071   0.427  -1.696  1.00  0.00     0.000 A 
ATOM     11  C   UNL     1       6.933  -0.534  -2.094  1.00  0.00     0.000 A 
ATOM     12  C   UNL     1       8.271  -0.440  -2.414  1.00  0.00     0.000 A 
ENDBRANCH   6   7
ENDBRANCH   1   6
TORSDOF 4
ENDMDL
MODEL 4
REMARK VINA RESULT:      -6.7      1.919      2.227
REMARK SMILES O=C(O)CCc1ccccc1
REMARK SMILES IDX 4 1 2 2 1 3 3 4 5 6 6 7 7 8 11 9 8 10 10 11 9 12
REMARK H PARENT 3 5
REMARK Flexibility Score: inf
ROOT
ATOM      1  C   UNL     1       8.258   0.196  -2.189  1.00  0.00     0.127 C 
ENDROOT
BRANCH   1   2
ATOM      2  C   UNL     1       9.378   0.333  -1.228  1.00  0.00     0.303 C 
ATOM      3  O   UNL     1       9.455  -0.404  -0.233  1.00  0.00    -0.252 OA
BRANCH   2   4
ATOM      4  O   UNL     1      10.347   1.295  -1.442  1.00  0.00    -0.481 OA
ATOM      5  H   UNL     1      10.677   1.907  -0.701  1.00  0.00     0.296 HD
ENDBRANCH   2   4
ENDBRANCH   1   2
BRANCH   1   6
ATOM      6  C   UNL     1       7.125  -0.586  -1.574  1.00  0.00     0.047 C 
BRANCH   6   7
ATOM      7  C   UNL     1       6.356   0.199  -0.589  1.00  0.00    -0.047 A 
ATOM      8  C   UNL     1       6.114  -0.203   0.699  1.00  0.00     0.004 A 
ATOM      9  C   UNL     1       5.850   1.411  -0.996  1.00  0.00     0.004 A 
ATOM     10  C   UNL     1       5.381   0.596   1.555  1.00  0.00     0.000 A 
ATOM     11  C   UNL     1       5.124   2.215  -0.167  1.00  0.00     0.000 A 
ATOM     12  C   UNL     1       4.882   1.811   1.129  1.00  0.00     0.000 A 
ENDBRANCH   6   7
ENDBRANCH   1   6
TORSDOF 4
ENDMDL
MODEL 5
REMARK VINA RESULT:      -6.7      3.812      4.965
REMARK SMILES O=C(O)CCc1ccccc1
REMARK SMILES IDX 4 1 2 2 1 3 3 4 5 6 6 7 7 8 11 9 8 10 10 11 9 12
REMARK H PARENT 3 5
REMARK Flexibility Score: inf
ROOT
ATOM      1  C   UNL     1       5.562   2.865   0.014  1.00  0.00     0.127 C 
ENDROOT
BRANCH   1   2
ATOM      2  C   UNL     1       6.250   3.925   0.789  1.00  0.00     0.303 C 
ATOM      3  O   UNL     1       6.951   4.775   0.218  1.00  0.00    -0.252 OA
BRANCH   2   4
ATOM      4  O   UNL     1       6.112   3.965   2.163  1.00  0.00    -0.481 OA
ATOM      5  H   UNL     1       6.579   3.303   2.776  1.00  0.00     0.296 HD
ENDBRANCH   2   4
ENDBRANCH   1   2
BRANCH   1   6
ATOM      6  C   UNL     1       4.944   1.848   0.941  1.00  0.00     0.047 C 
BRANCH   6   7
ATOM      7  C   UNL     1       5.714   0.591   1.007  1.00  0.00    -0.047 A 
ATOM      8  C   UNL     1       5.743  -0.240   2.097  1.00  0.00     0.004 A 
ATOM      9  C   UNL     1       6.450   0.236  -0.099  1.00  0.00     0.004 A 
ATOM     10  C   UNL     1       6.494  -1.399   2.072  1.00  0.00     0.000 A 
ATOM     11  C   UNL     1       7.198  -0.903  -0.144  1.00  0.00     0.000 A 
ATOM     12  C   UNL     1       7.227  -1.740   0.952  1.00  0.00     0.000 A 
ENDBRANCH   6   7
ENDBRANCH   1   6
TORSDOF 4
ENDMDL
