@<TRIPOS>MOLECULE
/home/cewinharhar/GITHUB/reincatalyze/data/processed/docking_pred/2023-Apr-25-1630_maxeplen5_maxtrainstep200_exh32_gamma099_lrac3e-4_lrcr1e-3/9a7d3f5f853688f06c0e35b58fb12e655ab1ce10_ligand_2.pdbqt
 12 12 0 0 0
SMALL
GASTEIGER

@<TRIPOS>ATOM
      1  C          8.4180   -0.6460   -2.1240 C.3     1  UNL1        0.1270
      2  C          8.3790   -1.9080   -2.9000 C.2     1  UNL1        0.3030
      3  O          7.2970   -2.4160   -3.2330 O.2     1  UNL1       -0.2520
      4  O          9.5620   -2.5270   -3.2560 O.3     1  UNL1       -0.4810
      5  H         10.4230   -2.0080   -3.4050 H       1  UNL1        0.2960
      6  C          7.0530   -0.0040   -2.0870 C.3     1  UNL1        0.0470
      7  C          6.4950    0.0750   -0.7240 C.2     1  UNL1       -0.0470
      8  C          6.6000   -0.9220    0.2120 C.2     1  UNL1        0.0040
      9  C          5.8250    1.2240   -0.3750 C.2     1  UNL1        0.0040
     10  C          6.0440   -0.7630    1.4670 C.2     1  UNL1        0.0000
     11  C          5.2690    1.4000    0.8570 C.2     1  UNL1        0.0000
     12  C          5.3750    0.3990    1.7990 C.2     1  UNL1        0.0000
@<TRIPOS>BOND
     1     5     4    1
     2     4     2    1
     3     3     2    2
     4     2     1    1
     5     1     6    1
     6     6     7    1
     7     7     9    2
     8     7     8    1
     9     9    11    1
    10     8    10    2
    11    11    12    2
    12    10    12    1
