@<TRIPOS>MOLECULE
/home/cewinharhar/GITHUB/reincatalyze/data/processed/docking_pred/2023-Apr-25-1630_maxeplen5_maxtrainstep200_exh32_gamma099_lrac3e-4_lrcr1e-3/9a7d3f5f853688f06c0e35b58fb12e655ab1ce10_ligand_2.pdbqt
 12 12 0 0 0
SMALL
GASTEIGER

@<TRIPOS>ATOM
      1  C          8.3930   -0.7290   -2.0190 C.3     1  UNL1        0.1270
      2  C          8.3660   -1.9390   -2.8740 C.2     1  UNL1        0.3030
      3  O          7.2900   -2.4210   -3.2590 O.2     1  UNL1       -0.2520
      4  O          9.5550   -2.5380   -3.2450 O.3     1  UNL1       -0.4810
      5  H         10.0060   -3.2480   -2.6750 H       1  UNL1        0.2960
      6  C          7.0670   -0.0110   -2.0760 C.3     1  UNL1        0.0470
      7  C          6.4610    0.1790   -0.7450 C.2     1  UNL1       -0.0470
      8  C          5.7860    1.3080   -0.3580 C.2     1  UNL1        0.0040
      9  C          6.5860   -0.8450    0.1640 C.2     1  UNL1        0.0040
     10  C          5.2500    1.4010    0.9120 C.2     1  UNL1        0.0000
     11  C          6.0650   -0.7720    1.4220 C.2     1  UNL1        0.0000
     12  C          5.3850    0.3620    1.8110 C.2     1  UNL1        0.0000
@<TRIPOS>BOND
     1     3     2    2
     2     4     2    1
     3     4     5    1
     4     2     1    1
     5     6     1    1
     6     6     7    1
     7     7     8    2
     8     7     9    1
     9     8    10    1
    10     9    11    2
    11    10    12    2
    12    11    12    1
