@<TRIPOS>MOLECULE
/home/cewinharhar/GITHUB/reincatalyze/data/processed/docking_pred/2023-Apr-25-1630_maxeplen5_maxtrainstep200_exh32_gamma099_lrac3e-4_lrcr1e-3/9a7d3f5f853688f06c0e35b58fb12e655ab1ce10_ligand_2.pdbqt
 12 12 0 0 0
SMALL
GASTEIGER

@<TRIPOS>ATOM
      1  C          8.2580    0.1960   -2.1890 C.3     1  UNL1        0.1270
      2  C          9.3780    0.3330   -1.2280 C.2     1  UNL1        0.3030
      3  O          9.4550   -0.4040   -0.2330 O.2     1  UNL1       -0.2520
      4  O         10.3470    1.2950   -1.4420 O.3     1  UNL1       -0.4810
      5  H         10.6770    1.9070   -0.7010 H       1  UNL1        0.2960
      6  C          7.1250   -0.5860   -1.5740 C.3     1  UNL1        0.0470
      7  C          6.3560    0.1990   -0.5890 C.2     1  UNL1       -0.0470
      8  C          6.1140   -0.2030    0.6990 C.2     1  UNL1        0.0040
      9  C          5.8500    1.4110   -0.9960 C.2     1  UNL1        0.0040
     10  C          5.3810    0.5960    1.5550 C.2     1  UNL1        0.0000
     11  C          5.1240    2.2150   -0.1670 C.2     1  UNL1        0.0000
     12  C          4.8820    1.8110    1.1290 C.2     1  UNL1        0.0000
@<TRIPOS>BOND
     1     1     6    1
     2     1     2    1
     3     6     7    1
     4     4     2    1
     5     4     5    1
     6     2     3    2
     7     9     7    2
     8     9    11    1
     9     7     8    1
    10    11    12    2
    11     8    10    2
    12    12    10    1
