@<TRIPOS>MOLECULE
/home/cewinharhar/GITHUB/reincatalyze/data/processed/docking_pred/2023-Apr-25-1630_maxeplen5_maxtrainstep200_exh32_gamma099_lrac3e-4_lrcr1e-3/9e6208548f5309b91e7f4e881f40d3475c8e3dc2_ligand_2.pdbqt
 12 12 0 0 0
SMALL
GASTEIGER

@<TRIPOS>ATOM
      1  C          5.0010    1.7980    0.7430 C.3     1  UNL1        0.1270
      2  C          4.4750    1.0980    1.9390 C.2     1  UNL1        0.3030
      3  O          5.1240    0.1900    2.4800 O.2     1  UNL1       -0.2520
      4  O          3.2480    1.4620    2.4570 O.3     1  UNL1       -0.4810
      5  H          2.4530    1.6870    1.8650 H       1  UNL1        0.2960
      6  C          6.5100    1.8050    0.7530 C.3     1  UNL1        0.0470
      7  C          7.0940    1.0080   -0.3430 C.2     1  UNL1       -0.0470
      8  C          6.4080    0.0590   -1.0570 C.2     1  UNL1        0.0040
      9  C          8.4110    1.2350   -0.6630 C.2     1  UNL1        0.0040
     10  C          7.0360   -0.6420   -2.0690 C.2     1  UNL1        0.0000
     11  C          9.0490    0.5530   -1.6580 C.2     1  UNL1        0.0000
     12  C          8.3600   -0.4010   -2.3770 C.2     1  UNL1        0.0000
@<TRIPOS>BOND
     1    12    10    2
     2    12    11    1
     3    10     8    1
     4    11     9    2
     5     8     7    2
     6     9     7    1
     7     7     6    1
     8     1     6    1
     9     1     2    1
    10     5     4    1
    11     2     4    1
    12     2     3    2
