@<TRIPOS>MOLECULE
/home/cewinharhar/GITHUB/reincatalyze/data/processed/docking_pred/2023-Apr-25-1630_maxeplen5_maxtrainstep200_exh32_gamma099_lrac3e-4_lrcr1e-3/9e6208548f5309b91e7f4e881f40d3475c8e3dc2_ligand_2.pdbqt
 12 12 0 0 0
SMALL
GASTEIGER

@<TRIPOS>ATOM
      1  C          8.4230   -0.5920   -2.2440 C.3     1  UNL1        0.1270
      2  C          8.4710   -1.9000   -2.9390 C.2     1  UNL1        0.3030
      3  O          9.5450   -2.5030   -3.0840 O.2     1  UNL1       -0.2520
      4  O          7.3050   -2.4550   -3.4310 O.3     1  UNL1       -0.4810
      5  H          6.3860   -2.1330   -3.1410 H       1  UNL1        0.2960
      6  C          7.0070   -0.0740   -2.1880 C.3     1  UNL1        0.0470
      7  C          6.4900    0.0300   -0.8100 C.2     1  UNL1       -0.0470
      8  C          6.6070   -0.9570    0.1350 C.2     1  UNL1        0.0040
      9  C          5.8490    1.1930   -0.4550 C.2     1  UNL1        0.0040
     10  C          6.0910   -0.7750    1.4040 C.2     1  UNL1        0.0000
     11  C          5.3330    1.3930    0.7910 C.2     1  UNL1        0.0000
     12  C          5.4510    0.4010    1.7410 C.2     1  UNL1        0.0000
@<TRIPOS>BOND
     1     4     5    1
     2     4     2    1
     3     3     2    2
     4     2     1    1
     5     1     6    1
     6     6     7    1
     7     7     9    2
     8     7     8    1
     9     9    11    1
    10     8    10    2
    11    11    12    2
    12    10    12    1
