@<TRIPOS>MOLECULE
/home/cewinharhar/GITHUB/reincatalyze/data/processed/docking_pred/2023-Apr-25-1630_maxeplen5_maxtrainstep200_exh32_gamma099_lrac3e-4_lrcr1e-3/9e6208548f5309b91e7f4e881f40d3475c8e3dc2_ligand_2.pdbqt
 12 12 0 0 0
SMALL
GASTEIGER

@<TRIPOS>ATOM
      1  C          8.2760    0.1410   -2.1930 C.3     1  UNL1        0.1270
      2  C          9.3770    0.3300   -1.2180 C.2     1  UNL1        0.3030
      3  O          9.4700   -0.3960   -0.2170 O.2     1  UNL1       -0.2520
      4  O         10.3090    1.3280   -1.4280 O.3     1  UNL1       -0.4810
      5  H         10.6770    1.5430   -2.3500 H       1  UNL1        0.2960
      6  C          7.1120   -0.5670   -1.5460 C.3     1  UNL1        0.0470
      7  C          6.3300    0.3130   -0.6550 C.2     1  UNL1       -0.0470
      8  C          5.8160    1.5280   -1.0270 C.2     1  UNL1        0.0040
      9  C          6.1080   -0.1190    0.6310 C.2     1  UNL1        0.0040
     10  C          5.0960    2.2880   -0.1250 C.2     1  UNL1        0.0000
     11  C          5.4010    0.6160    1.5360 C.2     1  UNL1        0.0000
     12  C          4.8820    1.8370    1.1620 C.2     1  UNL1        0.0000
@<TRIPOS>BOND
     1     5     4    1
     2     1     6    1
     3     1     2    1
     4     6     7    1
     5     4     2    1
     6     2     3    2
     7     8     7    2
     8     8    10    1
     9     7     9    1
    10    10    12    2
    11     9    11    2
    12    12    11    1
