@<TRIPOS>MOLECULE
/home/cewinharhar/GITHUB/reincatalyze/data/processed/docking_pred/2023-Apr-25-1630_maxeplen5_maxtrainstep200_exh32_gamma099_lrac3e-4_lrcr1e-3/9e6208548f5309b91e7f4e881f40d3475c8e3dc2_ligand_2.pdbqt
 12 12 0 0 0
SMALL
GASTEIGER

@<TRIPOS>ATOM
      1  C          8.1570   -1.5700    1.1430 C.3     1  UNL1        0.1270
      2  C          8.4810   -2.7730    0.3390 C.2     1  UNL1        0.3030
      3  O          9.1250   -3.7120    0.8330 O.2     1  UNL1       -0.2520
      4  O          8.0630   -2.8480   -0.9750 O.3     1  UNL1       -0.4810
      5  H          8.4830   -3.4890   -1.6430 H       1  UNL1        0.2960
      6  C          6.6630   -1.4180    1.2900 C.3     1  UNL1        0.0470
      7  C          6.1560   -0.1610    0.7070 C.2     1  UNL1       -0.0470
      8  C          6.3840    0.2390   -0.5840 C.2     1  UNL1        0.0040
      9  C          5.4080    0.6600    1.5170 C.2     1  UNL1        0.0040
     10  C          5.8710    1.4350   -1.0470 C.2     1  UNL1        0.0000
     11  C          4.8930    1.8450    1.0800 C.2     1  UNL1        0.0000
     12  C          5.1210    2.2470   -0.2180 C.2     1  UNL1        0.0000
@<TRIPOS>BOND
     1     5     4    1
     2    10     8    1
     3    10    12    2
     4     4     2    1
     5     8     7    2
     6    12    11    1
     7     2     3    2
     8     2     1    1
     9     7     6    1
    10     7     9    1
    11    11     9    2
    12     1     6    1
