MODEL 1
REMARK VINA RESULT:      -7.3      0.000      0.000
REMARK SMILES O=C(O)CCc1ccccc1
REMARK SMILES IDX 4 1 2 2 1 3 3 4 5 6 6 7 7 8 11 9 8 10 10 11 9 12
REMARK H PARENT 3 5
REMARK Flexibility Score: inf
ROOT
ATOM      1  C   UNL     1       8.423  -0.592  -2.244  1.00  0.00     0.127 C 
ENDROOT
BRANCH   1   2
ATOM      2  C   UNL     1       8.471  -1.900  -2.939  1.00  0.00     0.303 C 
ATOM      3  O   UNL     1       9.545  -2.503  -3.084  1.00  0.00    -0.252 OA
BRANCH   2   4
ATOM      4  O   UNL     1       7.305  -2.455  -3.431  1.00  0.00    -0.481 OA
ATOM      5  H   UNL     1       6.386  -2.133  -3.141  1.00  0.00     0.296 HD
ENDBRANCH   2   4
ENDBRANCH   1   2
BRANCH   1   6
ATOM      6  C   UNL     1       7.007  -0.074  -2.188  1.00  0.00     0.047 C 
BRANCH   6   7
ATOM      7  C   UNL     1       6.490   0.030  -0.810  1.00  0.00    -0.047 A 
ATOM      8  C   UNL     1       6.607  -0.957   0.135  1.00  0.00     0.004 A 
ATOM      9  C   UNL     1       5.849   1.193  -0.455  1.00  0.00     0.004 A 
ATOM     10  C   UNL     1       6.091  -0.775   1.404  1.00  0.00     0.000 A 
ATOM     11  C   UNL     1       5.333   1.393   0.791  1.00  0.00     0.000 A 
ATOM     12  C   UNL     1       5.451   0.401   1.741  1.00  0.00     0.000 A 
ENDBRANCH   6   7
ENDBRANCH   1   6
TORSDOF 4
ENDMDL
MODEL 2
REMARK VINA RESULT:      -7.3      0.109      1.429
REMARK SMILES O=C(O)CCc1ccccc1
REMARK SMILES IDX 4 1 2 2 1 3 3 4 5 6 6 7 7 8 11 9 8 10 10 11 9 12
REMARK H PARENT 3 5
REMARK Flexibility Score: inf
ROOT
ATOM      1  C   UNL     1       8.423  -0.619  -2.167  1.00  0.00     0.127 C 
ENDROOT
BRANCH   1   2
ATOM      2  C   UNL     1       8.478  -1.905  -2.901  1.00  0.00     0.303 C 
ATOM      3  O   UNL     1       9.557  -2.492  -3.074  1.00  0.00    -0.252 OA
BRANCH   2   4
ATOM      4  O   UNL     1       7.314  -2.456  -3.400  1.00  0.00    -0.481 OA
ATOM      5  H   UNL     1       6.449  -2.474  -2.866  1.00  0.00     0.296 HD
ENDBRANCH   2   4
ENDBRANCH   1   2
BRANCH   1   6
ATOM      6  C   UNL     1       7.017  -0.071  -2.162  1.00  0.00     0.047 C 
BRANCH   6   7
ATOM      7  C   UNL     1       6.471   0.091  -0.800  1.00  0.00    -0.047 A 
ATOM      8  C   UNL     1       5.842   1.223  -0.351  1.00  0.00     0.004 A 
ATOM      9  C   UNL     1       6.606  -0.965   0.070  1.00  0.00     0.004 A 
ATOM     10  C   UNL     1       5.361   1.288   0.942  1.00  0.00     0.000 A 
ATOM     11  C   UNL     1       6.138  -0.920   1.350  1.00  0.00     0.000 A 
ATOM     12  C   UNL     1       5.505   0.218   1.802  1.00  0.00     0.000 A 
ENDBRANCH   6   7
ENDBRANCH   1   6
TORSDOF 4
ENDMDL
MODEL 3
REMARK VINA RESULT:      -6.8      3.380      5.062
REMARK SMILES O=C(O)CCc1ccccc1
REMARK SMILES IDX 4 1 2 2 1 3 3 4 5 6 6 7 7 8 11 9 8 10 10 11 9 12
REMARK H PARENT 3 5
REMARK Flexibility Score: inf
ROOT
ATOM      1  C   UNL     1       5.001   1.798   0.743  1.00  0.00     0.127 C 
ENDROOT
BRANCH   1   2
ATOM      2  C   UNL     1       4.475   1.098   1.939  1.00  0.00     0.303 C 
ATOM      3  O   UNL     1       5.124   0.190   2.480  1.00  0.00    -0.252 OA
BRANCH   2   4
ATOM      4  O   UNL     1       3.248   1.462   2.457  1.00  0.00    -0.481 OA
ATOM      5  H   UNL     1       2.453   1.687   1.865  1.00  0.00     0.296 HD
ENDBRANCH   2   4
ENDBRANCH   1   2
BRANCH   1   6
ATOM      6  C   UNL     1       6.510   1.805   0.753  1.00  0.00     0.047 C 
BRANCH   6   7
ATOM      7  C   UNL     1       7.094   1.008  -0.343  1.00  0.00    -0.047 A 
ATOM      8  C   UNL     1       6.408   0.059  -1.057  1.00  0.00     0.004 A 
ATOM      9  C   UNL     1       8.411   1.235  -0.663  1.00  0.00     0.004 A 
ATOM     10  C   UNL     1       7.036  -0.642  -2.069  1.00  0.00     0.000 A 
ATOM     11  C   UNL     1       9.049   0.553  -1.658  1.00  0.00     0.000 A 
ATOM     12  C   UNL     1       8.360  -0.401  -2.377  1.00  0.00     0.000 A 
ENDBRANCH   6   7
ENDBRANCH   1   6
TORSDOF 4
ENDMDL
MODEL 4
REMARK VINA RESULT:      -6.6      1.939      2.660
REMARK SMILES O=C(O)CCc1ccccc1
REMARK SMILES IDX 4 1 2 2 1 3 3 4 5 6 6 7 7 8 11 9 8 10 10 11 9 12
REMARK H PARENT 3 5
REMARK Flexibility Score: inf
ROOT
ATOM      1  C   UNL     1       8.276   0.141  -2.193  1.00  0.00     0.127 C 
ENDROOT
BRANCH   1   2
ATOM      2  C   UNL     1       9.377   0.330  -1.218  1.00  0.00     0.303 C 
ATOM      3  O   UNL     1       9.470  -0.396  -0.217  1.00  0.00    -0.252 OA
BRANCH   2   4
ATOM      4  O   UNL     1      10.309   1.328  -1.428  1.00  0.00    -0.481 OA
ATOM      5  H   UNL     1      10.677   1.543  -2.350  1.00  0.00     0.296 HD
ENDBRANCH   2   4
ENDBRANCH   1   2
BRANCH   1   6
ATOM      6  C   UNL     1       7.112  -0.567  -1.546  1.00  0.00     0.047 C 
BRANCH   6   7
ATOM      7  C   UNL     1       6.330   0.313  -0.655  1.00  0.00    -0.047 A 
ATOM      8  C   UNL     1       5.816   1.528  -1.027  1.00  0.00     0.004 A 
ATOM      9  C   UNL     1       6.108  -0.119   0.631  1.00  0.00     0.004 A 
ATOM     10  C   UNL     1       5.096   2.288  -0.125  1.00  0.00     0.000 A 
ATOM     11  C   UNL     1       5.401   0.616   1.536  1.00  0.00     0.000 A 
ATOM     12  C   UNL     1       4.882   1.837   1.162  1.00  0.00     0.000 A 
ENDBRANCH   6   7
ENDBRANCH   1   6
TORSDOF 4
ENDMDL
MODEL 5
REMARK VINA RESULT:      -6.6      1.879      2.850
REMARK SMILES O=C(O)CCc1ccccc1
REMARK SMILES IDX 4 1 2 2 1 3 3 4 5 6 6 7 7 8 11 9 8 10 10 11 9 12
REMARK H PARENT 3 5
REMARK Flexibility Score: inf
ROOT
ATOM      1  C   UNL     1       8.157  -1.570   1.143  1.00  0.00     0.127 C 
ENDROOT
BRANCH   1   2
ATOM      2  C   UNL     1       8.481  -2.773   0.339  1.00  0.00     0.303 C 
ATOM      3  O   UNL     1       9.125  -3.712   0.833  1.00  0.00    -0.252 OA
BRANCH   2   4
ATOM      4  O   UNL     1       8.063  -2.848  -0.975  1.00  0.00    -0.481 OA
ATOM      5  H   UNL     1       8.483  -3.489  -1.643  1.00  0.00     0.296 HD
ENDBRANCH   2   4
ENDBRANCH   1   2
BRANCH   1   6
ATOM      6  C   UNL     1       6.663  -1.418   1.290  1.00  0.00     0.047 C 
BRANCH   6   7
ATOM      7  C   UNL     1       6.156  -0.161   0.707  1.00  0.00    -0.047 A 
ATOM      8  C   UNL     1       6.384   0.239  -0.584  1.00  0.00     0.004 A 
ATOM      9  C   UNL     1       5.408   0.660   1.517  1.00  0.00     0.004 A 
ATOM     10  C   UNL     1       5.871   1.435  -1.047  1.00  0.00     0.000 A 
ATOM     11  C   UNL     1       4.893   1.845   1.080  1.00  0.00     0.000 A 
ATOM     12  C   UNL     1       5.121   2.247  -0.218  1.00  0.00     0.000 A 
ENDBRANCH   6   7
ENDBRANCH   1   6
TORSDOF 4
ENDMDL
