@<TRIPOS>MOLECULE
/home/cewinharhar/GITHUB/reincatalyze/data/processed/docking_pred/2023-Apr-25-1630_maxeplen5_maxtrainstep200_exh32_gamma099_lrac3e-4_lrcr1e-3/9e6208548f5309b91e7f4e881f40d3475c8e3dc2_ligand_2.pdbqt
 12 12 0 0 0
SMALL
GASTEIGER

@<TRIPOS>ATOM
      1  C          8.4230   -0.6190   -2.1670 C.3     1  UNL1        0.1270
      2  C          8.4780   -1.9050   -2.9010 C.2     1  UNL1        0.3030
      3  O          9.5570   -2.4920   -3.0740 O.2     1  UNL1       -0.2520
      4  O          7.3140   -2.4560   -3.4000 O.3     1  UNL1       -0.4810
      5  H          6.4490   -2.4740   -2.8660 H       1  UNL1        0.2960
      6  C          7.0170   -0.0710   -2.1620 C.3     1  UNL1        0.0470
      7  C          6.4710    0.0910   -0.8000 C.2     1  UNL1       -0.0470
      8  C          5.8420    1.2230   -0.3510 C.2     1  UNL1        0.0040
      9  C          6.6060   -0.9650    0.0700 C.2     1  UNL1        0.0040
     10  C          5.3610    1.2880    0.9420 C.2     1  UNL1        0.0000
     11  C          6.1380   -0.9200    1.3500 C.2     1  UNL1        0.0000
     12  C          5.5050    0.2180    1.8020 C.2     1  UNL1        0.0000
@<TRIPOS>BOND
     1     4     2    1
     2     4     5    1
     3     3     2    2
     4     2     1    1
     5     1     6    1
     6     6     7    1
     7     7     8    2
     8     7     9    1
     9     8    10    1
    10     9    11    2
    11    10    12    2
    12    11    12    1
