@<TRIPOS>MOLECULE
/home/cewinharhar/GITHUB/reincatalyze/data/processed/docking_pred/2023-Apr-25-1630_maxeplen5_maxtrainstep200_exh32_gamma099_lrac3e-4_lrcr1e-3/9fad910e57fbde25b93c61ef9d3287f531a6e420_ligand_2.pdbqt
 12 12 0 0 0
SMALL
GASTEIGER

@<TRIPOS>ATOM
      1  C          8.4350   -0.5780   -2.2400 C.3     1  UNL1        0.1270
      2  C          8.4950   -1.8820   -2.9410 C.2     1  UNL1        0.3030
      3  O          9.5770   -2.4680   -3.1020 O.2     1  UNL1       -0.2520
      4  O          7.3320   -2.4520   -3.4230 O.3     1  UNL1       -0.4810
      5  H          6.4130   -2.0770   -3.2050 H       1  UNL1        0.2960
      6  C          7.0150   -0.0740   -2.1780 C.3     1  UNL1        0.0470
      7  C          6.4990    0.0150   -0.7990 C.2     1  UNL1       -0.0470
      8  C          6.6180   -0.9820    0.1360 C.2     1  UNL1        0.0040
      9  C          5.8550    1.1730   -0.4330 C.2     1  UNL1        0.0040
     10  C          6.1030   -0.8130    1.4070 C.2     1  UNL1        0.0000
     11  C          5.3390    1.3580    0.8160 C.2     1  UNL1        0.0000
     12  C          5.4600    0.3570    1.7560 C.2     1  UNL1        0.0000
@<TRIPOS>BOND
     1     4     5    1
     2     4     2    1
     3     3     2    2
     4     2     1    1
     5     1     6    1
     6     6     7    1
     7     7     9    2
     8     7     8    1
     9     9    11    1
    10     8    10    2
    11    11    12    2
    12    10    12    1
