MODEL 1
REMARK VINA RESULT:      -7.3      0.000      0.000
REMARK SMILES O=C(O)CCc1ccccc1
REMARK SMILES IDX 4 1 2 2 1 3 3 4 5 6 6 7 7 8 11 9 8 10 10 11 9 12
REMARK H PARENT 3 5
REMARK Flexibility Score: inf
ROOT
ATOM      1  C   UNL     1       8.400  -0.664  -2.106  1.00  0.00     0.127 C 
ENDROOT
BRANCH   1   2
ATOM      2  C   UNL     1       8.455  -1.918  -2.893  1.00  0.00     0.303 C 
ATOM      3  O   UNL     1       9.535  -2.495  -3.095  1.00  0.00    -0.252 OA
BRANCH   2   4
ATOM      4  O   UNL     1       7.289  -2.451  -3.410  1.00  0.00    -0.481 OA
ATOM      5  H   UNL     1       6.989  -2.277  -4.365  1.00  0.00     0.296 HD
ENDBRANCH   2   4
ENDBRANCH   1   2
BRANCH   1   6
ATOM      6  C   UNL     1       7.004  -0.093  -2.115  1.00  0.00     0.047 C 
BRANCH   6   7
ATOM      7  C   UNL     1       6.451   0.089  -0.759  1.00  0.00    -0.047 A 
ATOM      8  C   UNL     1       5.811   1.224  -0.332  1.00  0.00     0.004 A 
ATOM      9  C   UNL     1       6.591  -0.950   0.130  1.00  0.00     0.004 A 
ATOM     10  C   UNL     1       5.324   1.308   0.958  1.00  0.00     0.000 A 
ATOM     11  C   UNL     1       6.118  -0.887   1.408  1.00  0.00     0.000 A 
ATOM     12  C   UNL     1       5.474   0.254   1.837  1.00  0.00     0.000 A 
ENDBRANCH   6   7
ENDBRANCH   1   6
TORSDOF 4
ENDMDL
MODEL 2
REMARK VINA RESULT:      -7.3      0.101      1.429
REMARK SMILES O=C(O)CCc1ccccc1
REMARK SMILES IDX 4 1 2 2 1 3 3 4 5 6 6 7 7 8 11 9 8 10 10 11 9 12
REMARK H PARENT 3 5
REMARK Flexibility Score: inf
ROOT
ATOM      1  C   UNL     1       8.435  -0.578  -2.240  1.00  0.00     0.127 C 
ENDROOT
BRANCH   1   2
ATOM      2  C   UNL     1       8.495  -1.882  -2.941  1.00  0.00     0.303 C 
ATOM      3  O   UNL     1       9.577  -2.468  -3.102  1.00  0.00    -0.252 OA
BRANCH   2   4
ATOM      4  O   UNL     1       7.332  -2.452  -3.423  1.00  0.00    -0.481 OA
ATOM      5  H   UNL     1       6.413  -2.077  -3.205  1.00  0.00     0.296 HD
ENDBRANCH   2   4
ENDBRANCH   1   2
BRANCH   1   6
ATOM      6  C   UNL     1       7.015  -0.074  -2.178  1.00  0.00     0.047 C 
BRANCH   6   7
ATOM      7  C   UNL     1       6.499   0.015  -0.799  1.00  0.00    -0.047 A 
ATOM      8  C   UNL     1       6.618  -0.982   0.136  1.00  0.00     0.004 A 
ATOM      9  C   UNL     1       5.855   1.173  -0.433  1.00  0.00     0.004 A 
ATOM     10  C   UNL     1       6.103  -0.813   1.407  1.00  0.00     0.000 A 
ATOM     11  C   UNL     1       5.339   1.358   0.816  1.00  0.00     0.000 A 
ATOM     12  C   UNL     1       5.460   0.357   1.756  1.00  0.00     0.000 A 
ENDBRANCH   6   7
ENDBRANCH   1   6
TORSDOF 4
ENDMDL
MODEL 3
REMARK VINA RESULT:      -7.1      0.645      1.477
REMARK SMILES O=C(O)CCc1ccccc1
REMARK SMILES IDX 4 1 2 2 1 3 3 4 5 6 6 7 7 8 11 9 8 10 10 11 9 12
REMARK H PARENT 3 5
REMARK Flexibility Score: inf
ROOT
ATOM      1  C   UNL     1       8.260  -0.858  -1.934  1.00  0.00     0.127 C 
ENDROOT
BRANCH   1   2
ATOM      2  C   UNL     1       8.317  -1.985  -2.895  1.00  0.00     0.303 C 
ATOM      3  O   UNL     1       7.278  -2.467  -3.371  1.00  0.00    -0.252 OA
BRANCH   2   4
ATOM      4  O   UNL     1       9.542  -2.507  -3.263  1.00  0.00    -0.481 OA
ATOM      5  H   UNL     1       9.635  -3.419  -3.701  1.00  0.00     0.296 HD
ENDBRANCH   2   4
ENDBRANCH   1   2
BRANCH   1   6
ATOM      6  C   UNL     1       7.566  -1.280  -0.663  1.00  0.00     0.047 C 
BRANCH   6   7
ATOM      7  C   UNL     1       6.657  -0.244  -0.136  1.00  0.00    -0.047 A 
ATOM      8  C   UNL     1       6.247   0.856  -0.844  1.00  0.00     0.004 A 
ATOM      9  C   UNL     1       6.195  -0.396   1.150  1.00  0.00     0.004 A 
ATOM     10  C   UNL     1       5.393   1.778  -0.270  1.00  0.00     0.000 A 
ATOM     11  C   UNL     1       5.352   0.503   1.735  1.00  0.00     0.000 A 
ATOM     12  C   UNL     1       4.939   1.608   1.022  1.00  0.00     0.000 A 
ENDBRANCH   6   7
ENDBRANCH   1   6
TORSDOF 4
ENDMDL
MODEL 4
REMARK VINA RESULT:      -6.8      3.369      5.071
REMARK SMILES O=C(O)CCc1ccccc1
REMARK SMILES IDX 4 1 2 2 1 3 3 4 5 6 6 7 7 8 11 9 8 10 10 11 9 12
REMARK H PARENT 3 5
REMARK Flexibility Score: inf
ROOT
ATOM      1  C   UNL     1       4.986   1.801   0.681  1.00  0.00     0.127 C 
ENDROOT
BRANCH   1   2
ATOM      2  C   UNL     1       4.506   1.118   1.905  1.00  0.00     0.303 C 
ATOM      3  O   UNL     1       5.194   0.245   2.456  1.00  0.00    -0.252 OA
BRANCH   2   4
ATOM      4  O   UNL     1       3.277   1.457   2.438  1.00  0.00    -0.481 OA
ATOM      5  H   UNL     1       3.175   1.808   3.386  1.00  0.00     0.296 HD
ENDBRANCH   2   4
ENDBRANCH   1   2
BRANCH   1   6
ATOM      6  C   UNL     1       6.493   1.876   0.672  1.00  0.00     0.047 C 
BRANCH   6   7
ATOM      7  C   UNL     1       7.100   1.052  -0.391  1.00  0.00    -0.047 A 
ATOM      8  C   UNL     1       6.410   0.146  -1.155  1.00  0.00     0.004 A 
ATOM      9  C   UNL     1       8.446   1.207  -0.626  1.00  0.00     0.004 A 
ATOM     10  C   UNL     1       7.061  -0.585  -2.130  1.00  0.00     0.000 A 
ATOM     11  C   UNL     1       9.107   0.495  -1.583  1.00  0.00     0.000 A 
ATOM     12  C   UNL     1       8.413  -0.416  -2.352  1.00  0.00     0.000 A 
ENDBRANCH   6   7
ENDBRANCH   1   6
TORSDOF 4
ENDMDL
MODEL 5
REMARK VINA RESULT:      -6.7      1.946      2.327
REMARK SMILES O=C(O)CCc1ccccc1
REMARK SMILES IDX 4 1 2 2 1 3 3 4 5 6 6 7 7 8 11 9 8 10 10 11 9 12
REMARK H PARENT 3 5
REMARK Flexibility Score: inf
ROOT
ATOM      1  C   UNL     1       8.272   0.185  -2.178  1.00  0.00     0.127 C 
ENDROOT
BRANCH   1   2
ATOM      2  C   UNL     1       9.386   0.350  -1.213  1.00  0.00     0.303 C 
ATOM      3  O   UNL     1       9.477  -0.384  -0.217  1.00  0.00    -0.252 OA
BRANCH   2   4
ATOM      4  O   UNL     1      10.333   1.333  -1.426  1.00  0.00    -0.481 OA
ATOM      5  H   UNL     1      10.271   1.989  -2.200  1.00  0.00     0.296 HD
ENDBRANCH   2   4
ENDBRANCH   1   2
BRANCH   1   6
ATOM      6  C   UNL     1       7.122  -0.551  -1.538  1.00  0.00     0.047 C 
BRANCH   6   7
ATOM      7  C   UNL     1       6.335   0.299  -0.624  1.00  0.00    -0.047 A 
ATOM      8  C   UNL     1       5.807   1.518  -0.966  1.00  0.00     0.004 A 
ATOM      9  C   UNL     1       6.121  -0.165   0.652  1.00  0.00     0.004 A 
ATOM     10  C   UNL     1       5.083   2.248  -0.044  1.00  0.00     0.000 A 
ATOM     11  C   UNL     1       5.410   0.541   1.576  1.00  0.00     0.000 A 
ATOM     12  C   UNL     1       4.878   1.766   1.233  1.00  0.00     0.000 A 
ENDBRANCH   6   7
ENDBRANCH   1   6
TORSDOF 4
ENDMDL
