@<TRIPOS>MOLECULE
/home/cewinharhar/GITHUB/reincatalyze/data/processed/docking_pred/2023-Apr-25-1630_maxeplen5_maxtrainstep200_exh32_gamma099_lrac3e-4_lrcr1e-3/9fad910e57fbde25b93c61ef9d3287f531a6e420_ligand_2.pdbqt
 12 12 0 0 0
SMALL
GASTEIGER

@<TRIPOS>ATOM
      1  C          8.2600   -0.8580   -1.9340 C.3     1  UNL1        0.1270
      2  C          8.3170   -1.9850   -2.8950 C.2     1  UNL1        0.3030
      3  O          7.2780   -2.4670   -3.3710 O.2     1  UNL1       -0.2520
      4  O          9.5420   -2.5070   -3.2630 O.3     1  UNL1       -0.4810
      5  H          9.6350   -3.4190   -3.7010 H       1  UNL1        0.2960
      6  C          7.5660   -1.2800   -0.6630 C.3     1  UNL1        0.0470
      7  C          6.6570   -0.2440   -0.1360 C.2     1  UNL1       -0.0470
      8  C          6.2470    0.8560   -0.8440 C.2     1  UNL1        0.0040
      9  C          6.1950   -0.3960    1.1500 C.2     1  UNL1        0.0040
     10  C          5.3930    1.7780   -0.2700 C.2     1  UNL1        0.0000
     11  C          5.3520    0.5030    1.7350 C.2     1  UNL1        0.0000
     12  C          4.9390    1.6080    1.0220 C.2     1  UNL1        0.0000
@<TRIPOS>BOND
     1     5     4    1
     2     3     2    2
     3     4     2    1
     4     2     1    1
     5     1     6    1
     6     8    10    1
     7     8     7    2
     8     6     7    1
     9    10    12    2
    10     7     9    1
    11    12    11    1
    12     9    11    2
