@<TRIPOS>MOLECULE
/home/cewinharhar/GITHUB/reincatalyze/data/processed/docking_pred/2023-Apr-25-1630_maxeplen5_maxtrainstep200_exh32_gamma099_lrac3e-4_lrcr1e-3/9fad910e57fbde25b93c61ef9d3287f531a6e420_ligand_2.pdbqt
 12 12 0 0 0
SMALL
GASTEIGER

@<TRIPOS>ATOM
      1  C          8.4000   -0.6640   -2.1060 C.3     1  UNL1        0.1270
      2  C          8.4550   -1.9180   -2.8930 C.2     1  UNL1        0.3030
      3  O          9.5350   -2.4950   -3.0950 O.2     1  UNL1       -0.2520
      4  O          7.2890   -2.4510   -3.4100 O.3     1  UNL1       -0.4810
      5  H          6.9890   -2.2770   -4.3650 H       1  UNL1        0.2960
      6  C          7.0040   -0.0930   -2.1150 C.3     1  UNL1        0.0470
      7  C          6.4510    0.0890   -0.7590 C.2     1  UNL1       -0.0470
      8  C          5.8110    1.2240   -0.3320 C.2     1  UNL1        0.0040
      9  C          6.5910   -0.9500    0.1300 C.2     1  UNL1        0.0040
     10  C          5.3240    1.3080    0.9580 C.2     1  UNL1        0.0000
     11  C          6.1180   -0.8870    1.4080 C.2     1  UNL1        0.0000
     12  C          5.4740    0.2540    1.8370 C.2     1  UNL1        0.0000
@<TRIPOS>BOND
     1     5     4    1
     2     4     2    1
     3     3     2    2
     4     2     1    1
     5     6     1    1
     6     6     7    1
     7     7     8    2
     8     7     9    1
     9     8    10    1
    10     9    11    2
    11    10    12    2
    12    11    12    1
