@<TRIPOS>MOLECULE
/home/cewinharhar/GITHUB/reincatalyze/data/processed/docking_pred/2023-Apr-25-1630_maxeplen5_maxtrainstep200_exh32_gamma099_lrac3e-4_lrcr1e-3/9fad910e57fbde25b93c61ef9d3287f531a6e420_ligand_2.pdbqt
 12 12 0 0 0
SMALL
GASTEIGER

@<TRIPOS>ATOM
      1  C          8.2720    0.1850   -2.1780 C.3     1  UNL1        0.1270
      2  C          9.3860    0.3500   -1.2130 C.2     1  UNL1        0.3030
      3  O          9.4770   -0.3840   -0.2170 O.2     1  UNL1       -0.2520
      4  O         10.3330    1.3330   -1.4260 O.3     1  UNL1       -0.4810
      5  H         10.2710    1.9890   -2.2000 H       1  UNL1        0.2960
      6  C          7.1220   -0.5510   -1.5380 C.3     1  UNL1        0.0470
      7  C          6.3350    0.2990   -0.6240 C.2     1  UNL1       -0.0470
      8  C          5.8070    1.5180   -0.9660 C.2     1  UNL1        0.0040
      9  C          6.1210   -0.1650    0.6520 C.2     1  UNL1        0.0040
     10  C          5.0830    2.2480   -0.0440 C.2     1  UNL1        0.0000
     11  C          5.4100    0.5410    1.5760 C.2     1  UNL1        0.0000
     12  C          4.8780    1.7660    1.2330 C.2     1  UNL1        0.0000
@<TRIPOS>BOND
     1     5     4    1
     2     1     6    1
     3     1     2    1
     4     6     7    1
     5     4     2    1
     6     2     3    2
     7     8     7    2
     8     8    10    1
     9     7     9    1
    10    10    12    2
    11     9    11    2
    12    12    11    1
