@<TRIPOS>MOLECULE
/home/cewinharhar/GITHUB/reincatalyze/data/processed/docking_pred/2023-Apr-25-1630_maxeplen5_maxtrainstep200_exh32_gamma099_lrac3e-4_lrcr1e-3/9fad910e57fbde25b93c61ef9d3287f531a6e420_ligand_2.pdbqt
 12 12 0 0 0
SMALL
GASTEIGER

@<TRIPOS>ATOM
      1  C          4.9860    1.8010    0.6810 C.3     1  UNL1        0.1270
      2  C          4.5060    1.1180    1.9050 C.2     1  UNL1        0.3030
      3  O          5.1940    0.2450    2.4560 O.2     1  UNL1       -0.2520
      4  O          3.2770    1.4570    2.4380 O.3     1  UNL1       -0.4810
      5  H          3.1750    1.8080    3.3860 H       1  UNL1        0.2960
      6  C          6.4930    1.8760    0.6720 C.3     1  UNL1        0.0470
      7  C          7.1000    1.0520   -0.3910 C.2     1  UNL1       -0.0470
      8  C          6.4100    0.1460   -1.1550 C.2     1  UNL1        0.0040
      9  C          8.4460    1.2070   -0.6260 C.2     1  UNL1        0.0040
     10  C          7.0610   -0.5850   -2.1300 C.2     1  UNL1        0.0000
     11  C          9.1070    0.4950   -1.5830 C.2     1  UNL1        0.0000
     12  C          8.4130   -0.4160   -2.3520 C.2     1  UNL1        0.0000
@<TRIPOS>BOND
     1    12    10    2
     2    12    11    1
     3    10     8    1
     4    11     9    2
     5     8     7    2
     6     9     7    1
     7     7     6    1
     8     6     1    1
     9     1     2    1
    10     2     4    1
    11     2     3    2
    12     4     5    1
