@<TRIPOS>MOLECULE
/home/cewinharhar/GITHUB/reincatalyze/data/processed/docking_pred/2023-Apr-25-1630_maxeplen5_maxtrainstep200_exh32_gamma099_lrac3e-4_lrcr1e-3/a1c3c4a97d6bd518e48ffa0772dda1f342f6565e_ligand_2.pdbqt
 12 12 0 0 0
SMALL
GASTEIGER

@<TRIPOS>ATOM
      1  C          5.4790    2.8420    0.0650 C.3     1  UNL1        0.1270
      2  C          6.2100    3.8550    0.8620 C.2     1  UNL1        0.3030
      3  O          6.1050    3.8880    2.0980 O.2     1  UNL1       -0.2520
      4  O          7.0180    4.7740    0.2210 O.3     1  UNL1       -0.4810
      5  H          6.7730    5.7580    0.1510 H       1  UNL1        0.2960
      6  C          4.9290    1.7600    0.9600 C.3     1  UNL1        0.0470
      7  C          5.7510    0.5340    0.9480 C.2     1  UNL1       -0.0470
      8  C          6.5050    0.1210   -0.1210 C.2     1  UNL1        0.0040
      9  C          5.7560   -0.2400    2.0830 C.2     1  UNL1        0.0040
     10  C          7.2450   -1.0430   -0.0450 C.2     1  UNL1        0.0000
     11  C          6.4790   -1.3930    2.1780 C.2     1  UNL1        0.0000
     12  C          7.2380   -1.8080    1.1040 C.2     1  UNL1        0.0000
@<TRIPOS>BOND
     1     8    10    1
     2     8     7    2
     3    10    12    2
     4     1     2    1
     5     1     6    1
     6     5     4    1
     7     4     2    1
     8     2     3    2
     9     7     6    1
    10     7     9    1
    11    12    11    1
    12     9    11    2
