@<TRIPOS>MOLECULE
/home/cewinharhar/GITHUB/reincatalyze/data/processed/docking_pred/2023-Apr-25-1630_maxeplen5_maxtrainstep200_exh32_gamma099_lrac3e-4_lrcr1e-3/a1c3c4a97d6bd518e48ffa0772dda1f342f6565e_ligand_2.pdbqt
 12 12 0 0 0
SMALL
GASTEIGER

@<TRIPOS>ATOM
      1  C          8.2060   -1.6010    1.1070 C.3     1  UNL1        0.1270
      2  C          8.5220   -2.8270    0.3380 C.2     1  UNL1        0.3030
      3  O          9.1730   -3.7500    0.8520 O.2     1  UNL1       -0.2520
      4  O          8.0880   -2.9430   -0.9690 O.3     1  UNL1       -0.4810
      5  H          8.7110   -3.2070   -1.7270 H       1  UNL1        0.2960
      6  C          6.7200   -1.4890    1.3400 C.3     1  UNL1        0.0470
      7  C          6.1570   -0.2170    0.8490 C.2     1  UNL1       -0.0470
      8  C          5.3850    0.6280    1.6040 C.2     1  UNL1        0.0040
      9  C          6.4270    0.1400   -0.4510 C.2     1  UNL1        0.0040
     10  C          4.8980    1.8020    1.0620 C.2     1  UNL1        0.0000
     11  C          5.9550    1.2930   -1.0050 C.2     1  UNL1        0.0000
     12  C          5.1790    2.1430   -0.2460 C.2     1  UNL1        0.0000
@<TRIPOS>BOND
     1     5     4    1
     2    11     9    1
     3    11    12    2
     4     4     2    1
     5     9     7    2
     6    12    10    1
     7     2     3    2
     8     2     1    1
     9     7     6    1
    10     7     8    1
    11    10     8    2
    12     1     6    1
