@<TRIPOS>MOLECULE
/home/cewinharhar/GITHUB/reincatalyze/data/processed/docking_pred/2023-Apr-25-1630_maxeplen5_maxtrainstep200_exh32_gamma099_lrac3e-4_lrcr1e-3/a1c3c4a97d6bd518e48ffa0772dda1f342f6565e_ligand_2.pdbqt
 12 12 0 0 0
SMALL
GASTEIGER

@<TRIPOS>ATOM
      1  C          8.4060   -0.6430   -2.1320 C.3     1  UNL1        0.1270
      2  C          8.4780   -1.9150   -2.8910 C.2     1  UNL1        0.3030
      3  O          9.5640   -2.4910   -3.0630 O.2     1  UNL1       -0.2520
      4  O          7.3230   -2.4650   -3.4120 O.3     1  UNL1       -0.4810
      5  H          7.0360   -2.3130   -4.3750 H       1  UNL1        0.2960
      6  C          6.9930   -0.1160   -2.1150 C.3     1  UNL1        0.0470
      7  C          6.4570    0.0410   -0.7490 C.2     1  UNL1       -0.0470
      8  C          5.8040    1.1600   -0.3000 C.2     1  UNL1        0.0040
      9  C          6.6270   -1.0060    0.1260 C.2     1  UNL1        0.0040
     10  C          5.3350    1.2210    0.9980 C.2     1  UNL1        0.0000
     11  C          6.1720   -0.9650    1.4110 C.2     1  UNL1        0.0000
     12  C          5.5150    0.1600    1.8630 C.2     1  UNL1        0.0000
@<TRIPOS>BOND
     1     5     4    1
     2     4     2    1
     3     3     2    2
     4     2     1    1
     5     1     6    1
     6     6     7    1
     7     7     8    2
     8     7     9    1
     9     8    10    1
    10     9    11    2
    11    10    12    2
    12    11    12    1
