@<TRIPOS>MOLECULE
/home/cewinharhar/GITHUB/reincatalyze/data/processed/docking_pred/2023-Apr-25-1630_maxeplen5_maxtrainstep200_exh32_gamma099_lrac3e-4_lrcr1e-3/a1c3c4a97d6bd518e48ffa0772dda1f342f6565e_ligand_2.pdbqt
 12 12 0 0 0
SMALL
GASTEIGER

@<TRIPOS>ATOM
      1  C          8.4340   -0.6050   -2.2140 C.3     1  UNL1        0.1270
      2  C          8.4850   -1.9020   -2.9300 C.2     1  UNL1        0.3030
      3  O          9.5610   -2.5010   -3.0840 O.2     1  UNL1       -0.2520
      4  O          7.3210   -2.4510   -3.4320 O.3     1  UNL1       -0.4810
      5  H          6.5500   -1.8790   -3.7640 H       1  UNL1        0.2960
      6  C          7.0200   -0.0820   -2.1660 C.3     1  UNL1        0.0470
      7  C          6.4960    0.0220   -0.7900 C.2     1  UNL1       -0.0470
      8  C          6.6010   -0.9670    0.1530 C.2     1  UNL1        0.0040
      9  C          5.8600    1.1890   -0.4390 C.2     1  UNL1        0.0040
     10  C          6.0790   -0.7830    1.4190 C.2     1  UNL1        0.0000
     11  C          5.3370    1.3900    0.8050 C.2     1  UNL1        0.0000
     12  C          5.4440    0.3960    1.7550 C.2     1  UNL1        0.0000
@<TRIPOS>BOND
     1     5     4    1
     2     4     2    1
     3     3     2    2
     4     2     1    1
     5     1     6    1
     6     6     7    1
     7     7     9    2
     8     7     8    1
     9     9    11    1
    10     8    10    2
    11    11    12    2
    12    10    12    1
