@<TRIPOS>MOLECULE
/home/cewinharhar/GITHUB/reincatalyze/data/processed/docking_pred/2023-Apr-25-1630_maxeplen5_maxtrainstep200_exh32_gamma099_lrac3e-4_lrcr1e-3/a1c3c4a97d6bd518e48ffa0772dda1f342f6565e_ligand_2.pdbqt
 12 12 0 0 0
SMALL
GASTEIGER

@<TRIPOS>ATOM
      1  C          4.9990    1.7720    0.6990 C.3     1  UNL1        0.1270
      2  C          4.4940    1.0990    1.9190 C.2     1  UNL1        0.3030
      3  O          5.1590    0.2110    2.4760 O.2     1  UNL1       -0.2520
      4  O          3.2690    1.4640    2.4430 O.3     1  UNL1       -0.4810
      5  H          2.8280    0.9520    3.2020 H       1  UNL1        0.2960
      6  C          6.5010    1.8940    0.7440 C.3     1  UNL1        0.0470
      7  C          7.1700    1.1360   -0.3310 C.2     1  UNL1       -0.0470
      8  C          8.5070    1.2250   -0.6210 C.2     1  UNL1        0.0040
      9  C          6.3970    0.2880   -1.0880 C.2     1  UNL1        0.0040
     10  C          9.0500    0.4770   -1.6480 C.2     1  UNL1        0.0000
     11  C          6.9140   -0.4580   -2.1060 C.2     1  UNL1        0.0000
     12  C          8.2580   -0.3700   -2.3980 C.2     1  UNL1        0.0000
@<TRIPOS>BOND
     1    12    11    2
     2    12    10    1
     3    11     9    1
     4    10     8    2
     5     9     7    2
     6     8     7    1
     7     7     6    1
     8     1     6    1
     9     1     2    1
    10     2     4    1
    11     2     3    2
    12     4     5    1
