MODEL 1
REMARK VINA RESULT:      -7.3      0.000      0.000
REMARK SMILES O=C(O)CCc1ccccc1
REMARK SMILES IDX 4 1 2 2 1 3 3 4 5 6 6 7 7 8 11 9 8 10 10 11 9 12
REMARK H PARENT 3 5
REMARK Flexibility Score: inf
ROOT
ATOM      1  C   UNL     1       8.434  -0.605  -2.214  1.00  0.00     0.127 C 
ENDROOT
BRANCH   1   2
ATOM      2  C   UNL     1       8.485  -1.902  -2.930  1.00  0.00     0.303 C 
ATOM      3  O   UNL     1       9.561  -2.501  -3.084  1.00  0.00    -0.252 OA
BRANCH   2   4
ATOM      4  O   UNL     1       7.321  -2.451  -3.432  1.00  0.00    -0.481 OA
ATOM      5  H   UNL     1       6.550  -1.879  -3.764  1.00  0.00     0.296 HD
ENDBRANCH   2   4
ENDBRANCH   1   2
BRANCH   1   6
ATOM      6  C   UNL     1       7.020  -0.082  -2.166  1.00  0.00     0.047 C 
BRANCH   6   7
ATOM      7  C   UNL     1       6.496   0.022  -0.790  1.00  0.00    -0.047 A 
ATOM      8  C   UNL     1       6.601  -0.967   0.153  1.00  0.00     0.004 A 
ATOM      9  C   UNL     1       5.860   1.189  -0.439  1.00  0.00     0.004 A 
ATOM     10  C   UNL     1       6.079  -0.783   1.419  1.00  0.00     0.000 A 
ATOM     11  C   UNL     1       5.337   1.390   0.805  1.00  0.00     0.000 A 
ATOM     12  C   UNL     1       5.444   0.396   1.755  1.00  0.00     0.000 A 
ENDBRANCH   6   7
ENDBRANCH   1   6
TORSDOF 4
ENDMDL
MODEL 2
REMARK VINA RESULT:      -7.3      0.143      1.431
REMARK SMILES O=C(O)CCc1ccccc1
REMARK SMILES IDX 4 1 2 2 1 3 3 4 5 6 6 7 7 8 11 9 8 10 10 11 9 12
REMARK H PARENT 3 5
REMARK Flexibility Score: inf
ROOT
ATOM      1  C   UNL     1       8.406  -0.643  -2.132  1.00  0.00     0.127 C 
ENDROOT
BRANCH   1   2
ATOM      2  C   UNL     1       8.478  -1.915  -2.891  1.00  0.00     0.303 C 
ATOM      3  O   UNL     1       9.564  -2.491  -3.063  1.00  0.00    -0.252 OA
BRANCH   2   4
ATOM      4  O   UNL     1       7.323  -2.465  -3.412  1.00  0.00    -0.481 OA
ATOM      5  H   UNL     1       7.036  -2.313  -4.375  1.00  0.00     0.296 HD
ENDBRANCH   2   4
ENDBRANCH   1   2
BRANCH   1   6
ATOM      6  C   UNL     1       6.993  -0.116  -2.115  1.00  0.00     0.047 C 
BRANCH   6   7
ATOM      7  C   UNL     1       6.457   0.041  -0.749  1.00  0.00    -0.047 A 
ATOM      8  C   UNL     1       5.804   1.160  -0.300  1.00  0.00     0.004 A 
ATOM      9  C   UNL     1       6.627  -1.006   0.126  1.00  0.00     0.004 A 
ATOM     10  C   UNL     1       5.335   1.221   0.998  1.00  0.00     0.000 A 
ATOM     11  C   UNL     1       6.172  -0.965   1.411  1.00  0.00     0.000 A 
ATOM     12  C   UNL     1       5.515   0.160   1.863  1.00  0.00     0.000 A 
ENDBRANCH   6   7
ENDBRANCH   1   6
TORSDOF 4
ENDMDL
MODEL 3
REMARK VINA RESULT:      -6.8      3.382      5.075
REMARK SMILES O=C(O)CCc1ccccc1
REMARK SMILES IDX 4 1 2 2 1 3 3 4 5 6 6 7 7 8 11 9 8 10 10 11 9 12
REMARK H PARENT 3 5
REMARK Flexibility Score: inf
ROOT
ATOM      1  C   UNL     1       4.999   1.772   0.699  1.00  0.00     0.127 C 
ENDROOT
BRANCH   1   2
ATOM      2  C   UNL     1       4.494   1.099   1.919  1.00  0.00     0.303 C 
ATOM      3  O   UNL     1       5.159   0.211   2.476  1.00  0.00    -0.252 OA
BRANCH   2   4
ATOM      4  O   UNL     1       3.269   1.464   2.443  1.00  0.00    -0.481 OA
ATOM      5  H   UNL     1       2.828   0.952   3.202  1.00  0.00     0.296 HD
ENDBRANCH   2   4
ENDBRANCH   1   2
BRANCH   1   6
ATOM      6  C   UNL     1       6.501   1.894   0.744  1.00  0.00     0.047 C 
BRANCH   6   7
ATOM      7  C   UNL     1       7.170   1.136  -0.331  1.00  0.00    -0.047 A 
ATOM      8  C   UNL     1       8.507   1.225  -0.621  1.00  0.00     0.004 A 
ATOM      9  C   UNL     1       6.397   0.288  -1.088  1.00  0.00     0.004 A 
ATOM     10  C   UNL     1       9.050   0.477  -1.648  1.00  0.00     0.000 A 
ATOM     11  C   UNL     1       6.914  -0.458  -2.106  1.00  0.00     0.000 A 
ATOM     12  C   UNL     1       8.258  -0.370  -2.398  1.00  0.00     0.000 A 
ENDBRANCH   6   7
ENDBRANCH   1   6
TORSDOF 4
ENDMDL
MODEL 4
REMARK VINA RESULT:      -6.6      3.834      5.026
REMARK SMILES O=C(O)CCc1ccccc1
REMARK SMILES IDX 4 1 2 2 1 3 3 4 5 6 6 7 7 8 11 9 8 10 10 11 9 12
REMARK H PARENT 3 5
REMARK Flexibility Score: inf
ROOT
ATOM      1  C   UNL     1       5.479   2.842   0.065  1.00  0.00     0.127 C 
ENDROOT
BRANCH   1   2
ATOM      2  C   UNL     1       6.210   3.855   0.862  1.00  0.00     0.303 C 
ATOM      3  O   UNL     1       6.105   3.888   2.098  1.00  0.00    -0.252 OA
BRANCH   2   4
ATOM      4  O   UNL     1       7.018   4.774   0.221  1.00  0.00    -0.481 OA
ATOM      5  H   UNL     1       6.773   5.758   0.151  1.00  0.00     0.296 HD
ENDBRANCH   2   4
ENDBRANCH   1   2
BRANCH   1   6
ATOM      6  C   UNL     1       4.929   1.760   0.960  1.00  0.00     0.047 C 
BRANCH   6   7
ATOM      7  C   UNL     1       5.751   0.534   0.948  1.00  0.00    -0.047 A 
ATOM      8  C   UNL     1       6.505   0.121  -0.121  1.00  0.00     0.004 A 
ATOM      9  C   UNL     1       5.756  -0.240   2.083  1.00  0.00     0.004 A 
ATOM     10  C   UNL     1       7.245  -1.043  -0.045  1.00  0.00     0.000 A 
ATOM     11  C   UNL     1       6.479  -1.393   2.178  1.00  0.00     0.000 A 
ATOM     12  C   UNL     1       7.238  -1.808   1.104  1.00  0.00     0.000 A 
ENDBRANCH   6   7
ENDBRANCH   1   6
TORSDOF 4
ENDMDL
MODEL 5
REMARK VINA RESULT:      -6.6      1.887      2.884
REMARK SMILES O=C(O)CCc1ccccc1
REMARK SMILES IDX 4 1 2 2 1 3 3 4 5 6 6 7 7 8 11 9 8 10 10 11 9 12
REMARK H PARENT 3 5
REMARK Flexibility Score: inf
ROOT
ATOM      1  C   UNL     1       8.206  -1.601   1.107  1.00  0.00     0.127 C 
ENDROOT
BRANCH   1   2
ATOM      2  C   UNL     1       8.522  -2.827   0.338  1.00  0.00     0.303 C 
ATOM      3  O   UNL     1       9.173  -3.750   0.852  1.00  0.00    -0.252 OA
BRANCH   2   4
ATOM      4  O   UNL     1       8.088  -2.943  -0.969  1.00  0.00    -0.481 OA
ATOM      5  H   UNL     1       8.711  -3.207  -1.727  1.00  0.00     0.296 HD
ENDBRANCH   2   4
ENDBRANCH   1   2
BRANCH   1   6
ATOM      6  C   UNL     1       6.720  -1.489   1.340  1.00  0.00     0.047 C 
BRANCH   6   7
ATOM      7  C   UNL     1       6.157  -0.217   0.849  1.00  0.00    -0.047 A 
ATOM      8  C   UNL     1       5.385   0.628   1.604  1.00  0.00     0.004 A 
ATOM      9  C   UNL     1       6.427   0.140  -0.451  1.00  0.00     0.004 A 
ATOM     10  C   UNL     1       4.898   1.802   1.062  1.00  0.00     0.000 A 
ATOM     11  C   UNL     1       5.955   1.293  -1.005  1.00  0.00     0.000 A 
ATOM     12  C   UNL     1       5.179   2.143  -0.246  1.00  0.00     0.000 A 
ENDBRANCH   6   7
ENDBRANCH   1   6
TORSDOF 4
ENDMDL
