@<TRIPOS>MOLECULE
/home/cewinharhar/GITHUB/reincatalyze/data/processed/docking_pred/2023-Apr-25-1630_maxeplen5_maxtrainstep200_exh32_gamma099_lrac3e-4_lrcr1e-3/a991e05863b38587be5f018959c733685726fb49_ligand_2.pdbqt
 12 12 0 0 0
SMALL
GASTEIGER

@<TRIPOS>ATOM
      1  C          8.5360   -0.6700   -2.1080 C.3     1  UNL1        0.1270
      2  C          8.5580   -1.9380   -2.8750 C.2     1  UNL1        0.3030
      3  O          9.6220   -2.5480   -3.0620 O.2     1  UNL1       -0.2520
      4  O          7.3800   -2.4450   -3.3880 O.3     1  UNL1       -0.4810
      5  H          6.4960   -2.3700   -2.8950 H       1  UNL1        0.2960
      6  C          7.1530   -0.0680   -2.1190 C.3     1  UNL1        0.0470
      7  C          6.5650    0.0410   -0.7700 C.2     1  UNL1       -0.0470
      8  C          6.6470   -0.9360    0.1890 C.2     1  UNL1        0.0040
      9  C          5.8900    1.1980   -0.4610 C.2     1  UNL1        0.0040
     10  C          6.0640   -0.7490    1.4270 C.2     1  UNL1        0.0000
     11  C          5.3080    1.4010    0.7550 C.2     1  UNL1        0.0000
     12  C          5.3910    0.4200    1.7200 C.2     1  UNL1        0.0000
@<TRIPOS>BOND
     1     4     5    1
     2     4     2    1
     3     3     2    2
     4     2     1    1
     5     6     1    1
     6     6     7    1
     7     7     9    2
     8     7     8    1
     9     9    11    1
    10     8    10    2
    11    11    12    2
    12    10    12    1
