@<TRIPOS>MOLECULE
/home/cewinharhar/GITHUB/reincatalyze/data/processed/docking_pred/2023-Apr-25-1630_maxeplen5_maxtrainstep200_exh32_gamma099_lrac3e-4_lrcr1e-3/a991e05863b38587be5f018959c733685726fb49_ligand_2.pdbqt
 12 12 0 0 0
SMALL
GASTEIGER

@<TRIPOS>ATOM
      1  C          8.7020    0.6770   -1.6660 C.3     1  UNL1        0.1270
      2  C          9.8460   -0.1230   -1.1700 C.2     1  UNL1        0.3030
      3  O          9.7640   -1.3570   -1.0720 O.2     1  UNL1       -0.2520
      4  O         11.0190    0.5130   -0.8110 O.3     1  UNL1       -0.4810
      5  H         11.0260    1.3910   -0.2980 H       1  UNL1        0.2960
      6  C          7.4320   -0.1370   -1.6320 C.3     1  UNL1        0.0470
      7  C          6.6230    0.1120   -0.4240 C.2     1  UNL1       -0.0470
      8  C          6.5190   -0.7600    0.6290 C.2     1  UNL1        0.0040
      9  C          5.9300    1.2970   -0.3550 C.2     1  UNL1        0.0040
     10  C          5.7360   -0.4440    1.7230 C.2     1  UNL1        0.0000
     11  C          5.1520    1.6270    0.7150 C.2     1  UNL1        0.0000
     12  C          5.0470    0.7510    1.7740 C.2     1  UNL1        0.0000
@<TRIPOS>BOND
     1     1     6    1
     2     1     2    1
     3     6     7    1
     4     2     3    2
     5     2     4    1
     6     4     5    1
     7     7     9    2
     8     7     8    1
     9     9    11    1
    10     8    10    2
    11    11    12    2
    12    10    12    1
