MODEL 1
REMARK VINA RESULT:      -7.0      0.000      0.000
REMARK SMILES O=C(O)CCc1ccccc1
REMARK SMILES IDX 4 1 2 2 1 3 3 4 5 6 6 7 7 8 11 9 8 10 10 11 9 12
REMARK H PARENT 3 5
REMARK Flexibility Score: inf
ROOT
ATOM      1  C   UNL     1       8.536  -0.670  -2.108  1.00  0.00     0.127 C 
ENDROOT
BRANCH   1   2
ATOM      2  C   UNL     1       8.558  -1.938  -2.875  1.00  0.00     0.303 C 
ATOM      3  O   UNL     1       9.622  -2.548  -3.062  1.00  0.00    -0.252 OA
BRANCH   2   4
ATOM      4  O   UNL     1       7.380  -2.445  -3.388  1.00  0.00    -0.481 OA
ATOM      5  H   UNL     1       6.496  -2.370  -2.895  1.00  0.00     0.296 HD
ENDBRANCH   2   4
ENDBRANCH   1   2
BRANCH   1   6
ATOM      6  C   UNL     1       7.153  -0.068  -2.119  1.00  0.00     0.047 C 
BRANCH   6   7
ATOM      7  C   UNL     1       6.565   0.041  -0.770  1.00  0.00    -0.047 A 
ATOM      8  C   UNL     1       6.647  -0.936   0.189  1.00  0.00     0.004 A 
ATOM      9  C   UNL     1       5.890   1.198  -0.461  1.00  0.00     0.004 A 
ATOM     10  C   UNL     1       6.064  -0.749   1.427  1.00  0.00     0.000 A 
ATOM     11  C   UNL     1       5.308   1.401   0.755  1.00  0.00     0.000 A 
ATOM     12  C   UNL     1       5.391   0.420   1.720  1.00  0.00     0.000 A 
ENDBRANCH   6   7
ENDBRANCH   1   6
TORSDOF 4
ENDMDL
MODEL 2
REMARK VINA RESULT:      -6.9      0.203      1.440
REMARK SMILES O=C(O)CCc1ccccc1
REMARK SMILES IDX 4 1 2 2 1 3 3 4 5 6 6 7 7 8 11 9 8 10 10 11 9 12
REMARK H PARENT 3 5
REMARK Flexibility Score: inf
ROOT
ATOM      1  C   UNL     1       8.526  -0.481  -2.054  1.00  0.00     0.127 C 
ENDROOT
BRANCH   1   2
ATOM      2  C   UNL     1       8.737  -1.767  -2.760  1.00  0.00     0.303 C 
ATOM      3  O   UNL     1       9.871  -2.262  -2.853  1.00  0.00    -0.252 OA
BRANCH   2   4
ATOM      4  O   UNL     1       7.658  -2.422  -3.322  1.00  0.00    -0.481 OA
ATOM      5  H   UNL     1       7.223  -3.229  -2.882  1.00  0.00     0.296 HD
ENDBRANCH   2   4
ENDBRANCH   1   2
BRANCH   1   6
ATOM      6  C   UNL     1       7.074  -0.075  -2.116  1.00  0.00     0.047 C 
BRANCH   6   7
ATOM      7  C   UNL     1       6.480   0.133  -0.782  1.00  0.00    -0.047 A 
ATOM      8  C   UNL     1       5.828   1.276  -0.397  1.00  0.00     0.004 A 
ATOM      9  C   UNL     1       6.592  -0.888   0.131  1.00  0.00     0.004 A 
ATOM     10  C   UNL     1       5.301   1.385   0.876  1.00  0.00     0.000 A 
ATOM     11  C   UNL     1       6.080  -0.800   1.392  1.00  0.00     0.000 A 
ATOM     12  C   UNL     1       5.423   0.348   1.779  1.00  0.00     0.000 A 
ENDBRANCH   6   7
ENDBRANCH   1   6
TORSDOF 4
ENDMDL
MODEL 3
REMARK VINA RESULT:      -6.6      3.368      5.080
REMARK SMILES O=C(O)CCc1ccccc1
REMARK SMILES IDX 4 1 2 2 1 3 3 4 5 6 6 7 7 8 11 9 8 10 10 11 9 12
REMARK H PARENT 3 5
REMARK Flexibility Score: inf
ROOT
ATOM      1  C   UNL     1       4.983   1.801   0.708  1.00  0.00     0.127 C 
ENDROOT
BRANCH   1   2
ATOM      2  C   UNL     1       4.486   1.110   1.921  1.00  0.00     0.303 C 
ATOM      3  O   UNL     1       5.158   0.220   2.465  1.00  0.00    -0.252 OA
BRANCH   2   4
ATOM      4  O   UNL     1       3.259   1.459   2.451  1.00  0.00    -0.481 OA
ATOM      5  H   UNL     1       2.382   1.153   2.039  1.00  0.00     0.296 HD
ENDBRANCH   2   4
ENDBRANCH   1   2
BRANCH   1   6
ATOM      6  C   UNL     1       6.491   1.852   0.707  1.00  0.00     0.047 C 
BRANCH   6   7
ATOM      7  C   UNL     1       7.090   1.053  -0.379  1.00  0.00    -0.047 A 
ATOM      8  C   UNL     1       6.396   0.157  -1.152  1.00  0.00     0.004 A 
ATOM      9  C   UNL     1       8.431   1.219  -0.627  1.00  0.00     0.004 A 
ATOM     10  C   UNL     1       7.038  -0.551  -2.149  1.00  0.00     0.000 A 
ATOM     11  C   UNL     1       9.084   0.530  -1.606  1.00  0.00     0.000 A 
ATOM     12  C   UNL     1       8.387  -0.369  -2.384  1.00  0.00     0.000 A 
ENDBRANCH   6   7
ENDBRANCH   1   6
TORSDOF 4
ENDMDL
MODEL 4
REMARK VINA RESULT:      -6.6      1.519      2.389
REMARK SMILES O=C(O)CCc1ccccc1
REMARK SMILES IDX 4 1 2 2 1 3 3 4 5 6 6 7 7 8 11 9 8 10 10 11 9 12
REMARK H PARENT 3 5
REMARK Flexibility Score: inf
ROOT
ATOM      1  C   UNL     1       8.430   0.528  -2.087  1.00  0.00     0.127 C 
ENDROOT
BRANCH   1   2
ATOM      2  C   UNL     1       9.608  -0.059  -1.406  1.00  0.00     0.303 C 
ATOM      3  O   UNL     1       9.683  -1.282  -1.208  1.00  0.00    -0.252 OA
BRANCH   2   4
ATOM      4  O   UNL     1      10.635   0.765  -0.987  1.00  0.00    -0.481 OA
ATOM      5  H   UNL     1      11.321   0.470  -0.299  1.00  0.00     0.296 HD
ENDBRANCH   2   4
ENDBRANCH   1   2
BRANCH   1   6
ATOM      6  C   UNL     1       7.201  -0.310  -1.835  1.00  0.00     0.047 C 
BRANCH   6   7
ATOM      7  C   UNL     1       6.479   0.085  -0.610  1.00  0.00    -0.047 A 
ATOM      8  C   UNL     1       5.808   1.271  -0.458  1.00  0.00     0.004 A 
ATOM      9  C   UNL     1       6.485  -0.797   0.445  1.00  0.00     0.004 A 
ATOM     10  C   UNL     1       5.159   1.560   0.727  1.00  0.00     0.000 A 
ATOM     11  C   UNL     1       5.851  -0.531   1.622  1.00  0.00     0.000 A 
ATOM     12  C   UNL     1       5.176   0.661   1.776  1.00  0.00     0.000 A 
ENDBRANCH   6   7
ENDBRANCH   1   6
TORSDOF 4
ENDMDL
MODEL 5
REMARK VINA RESULT:      -6.5      1.596      2.028
REMARK SMILES O=C(O)CCc1ccccc1
REMARK SMILES IDX 4 1 2 2 1 3 3 4 5 6 6 7 7 8 11 9 8 10 10 11 9 12
REMARK H PARENT 3 5
REMARK Flexibility Score: inf
ROOT
ATOM      1  C   UNL     1       8.702   0.677  -1.666  1.00  0.00     0.127 C 
ENDROOT
BRANCH   1   2
ATOM      2  C   UNL     1       9.846  -0.123  -1.170  1.00  0.00     0.303 C 
ATOM      3  O   UNL     1       9.764  -1.357  -1.072  1.00  0.00    -0.252 OA
BRANCH   2   4
ATOM      4  O   UNL     1      11.019   0.513  -0.811  1.00  0.00    -0.481 OA
ATOM      5  H   UNL     1      11.026   1.391  -0.298  1.00  0.00     0.296 HD
ENDBRANCH   2   4
ENDBRANCH   1   2
BRANCH   1   6
ATOM      6  C   UNL     1       7.432  -0.137  -1.632  1.00  0.00     0.047 C 
BRANCH   6   7
ATOM      7  C   UNL     1       6.623   0.112  -0.424  1.00  0.00    -0.047 A 
ATOM      8  C   UNL     1       6.519  -0.760   0.629  1.00  0.00     0.004 A 
ATOM      9  C   UNL     1       5.930   1.297  -0.355  1.00  0.00     0.004 A 
ATOM     10  C   UNL     1       5.736  -0.444   1.723  1.00  0.00     0.000 A 
ATOM     11  C   UNL     1       5.152   1.627   0.715  1.00  0.00     0.000 A 
ATOM     12  C   UNL     1       5.047   0.751   1.774  1.00  0.00     0.000 A 
ENDBRANCH   6   7
ENDBRANCH   1   6
TORSDOF 4
ENDMDL
