@<TRIPOS>MOLECULE
/home/cewinharhar/GITHUB/reincatalyze/data/processed/docking_pred/2023-Apr-25-1630_maxeplen5_maxtrainstep200_exh32_gamma099_lrac3e-4_lrcr1e-3/a991e05863b38587be5f018959c733685726fb49_ligand_2.pdbqt
 12 12 0 0 0
SMALL
GASTEIGER

@<TRIPOS>ATOM
      1  C          4.9830    1.8010    0.7080 C.3     1  UNL1        0.1270
      2  C          4.4860    1.1100    1.9210 C.2     1  UNL1        0.3030
      3  O          5.1580    0.2200    2.4650 O.2     1  UNL1       -0.2520
      4  O          3.2590    1.4590    2.4510 O.3     1  UNL1       -0.4810
      5  H          2.3820    1.1530    2.0390 H       1  UNL1        0.2960
      6  C          6.4910    1.8520    0.7070 C.3     1  UNL1        0.0470
      7  C          7.0900    1.0530   -0.3790 C.2     1  UNL1       -0.0470
      8  C          6.3960    0.1570   -1.1520 C.2     1  UNL1        0.0040
      9  C          8.4310    1.2190   -0.6270 C.2     1  UNL1        0.0040
     10  C          7.0380   -0.5510   -2.1490 C.2     1  UNL1        0.0000
     11  C          9.0840    0.5300   -1.6060 C.2     1  UNL1        0.0000
     12  C          8.3870   -0.3690   -2.3840 C.2     1  UNL1        0.0000
@<TRIPOS>BOND
     1    12    10    2
     2    12    11    1
     3    10     8    1
     4    11     9    2
     5     8     7    2
     6     9     7    1
     7     7     6    1
     8     6     1    1
     9     1     2    1
    10     2     4    1
    11     2     3    2
    12     5     4    1
