@<TRIPOS>MOLECULE
/home/cewinharhar/GITHUB/reincatalyze/data/processed/docking_pred/2023-Apr-25-1630_maxeplen5_maxtrainstep200_exh32_gamma099_lrac3e-4_lrcr1e-3/a991e05863b38587be5f018959c733685726fb49_ligand_2.pdbqt
 12 12 0 0 0
SMALL
GASTEIGER

@<TRIPOS>ATOM
      1  C          8.4300    0.5280   -2.0870 C.3     1  UNL1        0.1270
      2  C          9.6080   -0.0590   -1.4060 C.2     1  UNL1        0.3030
      3  O          9.6830   -1.2820   -1.2080 O.2     1  UNL1       -0.2520
      4  O         10.6350    0.7650   -0.9870 O.3     1  UNL1       -0.4810
      5  H         11.3210    0.4700   -0.2990 H       1  UNL1        0.2960
      6  C          7.2010   -0.3100   -1.8350 C.3     1  UNL1        0.0470
      7  C          6.4790    0.0850   -0.6100 C.2     1  UNL1       -0.0470
      8  C          5.8080    1.2710   -0.4580 C.2     1  UNL1        0.0040
      9  C          6.4850   -0.7970    0.4450 C.2     1  UNL1        0.0040
     10  C          5.1590    1.5600    0.7270 C.2     1  UNL1        0.0000
     11  C          5.8510   -0.5310    1.6220 C.2     1  UNL1        0.0000
     12  C          5.1760    0.6610    1.7760 C.2     1  UNL1        0.0000
@<TRIPOS>BOND
     1     1     6    1
     2     1     2    1
     3     6     7    1
     4     2     3    2
     5     2     4    1
     6     4     5    1
     7     7     8    2
     8     7     9    1
     9     8    10    1
    10     9    11    2
    11    10    12    2
    12    11    12    1
