@<TRIPOS>MOLECULE
/home/cewinharhar/GITHUB/reincatalyze/data/processed/docking_pred/2023-Apr-25-1630_maxeplen5_maxtrainstep200_exh32_gamma099_lrac3e-4_lrcr1e-3/a9d08a951453574d65a810177cdd831b7fbb923c_ligand_2.pdbqt
 12 12 0 0 0
SMALL
GASTEIGER

@<TRIPOS>ATOM
      1  C          5.0400    1.7130    0.6910 C.3     1  UNL1        0.1270
      2  C          4.6010    1.0270    1.9290 C.2     1  UNL1        0.3030
      3  O          5.3270    0.1870    2.4820 O.2     1  UNL1       -0.2520
      4  O          3.3680    1.3280    2.4750 O.3     1  UNL1       -0.4810
      5  H          3.1220    1.0830    3.4300 H       1  UNL1        0.2960
      6  C          6.5380    1.8900    0.6850 C.3     1  UNL1        0.0470
      7  C          7.2040    1.1040   -0.3720 C.2     1  UNL1       -0.0470
      8  C          8.5410    1.1810   -0.6640 C.2     1  UNL1        0.0040
      9  C          6.4280    0.2420   -1.1090 C.2     1  UNL1        0.0040
     10  C          9.0810    0.4070   -1.6730 C.2     1  UNL1        0.0000
     11  C          6.9410   -0.5290   -2.1100 C.2     1  UNL1        0.0000
     12  C          8.2860   -0.4530   -2.4030 C.2     1  UNL1        0.0000
@<TRIPOS>BOND
     1    12    11    2
     2    12    10    1
     3    11     9    1
     4    10     8    2
     5     9     7    2
     6     8     7    1
     7     7     6    1
     8     6     1    1
     9     1     2    1
    10     2     4    1
    11     2     3    2
    12     4     5    1
