@<TRIPOS>MOLECULE
/home/cewinharhar/GITHUB/reincatalyze/data/processed/docking_pred/2023-Apr-25-1630_maxeplen5_maxtrainstep200_exh32_gamma099_lrac3e-4_lrcr1e-3/a9d08a951453574d65a810177cdd831b7fbb923c_ligand_2.pdbqt
 12 12 0 0 0
SMALL
GASTEIGER

@<TRIPOS>ATOM
      1  C          8.4060   -0.5780   -2.2650 C.3     1  UNL1        0.1270
      2  C          8.4620   -1.9000   -2.9320 C.2     1  UNL1        0.3030
      3  O          9.5400   -2.5010   -3.0610 O.2     1  UNL1       -0.2520
      4  O          7.3010   -2.4700   -3.4170 O.3     1  UNL1       -0.4810
      5  H          7.2940   -3.3680   -3.8920 H       1  UNL1        0.2960
      6  C          6.9820   -0.0860   -2.1840 C.3     1  UNL1        0.0470
      7  C          6.4860    0.0050   -0.7970 C.2     1  UNL1       -0.0470
      8  C          6.6080   -0.9950    0.1340 C.2     1  UNL1        0.0040
      9  C          5.8600    1.1690   -0.4190 C.2     1  UNL1        0.0040
     10  C          6.1130   -0.8240    1.4120 C.2     1  UNL1        0.0000
     11  C          5.3630    1.3570    0.8370 C.2     1  UNL1        0.0000
     12  C          5.4870    0.3530    1.7730 C.2     1  UNL1        0.0000
@<TRIPOS>BOND
     1     5     4    1
     2     4     2    1
     3     3     2    2
     4     2     1    1
     5     1     6    1
     6     6     7    1
     7     7     9    2
     8     7     8    1
     9     9    11    1
    10     8    10    2
    11    11    12    2
    12    10    12    1
