@<TRIPOS>MOLECULE
/home/cewinharhar/GITHUB/reincatalyze/data/processed/docking_pred/2023-Apr-25-1630_maxeplen5_maxtrainstep200_exh32_gamma099_lrac3e-4_lrcr1e-3/a9d08a951453574d65a810177cdd831b7fbb923c_ligand_2.pdbqt
 12 12 0 0 0
SMALL
GASTEIGER

@<TRIPOS>ATOM
      1  C          5.4790    2.9010    0.0240 C.3     1  UNL1        0.1270
      2  C          6.2580    3.8900    0.8070 C.2     1  UNL1        0.3030
      3  O          6.9270    4.7660    0.2380 O.2     1  UNL1       -0.2520
      4  O          6.2400    3.8330    2.1880 O.3     1  UNL1       -0.4810
      5  H          6.1710    4.6670    2.7650 H       1  UNL1        0.2960
      6  C          4.9530    1.8100    0.9220 C.3     1  UNL1        0.0470
      7  C          5.7990    0.6010    0.9100 C.2     1  UNL1       -0.0470
      8  C          6.6070    0.2350   -0.1360 C.2     1  UNL1        0.0040
      9  C          5.7710   -0.2080    2.0210 C.2     1  UNL1        0.0040
     10  C          7.3670   -0.9170   -0.0620 C.2     1  UNL1        0.0000
     11  C          6.5120   -1.3490    2.1130 C.2     1  UNL1        0.0000
     12  C          7.3250   -1.7170    1.0620 C.2     1  UNL1        0.0000
@<TRIPOS>BOND
     1     8    10    1
     2     8     7    2
     3    10    12    2
     4     1     2    1
     5     1     6    1
     6     3     2    2
     7     2     4    1
     8     7     6    1
     9     7     9    1
    10    12    11    1
    11     9    11    2
    12     4     5    1
