@<TRIPOS>MOLECULE
/home/cewinharhar/GITHUB/reincatalyze/data/processed/docking_pred/2023-Apr-25-1630_maxeplen5_maxtrainstep200_exh32_gamma099_lrac3e-4_lrcr1e-3/a9d08a951453574d65a810177cdd831b7fbb923c_ligand_2.pdbqt
 12 12 0 0 0
SMALL
GASTEIGER

@<TRIPOS>ATOM
      1  C          8.2740    0.2600   -2.1560 C.3     1  UNL1        0.1270
      2  C          9.3980    0.3580   -1.1950 C.2     1  UNL1        0.3030
      3  O          9.4640   -0.4020   -0.2160 O.2     1  UNL1       -0.2520
      4  O         10.3830    1.3060   -1.3920 O.3     1  UNL1       -0.4810
      5  H         11.2790    1.0790   -1.8140 H       1  UNL1        0.2960
      6  C          7.1370   -0.5340   -1.5630 C.3     1  UNL1        0.0470
      7  C          6.3550    0.2350   -0.5770 C.2     1  UNL1       -0.0470
      8  C          6.1090   -0.1800    0.7070 C.2     1  UNL1        0.0040
      9  C          5.8390    1.4450   -0.9770 C.2     1  UNL1        0.0040
     10  C          5.3640    0.6060    1.5650 C.2     1  UNL1        0.0000
     11  C          5.1010    2.2350   -0.1460 C.2     1  UNL1        0.0000
     12  C          4.8550    1.8190    1.1450 C.2     1  UNL1        0.0000
@<TRIPOS>BOND
     1     1     6    1
     2     1     2    1
     3     5     4    1
     4     6     7    1
     5     4     2    1
     6     2     3    2
     7     9     7    2
     8     9    11    1
     9     7     8    1
    10    11    12    2
    11     8    10    2
    12    12    10    1
