@<TRIPOS>MOLECULE
/home/cewinharhar/GITHUB/reincatalyze/data/processed/docking_pred/2023-Apr-25-1630_maxeplen5_maxtrainstep200_exh32_gamma099_lrac3e-4_lrcr1e-3/a9d08a951453574d65a810177cdd831b7fbb923c_ligand_2.pdbqt
 12 12 0 0 0
SMALL
GASTEIGER

@<TRIPOS>ATOM
      1  C          8.4210   -0.6310   -2.1320 C.3     1  UNL1        0.1270
      2  C          8.4900   -1.8980   -2.8980 C.2     1  UNL1        0.3030
      3  O          9.5740   -2.4730   -3.0780 O.2     1  UNL1       -0.2520
      4  O          7.3320   -2.4460   -3.4160 O.3     1  UNL1       -0.4810
      5  H          6.8460   -3.2160   -2.9660 H       1  UNL1        0.2960
      6  C          7.0140   -0.0870   -2.1320 C.3     1  UNL1        0.0470
      7  C          6.4660    0.0830   -0.7730 C.2     1  UNL1       -0.0470
      8  C          5.8270    1.2140   -0.3340 C.2     1  UNL1        0.0040
      9  C          6.6090   -0.9630    0.1070 C.2     1  UNL1        0.0040
     10  C          5.3450    1.2880    0.9580 C.2     1  UNL1        0.0000
     11  C          6.1410   -0.9100    1.3870 C.2     1  UNL1        0.0000
     12  C          5.4980    0.2270    1.8280 C.2     1  UNL1        0.0000
@<TRIPOS>BOND
     1     4     5    1
     2     4     2    1
     3     3     2    2
     4     2     1    1
     5     1     6    1
     6     6     7    1
     7     7     8    2
     8     7     9    1
     9     8    10    1
    10     9    11    2
    11    10    12    2
    12    11    12    1
