MODEL 1
REMARK VINA RESULT:      -7.3      0.000      0.000
REMARK SMILES O=C(O)CCc1ccccc1
REMARK SMILES IDX 4 1 2 2 1 3 3 4 5 6 6 7 7 8 11 9 8 10 10 11 9 12
REMARK H PARENT 3 5
REMARK Flexibility Score: inf
ROOT
ATOM      1  C   UNL     1       8.421  -0.631  -2.132  1.00  0.00     0.127 C 
ENDROOT
BRANCH   1   2
ATOM      2  C   UNL     1       8.490  -1.898  -2.898  1.00  0.00     0.303 C 
ATOM      3  O   UNL     1       9.574  -2.473  -3.078  1.00  0.00    -0.252 OA
BRANCH   2   4
ATOM      4  O   UNL     1       7.332  -2.446  -3.416  1.00  0.00    -0.481 OA
ATOM      5  H   UNL     1       6.846  -3.216  -2.966  1.00  0.00     0.296 HD
ENDBRANCH   2   4
ENDBRANCH   1   2
BRANCH   1   6
ATOM      6  C   UNL     1       7.014  -0.087  -2.132  1.00  0.00     0.047 C 
BRANCH   6   7
ATOM      7  C   UNL     1       6.466   0.083  -0.773  1.00  0.00    -0.047 A 
ATOM      8  C   UNL     1       5.827   1.214  -0.334  1.00  0.00     0.004 A 
ATOM      9  C   UNL     1       6.609  -0.963   0.107  1.00  0.00     0.004 A 
ATOM     10  C   UNL     1       5.345   1.288   0.958  1.00  0.00     0.000 A 
ATOM     11  C   UNL     1       6.141  -0.910   1.387  1.00  0.00     0.000 A 
ATOM     12  C   UNL     1       5.498   0.227   1.828  1.00  0.00     0.000 A 
ENDBRANCH   6   7
ENDBRANCH   1   6
TORSDOF 4
ENDMDL
MODEL 2
REMARK VINA RESULT:      -7.3      0.094      1.429
REMARK SMILES O=C(O)CCc1ccccc1
REMARK SMILES IDX 4 1 2 2 1 3 3 4 5 6 6 7 7 8 11 9 8 10 10 11 9 12
REMARK H PARENT 3 5
REMARK Flexibility Score: inf
ROOT
ATOM      1  C   UNL     1       8.406  -0.578  -2.265  1.00  0.00     0.127 C 
ENDROOT
BRANCH   1   2
ATOM      2  C   UNL     1       8.462  -1.900  -2.932  1.00  0.00     0.303 C 
ATOM      3  O   UNL     1       9.540  -2.501  -3.061  1.00  0.00    -0.252 OA
BRANCH   2   4
ATOM      4  O   UNL     1       7.301  -2.470  -3.417  1.00  0.00    -0.481 OA
ATOM      5  H   UNL     1       7.294  -3.368  -3.892  1.00  0.00     0.296 HD
ENDBRANCH   2   4
ENDBRANCH   1   2
BRANCH   1   6
ATOM      6  C   UNL     1       6.982  -0.086  -2.184  1.00  0.00     0.047 C 
BRANCH   6   7
ATOM      7  C   UNL     1       6.486   0.005  -0.797  1.00  0.00    -0.047 A 
ATOM      8  C   UNL     1       6.608  -0.995   0.134  1.00  0.00     0.004 A 
ATOM      9  C   UNL     1       5.860   1.169  -0.419  1.00  0.00     0.004 A 
ATOM     10  C   UNL     1       6.113  -0.824   1.412  1.00  0.00     0.000 A 
ATOM     11  C   UNL     1       5.363   1.357   0.837  1.00  0.00     0.000 A 
ATOM     12  C   UNL     1       5.487   0.353   1.773  1.00  0.00     0.000 A 
ENDBRANCH   6   7
ENDBRANCH   1   6
TORSDOF 4
ENDMDL
MODEL 3
REMARK VINA RESULT:      -6.7      3.350      5.024
REMARK SMILES O=C(O)CCc1ccccc1
REMARK SMILES IDX 4 1 2 2 1 3 3 4 5 6 6 7 7 8 11 9 8 10 10 11 9 12
REMARK H PARENT 3 5
REMARK Flexibility Score: inf
ROOT
ATOM      1  C   UNL     1       5.040   1.713   0.691  1.00  0.00     0.127 C 
ENDROOT
BRANCH   1   2
ATOM      2  C   UNL     1       4.601   1.027   1.929  1.00  0.00     0.303 C 
ATOM      3  O   UNL     1       5.327   0.187   2.482  1.00  0.00    -0.252 OA
BRANCH   2   4
ATOM      4  O   UNL     1       3.368   1.328   2.475  1.00  0.00    -0.481 OA
ATOM      5  H   UNL     1       3.122   1.083   3.430  1.00  0.00     0.296 HD
ENDBRANCH   2   4
ENDBRANCH   1   2
BRANCH   1   6
ATOM      6  C   UNL     1       6.538   1.890   0.685  1.00  0.00     0.047 C 
BRANCH   6   7
ATOM      7  C   UNL     1       7.204   1.104  -0.372  1.00  0.00    -0.047 A 
ATOM      8  C   UNL     1       8.541   1.181  -0.664  1.00  0.00     0.004 A 
ATOM      9  C   UNL     1       6.428   0.242  -1.109  1.00  0.00     0.004 A 
ATOM     10  C   UNL     1       9.081   0.407  -1.673  1.00  0.00     0.000 A 
ATOM     11  C   UNL     1       6.941  -0.529  -2.110  1.00  0.00     0.000 A 
ATOM     12  C   UNL     1       8.286  -0.453  -2.403  1.00  0.00     0.000 A 
ENDBRANCH   6   7
ENDBRANCH   1   6
TORSDOF 4
ENDMDL
MODEL 4
REMARK VINA RESULT:      -6.7      1.945      2.671
REMARK SMILES O=C(O)CCc1ccccc1
REMARK SMILES IDX 4 1 2 2 1 3 3 4 5 6 6 7 7 8 11 9 8 10 10 11 9 12
REMARK H PARENT 3 5
REMARK Flexibility Score: inf
ROOT
ATOM      1  C   UNL     1       8.274   0.260  -2.156  1.00  0.00     0.127 C 
ENDROOT
BRANCH   1   2
ATOM      2  C   UNL     1       9.398   0.358  -1.195  1.00  0.00     0.303 C 
ATOM      3  O   UNL     1       9.464  -0.402  -0.216  1.00  0.00    -0.252 OA
BRANCH   2   4
ATOM      4  O   UNL     1      10.383   1.306  -1.392  1.00  0.00    -0.481 OA
ATOM      5  H   UNL     1      11.279   1.079  -1.814  1.00  0.00     0.296 HD
ENDBRANCH   2   4
ENDBRANCH   1   2
BRANCH   1   6
ATOM      6  C   UNL     1       7.137  -0.534  -1.563  1.00  0.00     0.047 C 
BRANCH   6   7
ATOM      7  C   UNL     1       6.355   0.235  -0.577  1.00  0.00    -0.047 A 
ATOM      8  C   UNL     1       6.109  -0.180   0.707  1.00  0.00     0.004 A 
ATOM      9  C   UNL     1       5.839   1.445  -0.977  1.00  0.00     0.004 A 
ATOM     10  C   UNL     1       5.364   0.606   1.565  1.00  0.00     0.000 A 
ATOM     11  C   UNL     1       5.101   2.235  -0.146  1.00  0.00     0.000 A 
ATOM     12  C   UNL     1       4.855   1.819   1.145  1.00  0.00     0.000 A 
ENDBRANCH   6   7
ENDBRANCH   1   6
TORSDOF 4
ENDMDL
MODEL 5
REMARK VINA RESULT:      -6.7      3.816      4.920
REMARK SMILES O=C(O)CCc1ccccc1
REMARK SMILES IDX 4 1 2 2 1 3 3 4 5 6 6 7 7 8 11 9 8 10 10 11 9 12
REMARK H PARENT 3 5
REMARK Flexibility Score: inf
ROOT
ATOM      1  C   UNL     1       5.479   2.901   0.024  1.00  0.00     0.127 C 
ENDROOT
BRANCH   1   2
ATOM      2  C   UNL     1       6.258   3.890   0.807  1.00  0.00     0.303 C 
ATOM      3  O   UNL     1       6.927   4.766   0.238  1.00  0.00    -0.252 OA
BRANCH   2   4
ATOM      4  O   UNL     1       6.240   3.833   2.188  1.00  0.00    -0.481 OA
ATOM      5  H   UNL     1       6.171   4.667   2.765  1.00  0.00     0.296 HD
ENDBRANCH   2   4
ENDBRANCH   1   2
BRANCH   1   6
ATOM      6  C   UNL     1       4.953   1.810   0.922  1.00  0.00     0.047 C 
BRANCH   6   7
ATOM      7  C   UNL     1       5.799   0.601   0.910  1.00  0.00    -0.047 A 
ATOM      8  C   UNL     1       6.607   0.235  -0.136  1.00  0.00     0.004 A 
ATOM      9  C   UNL     1       5.771  -0.208   2.021  1.00  0.00     0.004 A 
ATOM     10  C   UNL     1       7.367  -0.917  -0.062  1.00  0.00     0.000 A 
ATOM     11  C   UNL     1       6.512  -1.349   2.113  1.00  0.00     0.000 A 
ATOM     12  C   UNL     1       7.325  -1.717   1.062  1.00  0.00     0.000 A 
ENDBRANCH   6   7
ENDBRANCH   1   6
TORSDOF 4
ENDMDL
