MODEL 1
REMARK VINA RESULT:      -7.4      0.000      0.000
REMARK SMILES O=C(O)CCc1ccccc1
REMARK SMILES IDX 4 1 2 2 1 3 3 4 5 6 6 7 7 8 11 9 8 10 10 11 9 12
REMARK H PARENT 3 5
REMARK Flexibility Score: inf
ROOT
ATOM      1  C   UNL     1       8.423  -0.631  -2.137  1.00  0.00     0.127 C 
ENDROOT
BRANCH   1   2
ATOM      2  C   UNL     1       8.473  -1.897  -2.906  1.00  0.00     0.303 C 
ATOM      3  O   UNL     1       9.550  -2.486  -3.092  1.00  0.00    -0.252 OA
BRANCH   2   4
ATOM      4  O   UNL     1       7.307  -2.428  -3.423  1.00  0.00    -0.481 OA
ATOM      5  H   UNL     1       6.389  -2.075  -3.167  1.00  0.00     0.296 HD
ENDBRANCH   2   4
ENDBRANCH   1   2
BRANCH   1   6
ATOM      6  C   UNL     1       7.026  -0.063  -2.143  1.00  0.00     0.047 C 
BRANCH   6   7
ATOM      7  C   UNL     1       6.468   0.097  -0.786  1.00  0.00    -0.047 A 
ATOM      8  C   UNL     1       5.826   1.225  -0.344  1.00  0.00     0.004 A 
ATOM      9  C   UNL     1       6.604  -0.956   0.087  1.00  0.00     0.004 A 
ATOM     10  C   UNL     1       5.334   1.289   0.946  1.00  0.00     0.000 A 
ATOM     11  C   UNL     1       6.127  -0.913   1.363  1.00  0.00     0.000 A 
ATOM     12  C   UNL     1       5.480   0.221   1.808  1.00  0.00     0.000 A 
ENDBRANCH   6   7
ENDBRANCH   1   6
TORSDOF 4
ENDMDL
MODEL 2
REMARK VINA RESULT:      -7.4      0.086      1.428
REMARK SMILES O=C(O)CCc1ccccc1
REMARK SMILES IDX 4 1 2 2 1 3 3 4 5 6 6 7 7 8 11 9 8 10 10 11 9 12
REMARK H PARENT 3 5
REMARK Flexibility Score: inf
ROOT
ATOM      1  C   UNL     1       8.444  -0.606  -2.212  1.00  0.00     0.127 C 
ENDROOT
BRANCH   1   2
ATOM      2  C   UNL     1       8.495  -1.909  -2.916  1.00  0.00     0.303 C 
ATOM      3  O   UNL     1       9.570  -2.512  -3.061  1.00  0.00    -0.252 OA
BRANCH   2   4
ATOM      4  O   UNL     1       7.331  -2.458  -3.419  1.00  0.00    -0.481 OA
ATOM      5  H   UNL     1       6.618  -1.896  -3.876  1.00  0.00     0.296 HD
ENDBRANCH   2   4
ENDBRANCH   1   2
BRANCH   1   6
ATOM      6  C   UNL     1       7.025  -0.101  -2.132  1.00  0.00     0.047 C 
BRANCH   6   7
ATOM      7  C   UNL     1       6.521  -0.026  -0.747  1.00  0.00    -0.047 A 
ATOM      8  C   UNL     1       6.658  -1.028   0.179  1.00  0.00     0.004 A 
ATOM      9  C   UNL     1       5.872   1.125  -0.367  1.00  0.00     0.004 A 
ATOM     10  C   UNL     1       6.153  -0.872   1.456  1.00  0.00     0.000 A 
ATOM     11  C   UNL     1       5.367   1.298   0.888  1.00  0.00     0.000 A 
ATOM     12  C   UNL     1       5.504   0.291   1.820  1.00  0.00     0.000 A 
ENDBRANCH   6   7
ENDBRANCH   1   6
TORSDOF 4
ENDMDL
MODEL 3
REMARK VINA RESULT:      -7.3      0.628      1.618
REMARK SMILES O=C(O)CCc1ccccc1
REMARK SMILES IDX 4 1 2 2 1 3 3 4 5 6 6 7 7 8 11 9 8 10 10 11 9 12
REMARK H PARENT 3 5
REMARK Flexibility Score: inf
ROOT
ATOM      1  C   UNL     1       8.216  -0.936  -1.853  1.00  0.00     0.127 C 
ENDROOT
BRANCH   1   2
ATOM      2  C   UNL     1       8.403  -2.014  -2.853  1.00  0.00     0.303 C 
ATOM      3  O   UNL     1       9.535  -2.454  -3.109  1.00  0.00    -0.252 OA
BRANCH   2   4
ATOM      4  O   UNL     1       7.304  -2.536  -3.508  1.00  0.00    -0.481 OA
ATOM      5  H   UNL     1       7.305  -2.724  -4.506  1.00  0.00     0.296 HD
ENDBRANCH   2   4
ENDBRANCH   1   2
BRANCH   1   6
ATOM      6  C   UNL     1       7.414  -1.437  -0.678  1.00  0.00     0.047 C 
BRANCH   6   7
ATOM      7  C   UNL     1       6.582  -0.385  -0.063  1.00  0.00    -0.047 A 
ATOM      8  C   UNL     1       6.114  -0.426   1.226  1.00  0.00     0.004 A 
ATOM      9  C   UNL     1       6.255   0.702  -0.837  1.00  0.00     0.004 A 
ATOM     10  C   UNL     1       5.338   0.605   1.720  1.00  0.00     0.000 A 
ATOM     11  C   UNL     1       5.490   1.729  -0.368  1.00  0.00     0.000 A 
ATOM     12  C   UNL     1       5.020   1.690   0.927  1.00  0.00     0.000 A 
ENDBRANCH   6   7
ENDBRANCH   1   6
TORSDOF 4
ENDMDL
MODEL 4
REMARK VINA RESULT:      -6.8      3.346      5.018
REMARK SMILES O=C(O)CCc1ccccc1
REMARK SMILES IDX 4 1 2 2 1 3 3 4 5 6 6 7 7 8 11 9 8 10 10 11 9 12
REMARK H PARENT 3 5
REMARK Flexibility Score: inf
ROOT
ATOM      1  C   UNL     1       5.063   1.734   0.695  1.00  0.00     0.127 C 
ENDROOT
BRANCH   1   2
ATOM      2  C   UNL     1       4.602   1.046   1.924  1.00  0.00     0.303 C 
ATOM      3  O   UNL     1       5.315   0.198   2.482  1.00  0.00    -0.252 OA
BRANCH   2   4
ATOM      4  O   UNL     1       3.363   1.353   2.454  1.00  0.00    -0.481 OA
ATOM      5  H   UNL     1       2.515   0.874   2.165  1.00  0.00     0.296 HD
ENDBRANCH   2   4
ENDBRANCH   1   2
BRANCH   1   6
ATOM      6  C   UNL     1       6.565   1.875   0.698  1.00  0.00     0.047 C 
BRANCH   6   7
ATOM      7  C   UNL     1       7.216   1.087  -0.366  1.00  0.00    -0.047 A 
ATOM      8  C   UNL     1       8.545   1.179  -0.691  1.00  0.00     0.004 A 
ATOM      9  C   UNL     1       6.434   0.206  -1.075  1.00  0.00     0.004 A 
ATOM     10  C   UNL     1       9.071   0.402  -1.705  1.00  0.00     0.000 A 
ATOM     11  C   UNL     1       6.935  -0.569  -2.079  1.00  0.00     0.000 A 
ATOM     12  C   UNL     1       8.271  -0.478  -2.406  1.00  0.00     0.000 A 
ENDBRANCH   6   7
ENDBRANCH   1   6
TORSDOF 4
ENDMDL
MODEL 5
REMARK VINA RESULT:      -6.7      1.952      2.627
REMARK SMILES O=C(O)CCc1ccccc1
REMARK SMILES IDX 4 1 2 2 1 3 3 4 5 6 6 7 7 8 11 9 8 10 10 11 9 12
REMARK H PARENT 3 5
REMARK Flexibility Score: inf
ROOT
ATOM      1  C   UNL     1       8.175   0.285  -2.055  1.00  0.00     0.127 C 
ENDROOT
BRANCH   1   2
ATOM      2  C   UNL     1       9.371   0.368  -1.185  1.00  0.00     0.303 C 
ATOM      3  O   UNL     1       9.492  -0.374  -0.198  1.00  0.00    -0.252 OA
BRANCH   2   4
ATOM      4  O   UNL     1      10.365   1.283  -1.476  1.00  0.00    -0.481 OA
ATOM      5  H   UNL     1      10.919   1.732  -0.752  1.00  0.00     0.296 HD
ENDBRANCH   2   4
ENDBRANCH   1   2
BRANCH   1   6
ATOM      6  C   UNL     1       7.131  -0.611  -1.437  1.00  0.00     0.047 C 
BRANCH   6   7
ATOM      7  C   UNL     1       6.356   0.059  -0.375  1.00  0.00    -0.047 A 
ATOM      8  C   UNL     1       6.138  -0.468   0.872  1.00  0.00     0.004 A 
ATOM      9  C   UNL     1       5.819   1.292  -0.660  1.00  0.00     0.004 A 
ATOM     10  C   UNL     1       5.398   0.230   1.806  1.00  0.00     0.000 A 
ATOM     11  C   UNL     1       5.085   1.997   0.248  1.00  0.00     0.000 A 
ATOM     12  C   UNL     1       4.866   1.467   1.502  1.00  0.00     0.000 A 
ENDBRANCH   6   7
ENDBRANCH   1   6
TORSDOF 4
ENDMDL
