@<TRIPOS>MOLECULE
/home/cewinharhar/GITHUB/reincatalyze/data/processed/docking_pred/2023-Apr-25-1630_maxeplen5_maxtrainstep200_exh32_gamma099_lrac3e-4_lrcr1e-3/ab955c776f37f5544fae82246801d9a2769dfb79_ligand_2.pdbqt
 12 12 0 0 0
SMALL
GASTEIGER

@<TRIPOS>ATOM
      1  C          8.4440   -0.6060   -2.2120 C.3     1  UNL1        0.1270
      2  C          8.4950   -1.9090   -2.9160 C.2     1  UNL1        0.3030
      3  O          9.5700   -2.5120   -3.0610 O.2     1  UNL1       -0.2520
      4  O          7.3310   -2.4580   -3.4190 O.3     1  UNL1       -0.4810
      5  H          6.6180   -1.8960   -3.8760 H       1  UNL1        0.2960
      6  C          7.0250   -0.1010   -2.1320 C.3     1  UNL1        0.0470
      7  C          6.5210   -0.0260   -0.7470 C.2     1  UNL1       -0.0470
      8  C          6.6580   -1.0280    0.1790 C.2     1  UNL1        0.0040
      9  C          5.8720    1.1250   -0.3670 C.2     1  UNL1        0.0040
     10  C          6.1530   -0.8720    1.4560 C.2     1  UNL1        0.0000
     11  C          5.3670    1.2980    0.8880 C.2     1  UNL1        0.0000
     12  C          5.5040    0.2910    1.8200 C.2     1  UNL1        0.0000
@<TRIPOS>BOND
     1     5     4    1
     2     4     2    1
     3     3     2    2
     4     2     1    1
     5     1     6    1
     6     6     7    1
     7     7     9    2
     8     7     8    1
     9     9    11    1
    10     8    10    2
    11    11    12    2
    12    10    12    1
