@<TRIPOS>MOLECULE
/home/cewinharhar/GITHUB/reincatalyze/data/processed/docking_pred/2023-Apr-25-1630_maxeplen5_maxtrainstep200_exh32_gamma099_lrac3e-4_lrcr1e-3/ab955c776f37f5544fae82246801d9a2769dfb79_ligand_2.pdbqt
 12 12 0 0 0
SMALL
GASTEIGER

@<TRIPOS>ATOM
      1  C          8.4230   -0.6310   -2.1370 C.3     1  UNL1        0.1270
      2  C          8.4730   -1.8970   -2.9060 C.2     1  UNL1        0.3030
      3  O          9.5500   -2.4860   -3.0920 O.2     1  UNL1       -0.2520
      4  O          7.3070   -2.4280   -3.4230 O.3     1  UNL1       -0.4810
      5  H          6.3890   -2.0750   -3.1670 H       1  UNL1        0.2960
      6  C          7.0260   -0.0630   -2.1430 C.3     1  UNL1        0.0470
      7  C          6.4680    0.0970   -0.7860 C.2     1  UNL1       -0.0470
      8  C          5.8260    1.2250   -0.3440 C.2     1  UNL1        0.0040
      9  C          6.6040   -0.9560    0.0870 C.2     1  UNL1        0.0040
     10  C          5.3340    1.2890    0.9460 C.2     1  UNL1        0.0000
     11  C          6.1270   -0.9130    1.3630 C.2     1  UNL1        0.0000
     12  C          5.4800    0.2210    1.8080 C.2     1  UNL1        0.0000
@<TRIPOS>BOND
     1     4     5    1
     2     4     2    1
     3     3     2    2
     4     2     1    1
     5     6     1    1
     6     6     7    1
     7     7     8    2
     8     7     9    1
     9     8    10    1
    10     9    11    2
    11    10    12    2
    12    11    12    1
