@<TRIPOS>MOLECULE
/home/cewinharhar/GITHUB/reincatalyze/data/processed/docking_pred/2023-Apr-25-1630_maxeplen5_maxtrainstep200_exh32_gamma099_lrac3e-4_lrcr1e-3/ab955c776f37f5544fae82246801d9a2769dfb79_ligand_2.pdbqt
 12 12 0 0 0
SMALL
GASTEIGER

@<TRIPOS>ATOM
      1  C          8.1750    0.2850   -2.0550 C.3     1  UNL1        0.1270
      2  C          9.3710    0.3680   -1.1850 C.2     1  UNL1        0.3030
      3  O          9.4920   -0.3740   -0.1980 O.2     1  UNL1       -0.2520
      4  O         10.3650    1.2830   -1.4760 O.3     1  UNL1       -0.4810
      5  H         10.9190    1.7320   -0.7520 H       1  UNL1        0.2960
      6  C          7.1310   -0.6110   -1.4370 C.3     1  UNL1        0.0470
      7  C          6.3560    0.0590   -0.3750 C.2     1  UNL1       -0.0470
      8  C          6.1380   -0.4680    0.8720 C.2     1  UNL1        0.0040
      9  C          5.8190    1.2920   -0.6600 C.2     1  UNL1        0.0040
     10  C          5.3980    0.2300    1.8060 C.2     1  UNL1        0.0000
     11  C          5.0850    1.9970    0.2480 C.2     1  UNL1        0.0000
     12  C          4.8660    1.4670    1.5020 C.2     1  UNL1        0.0000
@<TRIPOS>BOND
     1     1     6    1
     2     1     2    1
     3     4     2    1
     4     4     5    1
     5     6     7    1
     6     2     3    2
     7     9     7    2
     8     9    11    1
     9     7     8    1
    10    11    12    2
    11     8    10    2
    12    12    10    1
