@<TRIPOS>MOLECULE
/home/cewinharhar/GITHUB/reincatalyze/data/processed/docking_pred/2023-Apr-25-1630_maxeplen5_maxtrainstep200_exh32_gamma099_lrac3e-4_lrcr1e-3/ae62664a3c9eef67376bdc077c2faa7ac5a69a78_ligand_2.pdbqt
 12 12 0 0 0
SMALL
GASTEIGER

@<TRIPOS>ATOM
      1  C          8.4680   -0.6300   -2.1650 C.3     1  UNL1        0.1270
      2  C          8.4930   -1.9060   -2.9190 C.2     1  UNL1        0.3030
      3  O          9.5580   -2.5150   -3.1010 O.2     1  UNL1       -0.2520
      4  O          7.3160   -2.4220   -3.4260 O.3     1  UNL1       -0.4810
      5  H          6.7840   -3.1400   -2.9410 H       1  UNL1        0.2960
      6  C          7.0720   -0.0590   -2.1370 C.3     1  UNL1        0.0470
      7  C          6.5190    0.0330   -0.7720 C.2     1  UNL1       -0.0470
      8  C          6.6090   -0.9620    0.1670 C.2     1  UNL1        0.0040
      9  C          5.8710    1.1950   -0.4240 C.2     1  UNL1        0.0040
     10  C          6.0600   -0.7910    1.4230 C.2     1  UNL1        0.0000
     11  C          5.3220    1.3840    0.8100 C.2     1  UNL1        0.0000
     12  C          5.4130    0.3830    1.7540 C.2     1  UNL1        0.0000
@<TRIPOS>BOND
     1     4     5    1
     2     4     2    1
     3     3     2    2
     4     2     1    1
     5     1     6    1
     6     6     7    1
     7     7     9    2
     8     7     8    1
     9     9    11    1
    10     8    10    2
    11    11    12    2
    12    10    12    1
