@<TRIPOS>MOLECULE
/home/cewinharhar/GITHUB/reincatalyze/data/processed/docking_pred/2023-Apr-25-1630_maxeplen5_maxtrainstep200_exh32_gamma099_lrac3e-4_lrcr1e-3/ae62664a3c9eef67376bdc077c2faa7ac5a69a78_ligand_2.pdbqt
 12 12 0 0 0
SMALL
GASTEIGER

@<TRIPOS>ATOM
      1  C          7.3020   -1.3280   -2.1810 C.3     1  UNL1        0.1270
      2  C          8.7460   -1.4000   -2.5080 C.2     1  UNL1        0.3030
      3  O          9.2070   -2.3630   -3.1400 O.2     1  UNL1       -0.2520
      4  O          9.5890   -0.3820   -2.1030 O.3     1  UNL1       -0.4810
      5  H         10.5900   -0.5160   -1.9970 H       1  UNL1        0.2960
      6  C          7.0910   -1.4200   -0.6900 C.3     1  UNL1        0.0470
      7  C          6.3600   -0.2610   -0.1430 C.2     1  UNL1       -0.0470
      8  C          6.1160    0.8950   -0.8370 C.2     1  UNL1        0.0040
      9  C          5.8970   -0.3520    1.1490 C.2     1  UNL1        0.0040
     10  C          5.4230    1.9330   -0.2450 C.2     1  UNL1        0.0000
     11  C          5.2120    0.6610    1.7520 C.2     1  UNL1        0.0000
     12  C          4.9650    1.8230    1.0530 C.2     1  UNL1        0.0000
@<TRIPOS>BOND
     1     3     2    2
     2     2     1    1
     3     2     4    1
     4     1     6    1
     5     4     5    1
     6     8    10    1
     7     8     7    2
     8     6     7    1
     9    10    12    2
    10     7     9    1
    11    12    11    1
    12     9    11    2
