@<TRIPOS>MOLECULE
/home/cewinharhar/GITHUB/reincatalyze/data/processed/docking_pred/2023-Apr-25-1630_maxeplen5_maxtrainstep200_exh32_gamma099_lrac3e-4_lrcr1e-3/ae62664a3c9eef67376bdc077c2faa7ac5a69a78_ligand_2.pdbqt
 12 12 0 0 0
SMALL
GASTEIGER

@<TRIPOS>ATOM
      1  C          5.0130    1.7530    0.6990 C.3     1  UNL1        0.1270
      2  C          4.4890    1.0880    1.9160 C.2     1  UNL1        0.3030
      3  O          5.1320    0.1870    2.4750 O.2     1  UNL1       -0.2520
      4  O          3.2680    1.4770    2.4330 O.3     1  UNL1       -0.4810
      5  H          2.7510    0.9050    3.0940 H       1  UNL1        0.2960
      6  C          6.5170    1.8520    0.7570 C.3     1  UNL1        0.0470
      7  C          7.1820    1.1050   -0.3280 C.2     1  UNL1       -0.0470
      8  C          8.5080    1.2360   -0.6560 C.2     1  UNL1        0.0040
      9  C          6.4190    0.2240   -1.0560 C.2     1  UNL1        0.0040
     10  C          9.0480    0.4960   -1.6900 C.2     1  UNL1        0.0000
     11  C          6.9330   -0.5150   -2.0810 C.2     1  UNL1        0.0000
     12  C          8.2650   -0.3840   -2.4100 C.2     1  UNL1        0.0000
@<TRIPOS>BOND
     1    12    11    2
     2    12    10    1
     3    11     9    1
     4    10     8    2
     5     9     7    2
     6     8     7    1
     7     7     6    1
     8     1     6    1
     9     1     2    1
    10     2     4    1
    11     2     3    2
    12     4     5    1
