@<TRIPOS>MOLECULE
/home/cewinharhar/GITHUB/reincatalyze/data/processed/docking_pred/2023-Apr-25-1630_maxeplen5_maxtrainstep200_exh32_gamma099_lrac3e-4_lrcr1e-3/ae62664a3c9eef67376bdc077c2faa7ac5a69a78_ligand_2.pdbqt
 12 12 0 0 0
SMALL
GASTEIGER

@<TRIPOS>ATOM
      1  C          8.1980   -1.6440    1.1400 C.3     1  UNL1        0.1270
      2  C          8.5340   -2.8620    0.3650 C.2     1  UNL1        0.3030
      3  O          9.1940   -3.7790    0.8770 O.2     1  UNL1       -0.2520
      4  O          8.1050   -2.9770   -0.9440 O.3     1  UNL1       -0.4810
      5  H          7.6480   -3.8140   -1.2940 H       1  UNL1        0.2960
      6  C          6.7070   -1.5350    1.3380 C.3     1  UNL1        0.0470
      7  C          6.1570   -0.2550    0.8520 C.2     1  UNL1       -0.0470
      8  C          5.3970    0.5970    1.6120 C.2     1  UNL1        0.0040
      9  C          6.4270    0.1020   -0.4480 C.2     1  UNL1        0.0040
     10  C          4.9220    1.7770    1.0740 C.2     1  UNL1        0.0000
     11  C          5.9660    1.2620   -0.9980 C.2     1  UNL1        0.0000
     12  C          5.2030    2.1190   -0.2340 C.2     1  UNL1        0.0000
@<TRIPOS>BOND
     1     5     4    1
     2    11     9    1
     3    11    12    2
     4     4     2    1
     5     9     7    2
     6    12    10    1
     7     2     3    2
     8     2     1    1
     9     7     6    1
    10     7     8    1
    11    10     8    2
    12     1     6    1
