@<TRIPOS>MOLECULE
/home/cewinharhar/GITHUB/reincatalyze/data/processed/docking_pred/2023-Apr-25-1630_maxeplen5_maxtrainstep200_exh32_gamma099_lrac3e-4_lrcr1e-3/ae62664a3c9eef67376bdc077c2faa7ac5a69a78_ligand_2.pdbqt
 12 12 0 0 0
SMALL
GASTEIGER

@<TRIPOS>ATOM
      1  C          8.3820   -0.7180   -2.0210 C.3     1  UNL1        0.1270
      2  C          8.3600   -1.9330   -2.8690 C.2     1  UNL1        0.3030
      3  O          7.2860   -2.4170   -3.2580 O.2     1  UNL1       -0.2520
      4  O          9.5500   -2.5340   -3.2300 O.3     1  UNL1       -0.4810
      5  H         10.4380   -2.0410   -3.2030 H       1  UNL1        0.2960
      6  C          7.0470   -0.0160   -2.0650 C.3     1  UNL1        0.0470
      7  C          6.4490    0.1620   -0.7280 C.2     1  UNL1       -0.0470
      8  C          5.7790    1.2890   -0.3260 C.2     1  UNL1        0.0040
      9  C          6.5750   -0.8710    0.1690 C.2     1  UNL1        0.0040
     10  C          5.2510    1.3710    0.9470 C.2     1  UNL1        0.0000
     11  C          6.0610   -0.8100    1.4310 C.2     1  UNL1        0.0000
     12  C          5.3870    0.3220    1.8350 C.2     1  UNL1        0.0000
@<TRIPOS>BOND
     1     3     2    2
     2     4     5    1
     3     4     2    1
     4     2     1    1
     5     6     1    1
     6     6     7    1
     7     7     8    2
     8     7     9    1
     9     8    10    1
    10     9    11    2
    11    10    12    2
    12    11    12    1
