MODEL 1
REMARK VINA RESULT:      -7.4      0.000      0.000
REMARK SMILES O=C(O)CCc1ccccc1
REMARK SMILES IDX 4 1 2 2 1 3 3 4 5 6 6 7 7 8 11 9 8 10 10 11 9 12
REMARK H PARENT 3 5
REMARK Flexibility Score: inf
ROOT
ATOM      1  C   UNL     1       8.468  -0.630  -2.165  1.00  0.00     0.127 C 
ENDROOT
BRANCH   1   2
ATOM      2  C   UNL     1       8.493  -1.906  -2.919  1.00  0.00     0.303 C 
ATOM      3  O   UNL     1       9.558  -2.515  -3.101  1.00  0.00    -0.252 OA
BRANCH   2   4
ATOM      4  O   UNL     1       7.316  -2.422  -3.426  1.00  0.00    -0.481 OA
ATOM      5  H   UNL     1       6.784  -3.140  -2.941  1.00  0.00     0.296 HD
ENDBRANCH   2   4
ENDBRANCH   1   2
BRANCH   1   6
ATOM      6  C   UNL     1       7.072  -0.059  -2.137  1.00  0.00     0.047 C 
BRANCH   6   7
ATOM      7  C   UNL     1       6.519   0.033  -0.772  1.00  0.00    -0.047 A 
ATOM      8  C   UNL     1       6.609  -0.962   0.167  1.00  0.00     0.004 A 
ATOM      9  C   UNL     1       5.871   1.195  -0.424  1.00  0.00     0.004 A 
ATOM     10  C   UNL     1       6.060  -0.791   1.423  1.00  0.00     0.000 A 
ATOM     11  C   UNL     1       5.322   1.384   0.810  1.00  0.00     0.000 A 
ATOM     12  C   UNL     1       5.413   0.383   1.754  1.00  0.00     0.000 A 
ENDBRANCH   6   7
ENDBRANCH   1   6
TORSDOF 4
ENDMDL
MODEL 2
REMARK VINA RESULT:      -7.3      0.137      1.726
REMARK SMILES O=C(O)CCc1ccccc1
REMARK SMILES IDX 4 1 2 2 1 3 3 4 5 6 6 7 7 8 11 9 8 10 10 11 9 12
REMARK H PARENT 3 5
REMARK Flexibility Score: inf
ROOT
ATOM      1  C   UNL     1       8.382  -0.718  -2.021  1.00  0.00     0.127 C 
ENDROOT
BRANCH   1   2
ATOM      2  C   UNL     1       8.360  -1.933  -2.869  1.00  0.00     0.303 C 
ATOM      3  O   UNL     1       7.286  -2.417  -3.258  1.00  0.00    -0.252 OA
BRANCH   2   4
ATOM      4  O   UNL     1       9.550  -2.534  -3.230  1.00  0.00    -0.481 OA
ATOM      5  H   UNL     1      10.438  -2.041  -3.203  1.00  0.00     0.296 HD
ENDBRANCH   2   4
ENDBRANCH   1   2
BRANCH   1   6
ATOM      6  C   UNL     1       7.047  -0.016  -2.065  1.00  0.00     0.047 C 
BRANCH   6   7
ATOM      7  C   UNL     1       6.449   0.162  -0.728  1.00  0.00    -0.047 A 
ATOM      8  C   UNL     1       5.779   1.289  -0.326  1.00  0.00     0.004 A 
ATOM      9  C   UNL     1       6.575  -0.871   0.169  1.00  0.00     0.004 A 
ATOM     10  C   UNL     1       5.251   1.371   0.947  1.00  0.00     0.000 A 
ATOM     11  C   UNL     1       6.061  -0.810   1.431  1.00  0.00     0.000 A 
ATOM     12  C   UNL     1       5.387   0.322   1.835  1.00  0.00     0.000 A 
ENDBRANCH   6   7
ENDBRANCH   1   6
TORSDOF 4
ENDMDL
MODEL 3
REMARK VINA RESULT:      -6.8      3.372      5.080
REMARK SMILES O=C(O)CCc1ccccc1
REMARK SMILES IDX 4 1 2 2 1 3 3 4 5 6 6 7 7 8 11 9 8 10 10 11 9 12
REMARK H PARENT 3 5
REMARK Flexibility Score: inf
ROOT
ATOM      1  C   UNL     1       5.013   1.753   0.699  1.00  0.00     0.127 C 
ENDROOT
BRANCH   1   2
ATOM      2  C   UNL     1       4.489   1.088   1.916  1.00  0.00     0.303 C 
ATOM      3  O   UNL     1       5.132   0.187   2.475  1.00  0.00    -0.252 OA
BRANCH   2   4
ATOM      4  O   UNL     1       3.268   1.477   2.433  1.00  0.00    -0.481 OA
ATOM      5  H   UNL     1       2.751   0.905   3.094  1.00  0.00     0.296 HD
ENDBRANCH   2   4
ENDBRANCH   1   2
BRANCH   1   6
ATOM      6  C   UNL     1       6.517   1.852   0.757  1.00  0.00     0.047 C 
BRANCH   6   7
ATOM      7  C   UNL     1       7.182   1.105  -0.328  1.00  0.00    -0.047 A 
ATOM      8  C   UNL     1       8.508   1.236  -0.656  1.00  0.00     0.004 A 
ATOM      9  C   UNL     1       6.419   0.224  -1.056  1.00  0.00     0.004 A 
ATOM     10  C   UNL     1       9.048   0.496  -1.690  1.00  0.00     0.000 A 
ATOM     11  C   UNL     1       6.933  -0.515  -2.081  1.00  0.00     0.000 A 
ATOM     12  C   UNL     1       8.265  -0.384  -2.410  1.00  0.00     0.000 A 
ENDBRANCH   6   7
ENDBRANCH   1   6
TORSDOF 4
ENDMDL
MODEL 4
REMARK VINA RESULT:      -6.8      1.019      1.963
REMARK SMILES O=C(O)CCc1ccccc1
REMARK SMILES IDX 4 1 2 2 1 3 3 4 5 6 6 7 7 8 11 9 8 10 10 11 9 12
REMARK H PARENT 3 5
REMARK Flexibility Score: inf
ROOT
ATOM      1  C   UNL     1       7.302  -1.328  -2.181  1.00  0.00     0.127 C 
ENDROOT
BRANCH   1   2
ATOM      2  C   UNL     1       8.746  -1.400  -2.508  1.00  0.00     0.303 C 
ATOM      3  O   UNL     1       9.207  -2.363  -3.140  1.00  0.00    -0.252 OA
BRANCH   2   4
ATOM      4  O   UNL     1       9.589  -0.382  -2.103  1.00  0.00    -0.481 OA
ATOM      5  H   UNL     1      10.590  -0.516  -1.997  1.00  0.00     0.296 HD
ENDBRANCH   2   4
ENDBRANCH   1   2
BRANCH   1   6
ATOM      6  C   UNL     1       7.091  -1.420  -0.690  1.00  0.00     0.047 C 
BRANCH   6   7
ATOM      7  C   UNL     1       6.360  -0.261  -0.143  1.00  0.00    -0.047 A 
ATOM      8  C   UNL     1       6.116   0.895  -0.837  1.00  0.00     0.004 A 
ATOM      9  C   UNL     1       5.897  -0.352   1.149  1.00  0.00     0.004 A 
ATOM     10  C   UNL     1       5.423   1.933  -0.245  1.00  0.00     0.000 A 
ATOM     11  C   UNL     1       5.212   0.661   1.752  1.00  0.00     0.000 A 
ATOM     12  C   UNL     1       4.965   1.823   1.053  1.00  0.00     0.000 A 
ENDBRANCH   6   7
ENDBRANCH   1   6
TORSDOF 4
ENDMDL
MODEL 5
REMARK VINA RESULT:      -6.6      1.899      2.889
REMARK SMILES O=C(O)CCc1ccccc1
REMARK SMILES IDX 4 1 2 2 1 3 3 4 5 6 6 7 7 8 11 9 8 10 10 11 9 12
REMARK H PARENT 3 5
REMARK Flexibility Score: inf
ROOT
ATOM      1  C   UNL     1       8.198  -1.644   1.140  1.00  0.00     0.127 C 
ENDROOT
BRANCH   1   2
ATOM      2  C   UNL     1       8.534  -2.862   0.365  1.00  0.00     0.303 C 
ATOM      3  O   UNL     1       9.194  -3.779   0.877  1.00  0.00    -0.252 OA
BRANCH   2   4
ATOM      4  O   UNL     1       8.105  -2.977  -0.944  1.00  0.00    -0.481 OA
ATOM      5  H   UNL     1       7.648  -3.814  -1.294  1.00  0.00     0.296 HD
ENDBRANCH   2   4
ENDBRANCH   1   2
BRANCH   1   6
ATOM      6  C   UNL     1       6.707  -1.535   1.338  1.00  0.00     0.047 C 
BRANCH   6   7
ATOM      7  C   UNL     1       6.157  -0.255   0.852  1.00  0.00    -0.047 A 
ATOM      8  C   UNL     1       5.397   0.597   1.612  1.00  0.00     0.004 A 
ATOM      9  C   UNL     1       6.427   0.102  -0.448  1.00  0.00     0.004 A 
ATOM     10  C   UNL     1       4.922   1.777   1.074  1.00  0.00     0.000 A 
ATOM     11  C   UNL     1       5.966   1.262  -0.998  1.00  0.00     0.000 A 
ATOM     12  C   UNL     1       5.203   2.119  -0.234  1.00  0.00     0.000 A 
ENDBRANCH   6   7
ENDBRANCH   1   6
TORSDOF 4
ENDMDL
