MODEL 1
REMARK VINA RESULT:      -7.3      0.000      0.000
REMARK SMILES O=C(O)CCc1ccccc1
REMARK SMILES IDX 4 1 2 2 1 3 3 4 5 6 6 7 7 8 11 9 8 10 10 11 9 12
REMARK H PARENT 3 5
REMARK Flexibility Score: inf
ROOT
ATOM      1  C   UNL     1       8.426  -0.630  -2.151  1.00  0.00     0.127 C 
ENDROOT
BRANCH   1   2
ATOM      2  C   UNL     1       8.465  -1.913  -2.892  1.00  0.00     0.303 C 
ATOM      3  O   UNL     1       9.537  -2.513  -3.068  1.00  0.00    -0.252 OA
BRANCH   2   4
ATOM      4  O   UNL     1       7.294  -2.447  -3.394  1.00  0.00    -0.481 OA
ATOM      5  H   UNL     1       6.881  -3.297  -3.021  1.00  0.00     0.296 HD
ENDBRANCH   2   4
ENDBRANCH   1   2
BRANCH   1   6
ATOM      6  C   UNL     1       7.019  -0.089  -2.101  1.00  0.00     0.047 C 
BRANCH   6   7
ATOM      7  C   UNL     1       6.489   0.000  -0.728  1.00  0.00    -0.047 A 
ATOM      8  C   UNL     1       6.582  -1.003   0.203  1.00  0.00     0.004 A 
ATOM      9  C   UNL     1       5.859   1.167  -0.362  1.00  0.00     0.004 A 
ATOM     10  C   UNL     1       6.054  -0.833   1.468  1.00  0.00     0.000 A 
ATOM     11  C   UNL     1       5.332   1.354   0.881  1.00  0.00     0.000 A 
ATOM     12  C   UNL     1       5.426   0.346   1.817  1.00  0.00     0.000 A 
ENDBRANCH   6   7
ENDBRANCH   1   6
TORSDOF 4
ENDMDL
MODEL 2
REMARK VINA RESULT:      -7.3      0.125      1.724
REMARK SMILES O=C(O)CCc1ccccc1
REMARK SMILES IDX 4 1 2 2 1 3 3 4 5 6 6 7 7 8 11 9 8 10 10 11 9 12
REMARK H PARENT 3 5
REMARK Flexibility Score: inf
ROOT
ATOM      1  C   UNL     1       8.392  -0.676  -2.072  1.00  0.00     0.127 C 
ENDROOT
BRANCH   1   2
ATOM      2  C   UNL     1       8.363  -1.915  -2.884  1.00  0.00     0.303 C 
ATOM      3  O   UNL     1       7.286  -2.412  -3.249  1.00  0.00    -0.252 OA
BRANCH   2   4
ATOM      4  O   UNL     1       9.551  -2.526  -3.238  1.00  0.00    -0.481 OA
ATOM      5  H   UNL     1       9.634  -3.117  -4.060  1.00  0.00     0.296 HD
ENDBRANCH   2   4
ENDBRANCH   1   2
BRANCH   1   6
ATOM      6  C   UNL     1       7.046   0.006  -2.099  1.00  0.00     0.047 C 
BRANCH   6   7
ATOM      7  C   UNL     1       6.461   0.171  -0.755  1.00  0.00    -0.047 A 
ATOM      8  C   UNL     1       5.792   1.292  -0.336  1.00  0.00     0.004 A 
ATOM      9  C   UNL     1       6.600  -0.870   0.132  1.00  0.00     0.004 A 
ATOM     10  C   UNL     1       5.276   1.361   0.943  1.00  0.00     0.000 A 
ATOM     11  C   UNL     1       6.098  -0.822   1.400  1.00  0.00     0.000 A 
ATOM     12  C   UNL     1       5.425   0.305   1.820  1.00  0.00     0.000 A 
ENDBRANCH   6   7
ENDBRANCH   1   6
TORSDOF 4
ENDMDL
MODEL 3
REMARK VINA RESULT:      -6.7      3.331      5.034
REMARK SMILES O=C(O)CCc1ccccc1
REMARK SMILES IDX 4 1 2 2 1 3 3 4 5 6 6 7 7 8 11 9 8 10 10 11 9 12
REMARK H PARENT 3 5
REMARK Flexibility Score: inf
ROOT
ATOM      1  C   UNL     1       5.039   1.671   0.675  1.00  0.00     0.127 C 
ENDROOT
BRANCH   1   2
ATOM      2  C   UNL     1       4.603   1.009   1.927  1.00  0.00     0.303 C 
ATOM      3  O   UNL     1       5.327   0.172   2.488  1.00  0.00    -0.252 OA
BRANCH   2   4
ATOM      4  O   UNL     1       3.375   1.326   2.475  1.00  0.00    -0.481 OA
ATOM      5  H   UNL     1       3.227   2.168   3.025  1.00  0.00     0.296 HD
ENDBRANCH   2   4
ENDBRANCH   1   2
BRANCH   1   6
ATOM      6  C   UNL     1       6.534   1.869   0.673  1.00  0.00     0.047 C 
BRANCH   6   7
ATOM      7  C   UNL     1       7.215   1.082  -0.373  1.00  0.00    -0.047 A 
ATOM      8  C   UNL     1       8.552   1.173  -0.661  1.00  0.00     0.004 A 
ATOM      9  C   UNL     1       6.453   0.202  -1.105  1.00  0.00     0.004 A 
ATOM     10  C   UNL     1       9.107   0.398  -1.661  1.00  0.00     0.000 A 
ATOM     11  C   UNL     1       6.981  -0.572  -2.096  1.00  0.00     0.000 A 
ATOM     12  C   UNL     1       8.325  -0.481  -2.385  1.00  0.00     0.000 A 
ENDBRANCH   6   7
ENDBRANCH   1   6
TORSDOF 4
ENDMDL
MODEL 4
REMARK VINA RESULT:      -6.6      3.736      4.983
REMARK SMILES O=C(O)CCc1ccccc1
REMARK SMILES IDX 4 1 2 2 1 3 3 4 5 6 6 7 7 8 11 9 8 10 10 11 9 12
REMARK H PARENT 3 5
REMARK Flexibility Score: inf
ROOT
ATOM      1  C   UNL     1       5.376   2.961   0.149  1.00  0.00     0.127 C 
ENDROOT
BRANCH   1   2
ATOM      2  C   UNL     1       6.253   3.900   0.887  1.00  0.00     0.303 C 
ATOM      3  O   UNL     1       6.896   4.775   0.286  1.00  0.00    -0.252 OA
BRANCH   2   4
ATOM      4  O   UNL     1       6.356   3.800   2.261  1.00  0.00    -0.481 OA
ATOM      5  H   UNL     1       7.253   3.734   2.735  1.00  0.00     0.296 HD
ENDBRANCH   2   4
ENDBRANCH   1   2
BRANCH   1   6
ATOM      6  C   UNL     1       5.247   1.658   0.896  1.00  0.00     0.047 C 
BRANCH   6   7
ATOM      7  C   UNL     1       5.998   0.557   0.262  1.00  0.00    -0.047 A 
ATOM      8  C   UNL     1       6.430  -0.564   0.922  1.00  0.00     0.004 A 
ATOM      9  C   UNL     1       6.281   0.669  -1.079  1.00  0.00     0.004 A 
ATOM     10  C   UNL     1       7.129  -1.546   0.248  1.00  0.00     0.000 A 
ATOM     11  C   UNL     1       6.970  -0.289  -1.763  1.00  0.00     0.000 A 
ATOM     12  C   UNL     1       7.404  -1.416  -1.099  1.00  0.00     0.000 A 
ENDBRANCH   6   7
ENDBRANCH   1   6
TORSDOF 4
ENDMDL
MODEL 5
REMARK VINA RESULT:      -6.6      1.975      2.933
REMARK SMILES O=C(O)CCc1ccccc1
REMARK SMILES IDX 4 1 2 2 1 3 3 4 5 6 6 7 7 8 11 9 8 10 10 11 9 12
REMARK H PARENT 3 5
REMARK Flexibility Score: inf
ROOT
ATOM      1  C   UNL     1       8.340  -1.712   1.183  1.00  0.00     0.127 C 
ENDROOT
BRANCH   1   2
ATOM      2  C   UNL     1       8.725  -2.970   0.501  1.00  0.00     0.303 C 
ATOM      3  O   UNL     1       9.450  -3.803   1.066  1.00  0.00    -0.252 OA
BRANCH   2   4
ATOM      4  O   UNL     1       8.273  -3.218  -0.781  1.00  0.00    -0.481 OA
ATOM      5  H   UNL     1       8.903  -3.441  -1.546  1.00  0.00     0.296 HD
ENDBRANCH   2   4
ENDBRANCH   1   2
BRANCH   1   6
ATOM      6  C   UNL     1       6.844  -1.648   1.369  1.00  0.00     0.047 C 
BRANCH   6   7
ATOM      7  C   UNL     1       6.262  -0.380   0.888  1.00  0.00    -0.047 A 
ATOM      8  C   UNL     1       5.477   0.447   1.649  1.00  0.00     0.004 A 
ATOM      9  C   UNL     1       6.525  -0.011  -0.410  1.00  0.00     0.004 A 
ATOM     10  C   UNL     1       4.971   1.617   1.115  1.00  0.00     0.000 A 
ATOM     11  C   UNL     1       6.036   1.139  -0.956  1.00  0.00     0.000 A 
ATOM     12  C   UNL     1       5.247   1.971  -0.191  1.00  0.00     0.000 A 
ENDBRANCH   6   7
ENDBRANCH   1   6
TORSDOF 4
ENDMDL
