@<TRIPOS>MOLECULE
/home/cewinharhar/GITHUB/reincatalyze/data/processed/docking_pred/2023-Apr-25-1630_maxeplen5_maxtrainstep200_exh32_gamma099_lrac3e-4_lrcr1e-3/af895cae38f50b8ad608cacdd29f7ae1ddca485c_ligand_2.pdbqt
 12 12 0 0 0
SMALL
GASTEIGER

@<TRIPOS>ATOM
      1  C          8.4260   -0.6300   -2.1510 C.3     1  UNL1        0.1270
      2  C          8.4650   -1.9130   -2.8920 C.2     1  UNL1        0.3030
      3  O          9.5370   -2.5130   -3.0680 O.2     1  UNL1       -0.2520
      4  O          7.2940   -2.4470   -3.3940 O.3     1  UNL1       -0.4810
      5  H          6.8810   -3.2970   -3.0210 H       1  UNL1        0.2960
      6  C          7.0190   -0.0890   -2.1010 C.3     1  UNL1        0.0470
      7  C          6.4890    0.0000   -0.7280 C.2     1  UNL1       -0.0470
      8  C          6.5820   -1.0030    0.2030 C.2     1  UNL1        0.0040
      9  C          5.8590    1.1670   -0.3620 C.2     1  UNL1        0.0040
     10  C          6.0540   -0.8330    1.4680 C.2     1  UNL1        0.0000
     11  C          5.3320    1.3540    0.8810 C.2     1  UNL1        0.0000
     12  C          5.4260    0.3460    1.8170 C.2     1  UNL1        0.0000
@<TRIPOS>BOND
     1     4     5    1
     2     4     2    1
     3     3     2    2
     4     2     1    1
     5     1     6    1
     6     6     7    1
     7     7     9    2
     8     7     8    1
     9     9    11    1
    10     8    10    2
    11    11    12    2
    12    10    12    1
