@<TRIPOS>MOLECULE
/home/cewinharhar/GITHUB/reincatalyze/data/processed/docking_pred/2023-Apr-25-1630_maxeplen5_maxtrainstep200_exh32_gamma099_lrac3e-4_lrcr1e-3/af895cae38f50b8ad608cacdd29f7ae1ddca485c_ligand_2.pdbqt
 12 12 0 0 0
SMALL
GASTEIGER

@<TRIPOS>ATOM
      1  C          8.3400   -1.7120    1.1830 C.3     1  UNL1        0.1270
      2  C          8.7250   -2.9700    0.5010 C.2     1  UNL1        0.3030
      3  O          9.4500   -3.8030    1.0660 O.2     1  UNL1       -0.2520
      4  O          8.2730   -3.2180   -0.7810 O.3     1  UNL1       -0.4810
      5  H          8.9030   -3.4410   -1.5460 H       1  UNL1        0.2960
      6  C          6.8440   -1.6480    1.3690 C.3     1  UNL1        0.0470
      7  C          6.2620   -0.3800    0.8880 C.2     1  UNL1       -0.0470
      8  C          5.4770    0.4470    1.6490 C.2     1  UNL1        0.0040
      9  C          6.5250   -0.0110   -0.4100 C.2     1  UNL1        0.0040
     10  C          4.9710    1.6170    1.1150 C.2     1  UNL1        0.0000
     11  C          6.0360    1.1390   -0.9560 C.2     1  UNL1        0.0000
     12  C          5.2470    1.9710   -0.1910 C.2     1  UNL1        0.0000
@<TRIPOS>BOND
     1     5     4    1
     2    11     9    1
     3    11    12    2
     4     4     2    1
     5     9     7    2
     6    12    10    1
     7     2     3    2
     8     2     1    1
     9     7     6    1
    10     7     8    1
    11    10     8    2
    12     1     6    1
