@<TRIPOS>MOLECULE
/home/cewinharhar/GITHUB/reincatalyze/data/processed/docking_pred/2023-Apr-25-1630_maxeplen5_maxtrainstep200_exh32_gamma099_lrac3e-4_lrcr1e-3/af895cae38f50b8ad608cacdd29f7ae1ddca485c_ligand_2.pdbqt
 12 12 0 0 0
SMALL
GASTEIGER

@<TRIPOS>ATOM
      1  C          5.3760    2.9610    0.1490 C.3     1  UNL1        0.1270
      2  C          6.2530    3.9000    0.8870 C.2     1  UNL1        0.3030
      3  O          6.8960    4.7750    0.2860 O.2     1  UNL1       -0.2520
      4  O          6.3560    3.8000    2.2610 O.3     1  UNL1       -0.4810
      5  H          7.2530    3.7340    2.7350 H       1  UNL1        0.2960
      6  C          5.2470    1.6580    0.8960 C.3     1  UNL1        0.0470
      7  C          5.9980    0.5570    0.2620 C.2     1  UNL1       -0.0470
      8  C          6.4300   -0.5640    0.9220 C.2     1  UNL1        0.0040
      9  C          6.2810    0.6690   -1.0790 C.2     1  UNL1        0.0040
     10  C          7.1290   -1.5460    0.2480 C.2     1  UNL1        0.0000
     11  C          6.9700   -0.2890   -1.7630 C.2     1  UNL1        0.0000
     12  C          7.4040   -1.4160   -1.0990 C.2     1  UNL1        0.0000
@<TRIPOS>BOND
     1    11    12    2
     2    11     9    1
     3    12    10    1
     4     9     7    2
     5     1     2    1
     6     1     6    1
     7    10     8    2
     8     7     6    1
     9     7     8    1
    10     3     2    2
    11     2     4    1
    12     4     5    1
