@<TRIPOS>MOLECULE
/home/cewinharhar/GITHUB/reincatalyze/data/processed/docking_pred/2023-Apr-25-1630_maxeplen5_maxtrainstep200_exh32_gamma099_lrac3e-4_lrcr1e-3/af895cae38f50b8ad608cacdd29f7ae1ddca485c_ligand_2.pdbqt
 12 12 0 0 0
SMALL
GASTEIGER

@<TRIPOS>ATOM
      1  C          5.0390    1.6710    0.6750 C.3     1  UNL1        0.1270
      2  C          4.6030    1.0090    1.9270 C.2     1  UNL1        0.3030
      3  O          5.3270    0.1720    2.4880 O.2     1  UNL1       -0.2520
      4  O          3.3750    1.3260    2.4750 O.3     1  UNL1       -0.4810
      5  H          3.2270    2.1680    3.0250 H       1  UNL1        0.2960
      6  C          6.5340    1.8690    0.6730 C.3     1  UNL1        0.0470
      7  C          7.2150    1.0820   -0.3730 C.2     1  UNL1       -0.0470
      8  C          8.5520    1.1730   -0.6610 C.2     1  UNL1        0.0040
      9  C          6.4530    0.2020   -1.1050 C.2     1  UNL1        0.0040
     10  C          9.1070    0.3980   -1.6610 C.2     1  UNL1        0.0000
     11  C          6.9810   -0.5720   -2.0960 C.2     1  UNL1        0.0000
     12  C          8.3250   -0.4810   -2.3850 C.2     1  UNL1        0.0000
@<TRIPOS>BOND
     1    12    11    2
     2    12    10    1
     3    11     9    1
     4    10     8    2
     5     9     7    2
     6     8     7    1
     7     7     6    1
     8     6     1    1
     9     1     2    1
    10     2     4    1
    11     2     3    2
    12     4     5    1
