@<TRIPOS>MOLECULE
/home/cewinharhar/GITHUB/reincatalyze/data/processed/docking_pred/2023-Apr-25-1630_maxeplen5_maxtrainstep200_exh32_gamma099_lrac3e-4_lrcr1e-3/af9628f04dddfdfce7c60ac864c84e5664a7a69f_ligand_2.pdbqt
 12 12 0 0 0
SMALL
GASTEIGER

@<TRIPOS>ATOM
      1  C          8.4290   -0.6010   -2.1990 C.3     1  UNL1        0.1270
      2  C          8.4810   -1.8940   -2.9200 C.2     1  UNL1        0.3030
      3  O          9.5580   -2.4880   -3.0850 O.2     1  UNL1       -0.2520
      4  O          7.3150   -2.4450   -3.4160 O.3     1  UNL1       -0.4810
      5  H          6.8100   -2.0370   -4.1980 H       1  UNL1        0.2960
      6  C          7.0110   -0.0960   -2.1160 C.3     1  UNL1        0.0470
      7  C          6.5040   -0.0350   -0.7310 C.2     1  UNL1       -0.0470
      8  C          6.6400   -1.0450    0.1850 C.2     1  UNL1        0.0040
      9  C          5.8540    1.1120   -0.3410 C.2     1  UNL1        0.0040
     10  C          6.1330   -0.9030    1.4630 C.2     1  UNL1        0.0000
     11  C          5.3460    1.2720    0.9150 C.2     1  UNL1        0.0000
     12  C          5.4830    0.2560    1.8370 C.2     1  UNL1        0.0000
@<TRIPOS>BOND
     1     5     4    1
     2     4     2    1
     3     3     2    2
     4     2     1    1
     5     1     6    1
     6     6     7    1
     7     7     9    2
     8     7     8    1
     9     9    11    1
    10     8    10    2
    11    11    12    2
    12    10    12    1
