MODEL 1
REMARK VINA RESULT:      -7.3      0.000      0.000
REMARK SMILES O=C(O)CCc1ccccc1
REMARK SMILES IDX 4 1 2 2 1 3 3 4 5 6 6 7 7 8 11 9 8 10 10 11 9 12
REMARK H PARENT 3 5
REMARK Flexibility Score: inf
ROOT
ATOM      1  C   UNL     1       8.397  -0.715  -2.070  1.00  0.00     0.127 C 
ENDROOT
BRANCH   1   2
ATOM      2  C   UNL     1       8.450  -1.951  -2.886  1.00  0.00     0.303 C 
ATOM      3  O   UNL     1       9.529  -2.526  -3.099  1.00  0.00    -0.252 OA
BRANCH   2   4
ATOM      4  O   UNL     1       7.284  -2.470  -3.415  1.00  0.00    -0.481 OA
ATOM      5  H   UNL     1       7.285  -3.177  -4.144  1.00  0.00     0.296 HD
ENDBRANCH   2   4
ENDBRANCH   1   2
BRANCH   1   6
ATOM      6  C   UNL     1       7.012  -0.120  -2.099  1.00  0.00     0.047 C 
BRANCH   6   7
ATOM      7  C   UNL     1       6.451   0.089  -0.750  1.00  0.00    -0.047 A 
ATOM      8  C   UNL     1       5.808   1.233  -0.350  1.00  0.00     0.004 A 
ATOM      9  C   UNL     1       6.585  -0.931   0.161  1.00  0.00     0.004 A 
ATOM     10  C   UNL     1       5.314   1.343   0.935  1.00  0.00     0.000 A 
ATOM     11  C   UNL     1       6.105  -0.842   1.434  1.00  0.00     0.000 A 
ATOM     12  C   UNL     1       5.458   0.307   1.837  1.00  0.00     0.000 A 
ENDBRANCH   6   7
ENDBRANCH   1   6
TORSDOF 4
ENDMDL
MODEL 2
REMARK VINA RESULT:      -7.3      0.099      1.430
REMARK SMILES O=C(O)CCc1ccccc1
REMARK SMILES IDX 4 1 2 2 1 3 3 4 5 6 6 7 7 8 11 9 8 10 10 11 9 12
REMARK H PARENT 3 5
REMARK Flexibility Score: inf
ROOT
ATOM      1  C   UNL     1       8.429  -0.601  -2.199  1.00  0.00     0.127 C 
ENDROOT
BRANCH   1   2
ATOM      2  C   UNL     1       8.481  -1.894  -2.920  1.00  0.00     0.303 C 
ATOM      3  O   UNL     1       9.558  -2.488  -3.085  1.00  0.00    -0.252 OA
BRANCH   2   4
ATOM      4  O   UNL     1       7.315  -2.445  -3.416  1.00  0.00    -0.481 OA
ATOM      5  H   UNL     1       6.810  -2.037  -4.198  1.00  0.00     0.296 HD
ENDBRANCH   2   4
ENDBRANCH   1   2
BRANCH   1   6
ATOM      6  C   UNL     1       7.011  -0.096  -2.116  1.00  0.00     0.047 C 
BRANCH   6   7
ATOM      7  C   UNL     1       6.504  -0.035  -0.731  1.00  0.00    -0.047 A 
ATOM      8  C   UNL     1       6.640  -1.045   0.185  1.00  0.00     0.004 A 
ATOM      9  C   UNL     1       5.854   1.112  -0.341  1.00  0.00     0.004 A 
ATOM     10  C   UNL     1       6.133  -0.903   1.463  1.00  0.00     0.000 A 
ATOM     11  C   UNL     1       5.346   1.272   0.915  1.00  0.00     0.000 A 
ATOM     12  C   UNL     1       5.483   0.256   1.837  1.00  0.00     0.000 A 
ENDBRANCH   6   7
ENDBRANCH   1   6
TORSDOF 4
ENDMDL
MODEL 3
REMARK VINA RESULT:      -6.8      3.381      5.094
REMARK SMILES O=C(O)CCc1ccccc1
REMARK SMILES IDX 4 1 2 2 1 3 3 4 5 6 6 7 7 8 11 9 8 10 10 11 9 12
REMARK H PARENT 3 5
REMARK Flexibility Score: inf
ROOT
ATOM      1  C   UNL     1       5.000   1.808   0.750  1.00  0.00     0.127 C 
ENDROOT
BRANCH   1   2
ATOM      2  C   UNL     1       4.475   1.100   1.942  1.00  0.00     0.303 C 
ATOM      3  O   UNL     1       5.126   0.190   2.477  1.00  0.00    -0.252 OA
BRANCH   2   4
ATOM      4  O   UNL     1       3.247   1.459   2.462  1.00  0.00    -0.481 OA
ATOM      5  H   UNL     1       2.703   0.834   3.050  1.00  0.00     0.296 HD
ENDBRANCH   2   4
ENDBRANCH   1   2
BRANCH   1   6
ATOM      6  C   UNL     1       6.508   1.817   0.760  1.00  0.00     0.047 C 
BRANCH   6   7
ATOM      7  C   UNL     1       7.093   1.021  -0.336  1.00  0.00    -0.047 A 
ATOM      8  C   UNL     1       6.405   0.080  -1.059  1.00  0.00     0.004 A 
ATOM      9  C   UNL     1       8.414   1.239  -0.648  1.00  0.00     0.004 A 
ATOM     10  C   UNL     1       7.033  -0.621  -2.070  1.00  0.00     0.000 A 
ATOM     11  C   UNL     1       9.052   0.557  -1.641  1.00  0.00     0.000 A 
ATOM     12  C   UNL     1       8.361  -0.388  -2.369  1.00  0.00     0.000 A 
ENDBRANCH   6   7
ENDBRANCH   1   6
TORSDOF 4
ENDMDL
MODEL 4
REMARK VINA RESULT:      -6.7      3.819      4.935
REMARK SMILES O=C(O)CCc1ccccc1
REMARK SMILES IDX 4 1 2 2 1 3 3 4 5 6 6 7 7 8 11 9 8 10 10 11 9 12
REMARK H PARENT 3 5
REMARK Flexibility Score: inf
ROOT
ATOM      1  C   UNL     1       5.486   2.947  -0.013  1.00  0.00     0.127 C 
ENDROOT
BRANCH   1   2
ATOM      2  C   UNL     1       6.266   3.916   0.793  1.00  0.00     0.303 C 
ATOM      3  O   UNL     1       6.973   4.775   0.244  1.00  0.00    -0.252 OA
BRANCH   2   4
ATOM      4  O   UNL     1       6.205   3.862   2.172  1.00  0.00    -0.481 OA
ATOM      5  H   UNL     1       5.719   4.565   2.723  1.00  0.00     0.296 HD
ENDBRANCH   2   4
ENDBRANCH   1   2
BRANCH   1   6
ATOM      6  C   UNL     1       4.904   1.871   0.870  1.00  0.00     0.047 C 
BRANCH   6   7
ATOM      7  C   UNL     1       5.708   0.634   0.871  1.00  0.00    -0.047 A 
ATOM      8  C   UNL     1       6.391   0.157  -0.218  1.00  0.00     0.004 A 
ATOM      9  C   UNL     1       5.771  -0.084   2.041  1.00  0.00     0.004 A 
ATOM     10  C   UNL     1       7.120  -1.013  -0.128  1.00  0.00     0.000 A 
ATOM     11  C   UNL     1       6.484  -1.241   2.151  1.00  0.00     0.000 A 
ATOM     12  C   UNL     1       7.172  -1.721   1.056  1.00  0.00     0.000 A 
ENDBRANCH   6   7
ENDBRANCH   1   6
TORSDOF 4
ENDMDL
MODEL 5
REMARK VINA RESULT:      -6.6      1.949      2.254
REMARK SMILES O=C(O)CCc1ccccc1
REMARK SMILES IDX 4 1 2 2 1 3 3 4 5 6 6 7 7 8 11 9 8 10 10 11 9 12
REMARK H PARENT 3 5
REMARK Flexibility Score: inf
ROOT
ATOM      1  C   UNL     1       8.204   0.253  -2.099  1.00  0.00     0.127 C 
ENDROOT
BRANCH   1   2
ATOM      2  C   UNL     1       9.373   0.362  -1.195  1.00  0.00     0.303 C 
ATOM      3  O   UNL     1       9.484  -0.380  -0.207  1.00  0.00    -0.252 OA
BRANCH   2   4
ATOM      4  O   UNL     1      10.352   1.301  -1.456  1.00  0.00    -0.481 OA
ATOM      5  H   UNL     1      10.299   1.936  -2.248  1.00  0.00     0.296 HD
ENDBRANCH   2   4
ENDBRANCH   1   2
BRANCH   1   6
ATOM      6  C   UNL     1       7.126  -0.595  -1.471  1.00  0.00     0.047 C 
BRANCH   6   7
ATOM      7  C   UNL     1       6.340   0.136  -0.458  1.00  0.00    -0.047 A 
ATOM      8  C   UNL     1       5.774   1.369  -0.662  1.00  0.00     0.004 A 
ATOM      9  C   UNL     1       6.169  -0.461   0.769  1.00  0.00     0.004 A 
ATOM     10  C   UNL     1       5.055   1.982   0.345  1.00  0.00     0.000 A 
ATOM     11  C   UNL     1       5.463   0.128   1.775  1.00  0.00     0.000 A 
ATOM     12  C   UNL     1       4.893   1.367   1.571  1.00  0.00     0.000 A 
ENDBRANCH   6   7
ENDBRANCH   1   6
TORSDOF 4
ENDMDL
