@<TRIPOS>MOLECULE
/home/cewinharhar/GITHUB/reincatalyze/data/processed/docking_pred/2023-Apr-25-1630_maxeplen5_maxtrainstep200_exh32_gamma099_lrac3e-4_lrcr1e-3/af9628f04dddfdfce7c60ac864c84e5664a7a69f_ligand_2.pdbqt
 12 12 0 0 0
SMALL
GASTEIGER

@<TRIPOS>ATOM
      1  C          8.2040    0.2530   -2.0990 C.3     1  UNL1        0.1270
      2  C          9.3730    0.3620   -1.1950 C.2     1  UNL1        0.3030
      3  O          9.4840   -0.3800   -0.2070 O.2     1  UNL1       -0.2520
      4  O         10.3520    1.3010   -1.4560 O.3     1  UNL1       -0.4810
      5  H         10.2990    1.9360   -2.2480 H       1  UNL1        0.2960
      6  C          7.1260   -0.5950   -1.4710 C.3     1  UNL1        0.0470
      7  C          6.3400    0.1360   -0.4580 C.2     1  UNL1       -0.0470
      8  C          5.7740    1.3690   -0.6620 C.2     1  UNL1        0.0040
      9  C          6.1690   -0.4610    0.7690 C.2     1  UNL1        0.0040
     10  C          5.0550    1.9820    0.3450 C.2     1  UNL1        0.0000
     11  C          5.4630    0.1280    1.7750 C.2     1  UNL1        0.0000
     12  C          4.8930    1.3670    1.5710 C.2     1  UNL1        0.0000
@<TRIPOS>BOND
     1     5     4    1
     2     1     6    1
     3     1     2    1
     4     6     7    1
     5     4     2    1
     6     2     3    2
     7     8     7    2
     8     8    10    1
     9     7     9    1
    10    10    12    2
    11     9    11    2
    12    12    11    1
