@<TRIPOS>MOLECULE
/home/cewinharhar/GITHUB/reincatalyze/data/processed/docking_pred/2023-Apr-25-1630_maxeplen5_maxtrainstep200_exh32_gamma099_lrac3e-4_lrcr1e-3/af9628f04dddfdfce7c60ac864c84e5664a7a69f_ligand_2.pdbqt
 12 12 0 0 0
SMALL
GASTEIGER

@<TRIPOS>ATOM
      1  C          5.4860    2.9470   -0.0130 C.3     1  UNL1        0.1270
      2  C          6.2660    3.9160    0.7930 C.2     1  UNL1        0.3030
      3  O          6.9730    4.7750    0.2440 O.2     1  UNL1       -0.2520
      4  O          6.2050    3.8620    2.1720 O.3     1  UNL1       -0.4810
      5  H          5.7190    4.5650    2.7230 H       1  UNL1        0.2960
      6  C          4.9040    1.8710    0.8700 C.3     1  UNL1        0.0470
      7  C          5.7080    0.6340    0.8710 C.2     1  UNL1       -0.0470
      8  C          6.3910    0.1570   -0.2180 C.2     1  UNL1        0.0040
      9  C          5.7710   -0.0840    2.0410 C.2     1  UNL1        0.0040
     10  C          7.1200   -1.0130   -0.1280 C.2     1  UNL1        0.0000
     11  C          6.4840   -1.2410    2.1510 C.2     1  UNL1        0.0000
     12  C          7.1720   -1.7210    1.0560 C.2     1  UNL1        0.0000
@<TRIPOS>BOND
     1     8    10    1
     2     8     7    2
     3    10    12    2
     4     1     2    1
     5     1     6    1
     6     3     2    2
     7     2     4    1
     8     6     7    1
     9     7     9    1
    10    12    11    1
    11     9    11    2
    12     4     5    1
