@<TRIPOS>MOLECULE
/home/cewinharhar/GITHUB/reincatalyze/data/processed/docking_pred/2023-Apr-25-1630_maxeplen5_maxtrainstep200_exh32_gamma099_lrac3e-4_lrcr1e-3/b0253e2818c1de1129519fa2afa58b59888d8d60_ligand_2.pdbqt
 12 12 0 0 0
SMALL
GASTEIGER

@<TRIPOS>ATOM
      1  C          4.9900    1.7870    0.7140 C.3     1  UNL1        0.1270
      2  C          4.4810    1.1020    1.9260 C.2     1  UNL1        0.3030
      3  O          5.1420    0.2070    2.4740 O.2     1  UNL1       -0.2520
      4  O          3.2560    1.4650    2.4510 O.3     1  UNL1       -0.4810
      5  H          2.7870    2.3270    2.1900 H       1  UNL1        0.2960
      6  C          6.4980    1.8290    0.7220 C.3     1  UNL1        0.0470
      7  C          7.0980    1.0200   -0.3560 C.2     1  UNL1       -0.0470
      8  C          6.4200    0.0750   -1.0820 C.2     1  UNL1        0.0040
      9  C          8.4250    1.2310   -0.6470 C.2     1  UNL1        0.0040
     10  C          7.0630   -0.6380   -2.0750 C.2     1  UNL1        0.0000
     11  C          9.0780    0.5380   -1.6230 C.2     1  UNL1        0.0000
     12  C          8.3960   -0.4120   -2.3530 C.2     1  UNL1        0.0000
@<TRIPOS>BOND
     1    12    10    2
     2    12    11    1
     3    10     8    1
     4    11     9    2
     5     8     7    2
     6     9     7    1
     7     7     6    1
     8     1     6    1
     9     1     2    1
    10     2     4    1
    11     2     3    2
    12     5     4    1
