@<TRIPOS>MOLECULE
/home/cewinharhar/GITHUB/reincatalyze/data/processed/docking_pred/2023-Apr-25-1630_maxeplen5_maxtrainstep200_exh32_gamma099_lrac3e-4_lrcr1e-3/b0253e2818c1de1129519fa2afa58b59888d8d60_ligand_2.pdbqt
 12 12 0 0 0
SMALL
GASTEIGER

@<TRIPOS>ATOM
      1  C          5.4600    2.9030    0.0380 C.3     1  UNL1        0.1270
      2  C          6.2660    3.8640    0.8290 C.2     1  UNL1        0.3030
      3  O          6.8970    4.7750    0.2700 O.2     1  UNL1       -0.2520
      4  O          6.3140    3.7440    2.2040 O.3     1  UNL1       -0.4810
      5  H          5.8340    3.0000    2.7020 H       1  UNL1        0.2960
      6  C          4.8700    1.8430    0.9350 C.3     1  UNL1        0.0470
      7  C          5.6570    0.5950    0.9400 C.2     1  UNL1       -0.0470
      8  C          5.7850   -0.2320    2.0260 C.2     1  UNL1        0.0040
      9  C          6.3040    0.2450   -0.2210 C.2     1  UNL1        0.0040
     10  C          6.5450   -1.3830    1.9430 C.2     1  UNL1        0.0000
     11  C          7.0590   -0.8860   -0.3240 C.2     1  UNL1        0.0000
     12  C          7.1870   -1.7190    0.7670 C.2     1  UNL1        0.0000
@<TRIPOS>BOND
     1    11     9    1
     2    11    12    2
     3     9     7    2
     4     1     2    1
     5     1     6    1
     6     3     2    2
     7    12    10    1
     8     2     4    1
     9     6     7    1
    10     7     8    1
    11    10     8    2
    12     4     5    1
