MODEL 1
REMARK VINA RESULT:      -7.3      0.000      0.000
REMARK SMILES O=C(O)CCc1ccccc1
REMARK SMILES IDX 4 1 2 2 1 3 3 4 5 6 6 7 7 8 11 9 8 10 10 11 9 12
REMARK H PARENT 3 5
REMARK Flexibility Score: inf
ROOT
ATOM      1  C   UNL     1       8.424  -0.642  -2.133  1.00  0.00     0.127 C 
ENDROOT
BRANCH   1   2
ATOM      2  C   UNL     1       8.481  -1.911  -2.896  1.00  0.00     0.303 C 
ATOM      3  O   UNL     1       9.562  -2.493  -3.081  1.00  0.00    -0.252 OA
BRANCH   2   4
ATOM      4  O   UNL     1       7.318  -2.453  -3.407  1.00  0.00    -0.481 OA
ATOM      5  H   UNL     1       6.703  -1.932  -4.026  1.00  0.00     0.296 HD
ENDBRANCH   2   4
ENDBRANCH   1   2
BRANCH   1   6
ATOM      6  C   UNL     1       7.025  -0.079  -2.145  1.00  0.00     0.047 C 
BRANCH   6   7
ATOM      7  C   UNL     1       6.469   0.102  -0.790  1.00  0.00    -0.047 A 
ATOM      8  C   UNL     1       5.840   1.242  -0.360  1.00  0.00     0.004 A 
ATOM      9  C   UNL     1       6.594  -0.942   0.095  1.00  0.00     0.004 A 
ATOM     10  C   UNL     1       5.350   1.326   0.929  1.00  0.00     0.000 A 
ATOM     11  C   UNL     1       6.118  -0.879   1.372  1.00  0.00     0.000 A 
ATOM     12  C   UNL     1       5.485   0.267   1.804  1.00  0.00     0.000 A 
ENDBRANCH   6   7
ENDBRANCH   1   6
TORSDOF 4
ENDMDL
MODEL 2
REMARK VINA RESULT:      -7.3      0.085      1.428
REMARK SMILES O=C(O)CCc1ccccc1
REMARK SMILES IDX 4 1 2 2 1 3 3 4 5 6 6 7 7 8 11 9 8 10 10 11 9 12
REMARK H PARENT 3 5
REMARK Flexibility Score: inf
ROOT
ATOM      1  C   UNL     1       8.434  -0.598  -2.255  1.00  0.00     0.127 C 
ENDROOT
BRANCH   1   2
ATOM      2  C   UNL     1       8.471  -1.916  -2.931  1.00  0.00     0.303 C 
ATOM      3  O   UNL     1       9.541  -2.528  -3.072  1.00  0.00    -0.252 OA
BRANCH   2   4
ATOM      4  O   UNL     1       7.300  -2.470  -3.410  1.00  0.00    -0.481 OA
ATOM      5  H   UNL     1       6.970  -3.384  -3.112  1.00  0.00     0.296 HD
ENDBRANCH   2   4
ENDBRANCH   1   2
BRANCH   1   6
ATOM      6  C   UNL     1       7.020  -0.077  -2.186  1.00  0.00     0.047 C 
BRANCH   6   7
ATOM      7  C   UNL     1       6.512   0.017  -0.804  1.00  0.00    -0.047 A 
ATOM      8  C   UNL     1       6.617  -0.984   0.127  1.00  0.00     0.004 A 
ATOM      9  C   UNL     1       5.891   1.186  -0.431  1.00  0.00     0.004 A 
ATOM     10  C   UNL     1       6.110  -0.811   1.400  1.00  0.00     0.000 A 
ATOM     11  C   UNL     1       5.384   1.376   0.820  1.00  0.00     0.000 A 
ATOM     12  C   UNL     1       5.491   0.370   1.756  1.00  0.00     0.000 A 
ENDBRANCH   6   7
ENDBRANCH   1   6
TORSDOF 4
ENDMDL
MODEL 3
REMARK VINA RESULT:      -7.2      0.656      1.134
REMARK SMILES O=C(O)CCc1ccccc1
REMARK SMILES IDX 4 1 2 2 1 3 3 4 5 6 6 7 7 8 11 9 8 10 10 11 9 12
REMARK H PARENT 3 5
REMARK Flexibility Score: inf
ROOT
ATOM      1  C   UNL     1       8.279  -0.936  -1.884  1.00  0.00     0.127 C 
ENDROOT
BRANCH   1   2
ATOM      2  C   UNL     1       8.421  -2.053  -2.847  1.00  0.00     0.303 C 
ATOM      3  O   UNL     1       9.533  -2.551  -3.082  1.00  0.00    -0.252 OA
BRANCH   2   4
ATOM      4  O   UNL     1       7.303  -2.546  -3.491  1.00  0.00    -0.481 OA
ATOM      5  H   UNL     1       7.152  -3.541  -3.633  1.00  0.00     0.296 HD
ENDBRANCH   2   4
ENDBRANCH   1   2
BRANCH   1   6
ATOM      6  C   UNL     1       7.465  -1.367  -0.689  1.00  0.00     0.047 C 
BRANCH   6   7
ATOM      7  C   UNL     1       6.606  -0.289  -0.163  1.00  0.00    -0.047 A 
ATOM      8  C   UNL     1       6.227   0.817  -0.881  1.00  0.00     0.004 A 
ATOM      9  C   UNL     1       6.159  -0.405   1.132  1.00  0.00     0.004 A 
ATOM     10  C   UNL     1       5.420   1.780  -0.307  1.00  0.00     0.000 A 
ATOM     11  C   UNL     1       5.362   0.535   1.717  1.00  0.00     0.000 A 
ATOM     12  C   UNL     1       4.981   1.646   0.995  1.00  0.00     0.000 A 
ENDBRANCH   6   7
ENDBRANCH   1   6
TORSDOF 4
ENDMDL
MODEL 4
REMARK VINA RESULT:      -6.8      3.377      5.083
REMARK SMILES O=C(O)CCc1ccccc1
REMARK SMILES IDX 4 1 2 2 1 3 3 4 5 6 6 7 7 8 11 9 8 10 10 11 9 12
REMARK H PARENT 3 5
REMARK Flexibility Score: inf
ROOT
ATOM      1  C   UNL     1       4.990   1.787   0.714  1.00  0.00     0.127 C 
ENDROOT
BRANCH   1   2
ATOM      2  C   UNL     1       4.481   1.102   1.926  1.00  0.00     0.303 C 
ATOM      3  O   UNL     1       5.142   0.207   2.474  1.00  0.00    -0.252 OA
BRANCH   2   4
ATOM      4  O   UNL     1       3.256   1.465   2.451  1.00  0.00    -0.481 OA
ATOM      5  H   UNL     1       2.787   2.327   2.190  1.00  0.00     0.296 HD
ENDBRANCH   2   4
ENDBRANCH   1   2
BRANCH   1   6
ATOM      6  C   UNL     1       6.498   1.829   0.722  1.00  0.00     0.047 C 
BRANCH   6   7
ATOM      7  C   UNL     1       7.098   1.020  -0.356  1.00  0.00    -0.047 A 
ATOM      8  C   UNL     1       6.420   0.075  -1.082  1.00  0.00     0.004 A 
ATOM      9  C   UNL     1       8.425   1.231  -0.647  1.00  0.00     0.004 A 
ATOM     10  C   UNL     1       7.063  -0.638  -2.075  1.00  0.00     0.000 A 
ATOM     11  C   UNL     1       9.078   0.538  -1.623  1.00  0.00     0.000 A 
ATOM     12  C   UNL     1       8.396  -0.412  -2.353  1.00  0.00     0.000 A 
ENDBRANCH   6   7
ENDBRANCH   1   6
TORSDOF 4
ENDMDL
MODEL 5
REMARK VINA RESULT:      -6.7      3.809      4.981
REMARK SMILES O=C(O)CCc1ccccc1
REMARK SMILES IDX 4 1 2 2 1 3 3 4 5 6 6 7 7 8 11 9 8 10 10 11 9 12
REMARK H PARENT 3 5
REMARK Flexibility Score: inf
ROOT
ATOM      1  C   UNL     1       5.460   2.903   0.038  1.00  0.00     0.127 C 
ENDROOT
BRANCH   1   2
ATOM      2  C   UNL     1       6.266   3.864   0.829  1.00  0.00     0.303 C 
ATOM      3  O   UNL     1       6.897   4.775   0.270  1.00  0.00    -0.252 OA
BRANCH   2   4
ATOM      4  O   UNL     1       6.314   3.744   2.204  1.00  0.00    -0.481 OA
ATOM      5  H   UNL     1       5.834   3.000   2.702  1.00  0.00     0.296 HD
ENDBRANCH   2   4
ENDBRANCH   1   2
BRANCH   1   6
ATOM      6  C   UNL     1       4.870   1.843   0.935  1.00  0.00     0.047 C 
BRANCH   6   7
ATOM      7  C   UNL     1       5.657   0.595   0.940  1.00  0.00    -0.047 A 
ATOM      8  C   UNL     1       5.785  -0.232   2.026  1.00  0.00     0.004 A 
ATOM      9  C   UNL     1       6.304   0.245  -0.221  1.00  0.00     0.004 A 
ATOM     10  C   UNL     1       6.545  -1.383   1.943  1.00  0.00     0.000 A 
ATOM     11  C   UNL     1       7.059  -0.886  -0.324  1.00  0.00     0.000 A 
ATOM     12  C   UNL     1       7.187  -1.719   0.767  1.00  0.00     0.000 A 
ENDBRANCH   6   7
ENDBRANCH   1   6
TORSDOF 4
ENDMDL
