@<TRIPOS>MOLECULE
/home/cewinharhar/GITHUB/reincatalyze/data/processed/docking_pred/2023-Apr-25-1630_maxeplen5_maxtrainstep200_exh32_gamma099_lrac3e-4_lrcr1e-3/b0253e2818c1de1129519fa2afa58b59888d8d60_ligand_2.pdbqt
 12 12 0 0 0
SMALL
GASTEIGER

@<TRIPOS>ATOM
      1  C          8.2790   -0.9360   -1.8840 C.3     1  UNL1        0.1270
      2  C          8.4210   -2.0530   -2.8470 C.2     1  UNL1        0.3030
      3  O          9.5330   -2.5510   -3.0820 O.2     1  UNL1       -0.2520
      4  O          7.3030   -2.5460   -3.4910 O.3     1  UNL1       -0.4810
      5  H          7.1520   -3.5410   -3.6330 H       1  UNL1        0.2960
      6  C          7.4650   -1.3670   -0.6890 C.3     1  UNL1        0.0470
      7  C          6.6060   -0.2890   -0.1630 C.2     1  UNL1       -0.0470
      8  C          6.2270    0.8170   -0.8810 C.2     1  UNL1        0.0040
      9  C          6.1590   -0.4050    1.1320 C.2     1  UNL1        0.0040
     10  C          5.4200    1.7800   -0.3070 C.2     1  UNL1        0.0000
     11  C          5.3620    0.5350    1.7170 C.2     1  UNL1        0.0000
     12  C          4.9810    1.6460    0.9950 C.2     1  UNL1        0.0000
@<TRIPOS>BOND
     1     5     4    1
     2     4     2    1
     3     3     2    2
     4     2     1    1
     5     1     6    1
     6     8    10    1
     7     8     7    2
     8     6     7    1
     9    10    12    2
    10     7     9    1
    11    12    11    1
    12     9    11    2
