@<TRIPOS>MOLECULE
/home/cewinharhar/GITHUB/reincatalyze/data/processed/docking_pred/2023-Apr-25-1630_maxeplen5_maxtrainstep200_exh32_gamma099_lrac3e-4_lrcr1e-3/b1cc709a4c09585943c6b669d8b61c6b26bf0288_ligand_2.pdbqt
 12 12 0 0 0
SMALL
GASTEIGER

@<TRIPOS>ATOM
      1  C          8.4390   -0.6000   -2.1920 C.3     1  UNL1        0.1270
      2  C          8.4850   -1.8920   -2.9180 C.2     1  UNL1        0.3030
      3  O          9.5590   -2.4940   -3.0740 O.2     1  UNL1       -0.2520
      4  O          7.3190   -2.4310   -3.4270 O.3     1  UNL1       -0.4810
      5  H          7.3220   -3.1890   -4.1040 H       1  UNL1        0.2960
      6  C          7.0360   -0.0440   -2.1900 C.3     1  UNL1        0.0470
      7  C          6.4880    0.1200   -0.8300 C.2     1  UNL1       -0.0470
      8  C          5.8540    1.2520   -0.3850 C.2     1  UNL1        0.0040
      9  C          6.6260   -0.9320    0.0440 C.2     1  UNL1        0.0040
     10  C          5.3710    1.3200    0.9080 C.2     1  UNL1        0.0000
     11  C          6.1580   -0.8840    1.3240 C.2     1  UNL1        0.0000
     12  C          5.5190    0.2530    1.7710 C.2     1  UNL1        0.0000
@<TRIPOS>BOND
     1     5     4    1
     2     4     2    1
     3     3     2    2
     4     2     1    1
     5     1     6    1
     6     6     7    1
     7     7     8    2
     8     7     9    1
     9     8    10    1
    10     9    11    2
    11    10    12    2
    12    11    12    1
