@<TRIPOS>MOLECULE
/home/cewinharhar/GITHUB/reincatalyze/data/processed/docking_pred/2023-Apr-25-1630_maxeplen5_maxtrainstep200_exh32_gamma099_lrac3e-4_lrcr1e-3/b1cc709a4c09585943c6b669d8b61c6b26bf0288_ligand_2.pdbqt
 12 12 0 0 0
SMALL
GASTEIGER

@<TRIPOS>ATOM
      1  C          5.4610    2.9030    0.0610 C.3     1  UNL1        0.1270
      2  C          6.2700    3.8690    0.8400 C.2     1  UNL1        0.3030
      3  O          6.9000    4.7750    0.2720 O.2     1  UNL1       -0.2520
      4  O          6.3250    3.7600    2.2160 O.3     1  UNL1       -0.4810
      5  H          6.9640    3.1250    2.6860 H       1  UNL1        0.2960
      6  C          4.9320    1.8110    0.9560 C.3     1  UNL1        0.0470
      7  C          5.7580    0.5880    0.9170 C.2     1  UNL1       -0.0470
      8  C          6.4990    0.1920   -0.1660 C.2     1  UNL1        0.0040
      9  C          5.7810   -0.2020    2.0420 C.2     1  UNL1        0.0040
     10  C          7.2440   -0.9700   -0.1160 C.2     1  UNL1        0.0000
     11  C          6.5090   -1.3530    2.1110 C.2     1  UNL1        0.0000
     12  C          7.2550   -1.7510    1.0230 C.2     1  UNL1        0.0000
@<TRIPOS>BOND
     1     8    10    1
     2     8     7    2
     3    10    12    2
     4     1     2    1
     5     1     6    1
     6     3     2    2
     7     2     4    1
     8     7     6    1
     9     7     9    1
    10    12    11    1
    11     9    11    2
    12     4     5    1
