@<TRIPOS>MOLECULE
/home/cewinharhar/GITHUB/reincatalyze/data/processed/docking_pred/2023-Apr-25-1630_maxeplen5_maxtrainstep200_exh32_gamma099_lrac3e-4_lrcr1e-3/b1cc709a4c09585943c6b669d8b61c6b26bf0288_ligand_2.pdbqt
 12 12 0 0 0
SMALL
GASTEIGER

@<TRIPOS>ATOM
      1  C          8.4380   -0.6680   -2.1170 C.3     1  UNL1        0.1270
      2  C          8.4840   -1.9310   -2.8910 C.2     1  UNL1        0.3030
      3  O          9.5590   -2.5210   -3.0790 O.2     1  UNL1       -0.2520
      4  O          7.3160   -2.4560   -3.4090 O.3     1  UNL1       -0.4810
      5  H          6.8260   -2.0270   -4.1890 H       1  UNL1        0.2960
      6  C          7.0330   -0.1200   -2.0790 C.3     1  UNL1        0.0470
      7  C          6.4900   -0.0290   -0.7100 C.2     1  UNL1       -0.0470
      8  C          6.5910   -1.0240    0.2280 C.2     1  UNL1        0.0040
      9  C          5.8410    1.1310   -0.3580 C.2     1  UNL1        0.0040
     10  C          6.0510   -0.8530    1.4880 C.2     1  UNL1        0.0000
     11  C          5.3010    1.3190    0.8800 C.2     1  UNL1        0.0000
     12  C          5.4030    0.3190    1.8240 C.2     1  UNL1        0.0000
@<TRIPOS>BOND
     1     5     4    1
     2     4     2    1
     3     3     2    2
     4     2     1    1
     5     1     6    1
     6     6     7    1
     7     7     9    2
     8     7     8    1
     9     9    11    1
    10     8    10    2
    11    11    12    2
    12    10    12    1
