MODEL 1
REMARK VINA RESULT:      -7.4      0.000      0.000
REMARK SMILES O=C(O)CCc1ccccc1
REMARK SMILES IDX 4 1 2 2 1 3 3 4 5 6 6 7 7 8 11 9 8 10 10 11 9 12
REMARK H PARENT 3 5
REMARK Flexibility Score: inf
ROOT
ATOM      1  C   UNL     1       8.438  -0.668  -2.117  1.00  0.00     0.127 C 
ENDROOT
BRANCH   1   2
ATOM      2  C   UNL     1       8.484  -1.931  -2.891  1.00  0.00     0.303 C 
ATOM      3  O   UNL     1       9.559  -2.521  -3.079  1.00  0.00    -0.252 OA
BRANCH   2   4
ATOM      4  O   UNL     1       7.316  -2.456  -3.409  1.00  0.00    -0.481 OA
ATOM      5  H   UNL     1       6.826  -2.027  -4.189  1.00  0.00     0.296 HD
ENDBRANCH   2   4
ENDBRANCH   1   2
BRANCH   1   6
ATOM      6  C   UNL     1       7.033  -0.120  -2.079  1.00  0.00     0.047 C 
BRANCH   6   7
ATOM      7  C   UNL     1       6.490  -0.029  -0.710  1.00  0.00    -0.047 A 
ATOM      8  C   UNL     1       6.591  -1.024   0.228  1.00  0.00     0.004 A 
ATOM      9  C   UNL     1       5.841   1.131  -0.358  1.00  0.00     0.004 A 
ATOM     10  C   UNL     1       6.051  -0.853   1.488  1.00  0.00     0.000 A 
ATOM     11  C   UNL     1       5.301   1.319   0.880  1.00  0.00     0.000 A 
ATOM     12  C   UNL     1       5.403   0.319   1.824  1.00  0.00     0.000 A 
ENDBRANCH   6   7
ENDBRANCH   1   6
TORSDOF 4
ENDMDL
MODEL 2
REMARK VINA RESULT:      -7.3      0.133      1.431
REMARK SMILES O=C(O)CCc1ccccc1
REMARK SMILES IDX 4 1 2 2 1 3 3 4 5 6 6 7 7 8 11 9 8 10 10 11 9 12
REMARK H PARENT 3 5
REMARK Flexibility Score: inf
ROOT
ATOM      1  C   UNL     1       8.439  -0.600  -2.192  1.00  0.00     0.127 C 
ENDROOT
BRANCH   1   2
ATOM      2  C   UNL     1       8.485  -1.892  -2.918  1.00  0.00     0.303 C 
ATOM      3  O   UNL     1       9.559  -2.494  -3.074  1.00  0.00    -0.252 OA
BRANCH   2   4
ATOM      4  O   UNL     1       7.319  -2.431  -3.427  1.00  0.00    -0.481 OA
ATOM      5  H   UNL     1       7.322  -3.189  -4.104  1.00  0.00     0.296 HD
ENDBRANCH   2   4
ENDBRANCH   1   2
BRANCH   1   6
ATOM      6  C   UNL     1       7.036  -0.044  -2.190  1.00  0.00     0.047 C 
BRANCH   6   7
ATOM      7  C   UNL     1       6.488   0.120  -0.830  1.00  0.00    -0.047 A 
ATOM      8  C   UNL     1       5.854   1.252  -0.385  1.00  0.00     0.004 A 
ATOM      9  C   UNL     1       6.626  -0.932   0.044  1.00  0.00     0.004 A 
ATOM     10  C   UNL     1       5.371   1.320   0.908  1.00  0.00     0.000 A 
ATOM     11  C   UNL     1       6.158  -0.884   1.324  1.00  0.00     0.000 A 
ATOM     12  C   UNL     1       5.519   0.253   1.771  1.00  0.00     0.000 A 
ENDBRANCH   6   7
ENDBRANCH   1   6
TORSDOF 4
ENDMDL
MODEL 3
REMARK VINA RESULT:      -6.8      3.382      5.078
REMARK SMILES O=C(O)CCc1ccccc1
REMARK SMILES IDX 4 1 2 2 1 3 3 4 5 6 6 7 7 8 11 9 8 10 10 11 9 12
REMARK H PARENT 3 5
REMARK Flexibility Score: inf
ROOT
ATOM      1  C   UNL     1       5.000   1.788   0.731  1.00  0.00     0.127 C 
ENDROOT
BRANCH   1   2
ATOM      2  C   UNL     1       4.486   1.096   1.936  1.00  0.00     0.303 C 
ATOM      3  O   UNL     1       5.144   0.198   2.483  1.00  0.00    -0.252 OA
BRANCH   2   4
ATOM      4  O   UNL     1       3.257   1.455   2.457  1.00  0.00    -0.481 OA
ATOM      5  H   UNL     1       2.573   0.767   2.758  1.00  0.00     0.296 HD
ENDBRANCH   2   4
ENDBRANCH   1   2
BRANCH   1   6
ATOM      6  C   UNL     1       6.508   1.817   0.740  1.00  0.00     0.047 C 
BRANCH   6   7
ATOM      7  C   UNL     1       7.103   1.018  -0.350  1.00  0.00    -0.047 A 
ATOM      8  C   UNL     1       6.419   0.081  -1.081  1.00  0.00     0.004 A 
ATOM      9  C   UNL     1       8.428   1.231  -0.645  1.00  0.00     0.004 A 
ATOM     10  C   UNL     1       7.056  -0.623  -2.085  1.00  0.00     0.000 A 
ATOM     11  C   UNL     1       9.075   0.546  -1.632  1.00  0.00     0.000 A 
ATOM     12  C   UNL     1       8.388  -0.395  -2.368  1.00  0.00     0.000 A 
ENDBRANCH   6   7
ENDBRANCH   1   6
TORSDOF 4
ENDMDL
MODEL 4
REMARK VINA RESULT:      -6.7      3.827      4.993
REMARK SMILES O=C(O)CCc1ccccc1
REMARK SMILES IDX 4 1 2 2 1 3 3 4 5 6 6 7 7 8 11 9 8 10 10 11 9 12
REMARK H PARENT 3 5
REMARK Flexibility Score: inf
ROOT
ATOM      1  C   UNL     1       5.461   2.903   0.061  1.00  0.00     0.127 C 
ENDROOT
BRANCH   1   2
ATOM      2  C   UNL     1       6.270   3.869   0.840  1.00  0.00     0.303 C 
ATOM      3  O   UNL     1       6.900   4.775   0.272  1.00  0.00    -0.252 OA
BRANCH   2   4
ATOM      4  O   UNL     1       6.325   3.760   2.216  1.00  0.00    -0.481 OA
ATOM      5  H   UNL     1       6.964   3.125   2.686  1.00  0.00     0.296 HD
ENDBRANCH   2   4
ENDBRANCH   1   2
BRANCH   1   6
ATOM      6  C   UNL     1       4.932   1.811   0.956  1.00  0.00     0.047 C 
BRANCH   6   7
ATOM      7  C   UNL     1       5.758   0.588   0.917  1.00  0.00    -0.047 A 
ATOM      8  C   UNL     1       6.499   0.192  -0.166  1.00  0.00     0.004 A 
ATOM      9  C   UNL     1       5.781  -0.202   2.042  1.00  0.00     0.004 A 
ATOM     10  C   UNL     1       7.244  -0.970  -0.116  1.00  0.00     0.000 A 
ATOM     11  C   UNL     1       6.509  -1.353   2.111  1.00  0.00     0.000 A 
ATOM     12  C   UNL     1       7.255  -1.751   1.023  1.00  0.00     0.000 A 
ENDBRANCH   6   7
ENDBRANCH   1   6
TORSDOF 4
ENDMDL
MODEL 5
REMARK VINA RESULT:      -6.7      1.969      2.641
REMARK SMILES O=C(O)CCc1ccccc1
REMARK SMILES IDX 4 1 2 2 1 3 3 4 5 6 6 7 7 8 11 9 8 10 10 11 9 12
REMARK H PARENT 3 5
REMARK Flexibility Score: inf
ROOT
ATOM      1  C   UNL     1       8.203   0.262  -2.036  1.00  0.00     0.127 C 
ENDROOT
BRANCH   1   2
ATOM      2  C   UNL     1       9.387   0.376  -1.151  1.00  0.00     0.303 C 
ATOM      3  O   UNL     1       9.517  -0.367  -0.165  1.00  0.00    -0.252 OA
BRANCH   2   4
ATOM      4  O   UNL     1      10.356   1.321  -1.426  1.00  0.00    -0.481 OA
ATOM      5  H   UNL     1      10.126   2.253  -1.760  1.00  0.00     0.296 HD
ENDBRANCH   2   4
ENDBRANCH   1   2
BRANCH   1   6
ATOM      6  C   UNL     1       7.141  -0.595  -1.392  1.00  0.00     0.047 C 
BRANCH   6   7
ATOM      7  C   UNL     1       6.338   0.140  -0.397  1.00  0.00    -0.047 A 
ATOM      8  C   UNL     1       5.779   1.373  -0.614  1.00  0.00     0.004 A 
ATOM      9  C   UNL     1       6.141  -0.454   0.827  1.00  0.00     0.004 A 
ATOM     10  C   UNL     1       5.041   1.991   0.377  1.00  0.00     0.000 A 
ATOM     11  C   UNL     1       5.417   0.139   1.819  1.00  0.00     0.000 A 
ATOM     12  C   UNL     1       4.854   1.378   1.600  1.00  0.00     0.000 A 
ENDBRANCH   6   7
ENDBRANCH   1   6
TORSDOF 4
ENDMDL
