@<TRIPOS>MOLECULE
/home/cewinharhar/GITHUB/reincatalyze/data/processed/docking_pred/2023-Apr-25-1630_maxeplen5_maxtrainstep200_exh32_gamma099_lrac3e-4_lrcr1e-3/b1cc709a4c09585943c6b669d8b61c6b26bf0288_ligand_2.pdbqt
 12 12 0 0 0
SMALL
GASTEIGER

@<TRIPOS>ATOM
      1  C          8.2030    0.2620   -2.0360 C.3     1  UNL1        0.1270
      2  C          9.3870    0.3760   -1.1510 C.2     1  UNL1        0.3030
      3  O          9.5170   -0.3670   -0.1650 O.2     1  UNL1       -0.2520
      4  O         10.3560    1.3210   -1.4260 O.3     1  UNL1       -0.4810
      5  H         10.1260    2.2530   -1.7600 H       1  UNL1        0.2960
      6  C          7.1410   -0.5950   -1.3920 C.3     1  UNL1        0.0470
      7  C          6.3380    0.1400   -0.3970 C.2     1  UNL1       -0.0470
      8  C          5.7790    1.3730   -0.6140 C.2     1  UNL1        0.0040
      9  C          6.1410   -0.4540    0.8270 C.2     1  UNL1        0.0040
     10  C          5.0410    1.9910    0.3770 C.2     1  UNL1        0.0000
     11  C          5.4170    0.1390    1.8190 C.2     1  UNL1        0.0000
     12  C          4.8540    1.3780    1.6000 C.2     1  UNL1        0.0000
@<TRIPOS>BOND
     1     1     6    1
     2     1     2    1
     3     5     4    1
     4     4     2    1
     5     6     7    1
     6     2     3    2
     7     8     7    2
     8     8    10    1
     9     7     9    1
    10    10    12    2
    11     9    11    2
    12    12    11    1
