@<TRIPOS>MOLECULE
/home/cewinharhar/GITHUB/reincatalyze/data/processed/docking_pred/2023-Apr-25-1630_maxeplen5_maxtrainstep200_exh32_gamma099_lrac3e-4_lrcr1e-3/b393d0f0af23d36e99ef7bf88514b4beffd0378d_ligand_2.pdbqt
 12 12 0 0 0
SMALL
GASTEIGER

@<TRIPOS>ATOM
      1  C          8.4100   -0.6770   -2.0820 C.3     1  UNL1        0.1270
      2  C          8.3790   -1.9250   -2.8810 C.2     1  UNL1        0.3030
      3  O          7.3010   -2.4260   -3.2340 O.2     1  UNL1       -0.2520
      4  O          9.5660   -2.5370   -3.2360 O.3     1  UNL1       -0.4810
      5  H          9.9880   -2.4130   -4.1520 H       1  UNL1        0.2960
      6  C          7.0680    0.0090   -2.1180 C.3     1  UNL1        0.0470
      7  C          6.4700    0.1690   -0.7780 C.2     1  UNL1       -0.0470
      8  C          5.7810    1.2820   -0.3680 C.2     1  UNL1        0.0040
      9  C          6.6190   -0.8660    0.1130 C.2     1  UNL1        0.0040
     10  C          5.2550    1.3470    0.9070 C.2     1  UNL1        0.0000
     11  C          6.1080   -0.8210    1.3770 C.2     1  UNL1        0.0000
     12  C          5.4140    0.2970    1.7890 C.2     1  UNL1        0.0000
@<TRIPOS>BOND
     1     5     4    1
     2     4     2    1
     3     3     2    2
     4     2     1    1
     5     6     1    1
     6     6     7    1
     7     7     8    2
     8     7     9    1
     9     8    10    1
    10     9    11    2
    11    10    12    2
    12    11    12    1
