@<TRIPOS>MOLECULE
/home/cewinharhar/GITHUB/reincatalyze/data/processed/docking_pred/2023-Apr-25-1630_maxeplen5_maxtrainstep200_exh32_gamma099_lrac3e-4_lrcr1e-3/b393d0f0af23d36e99ef7bf88514b4beffd0378d_ligand_2.pdbqt
 12 12 0 0 0
SMALL
GASTEIGER

@<TRIPOS>ATOM
      1  C          8.3790   -0.6030   -2.1970 C.3     1  UNL1        0.1270
      2  C          8.3610   -1.8960   -2.9210 C.2     1  UNL1        0.3030
      3  O          7.2890   -2.4190   -3.2620 O.2     1  UNL1       -0.2520
      4  O          9.5540   -2.5270   -3.2200 O.3     1  UNL1       -0.4810
      5  H         10.3810   -2.4300   -2.6380 H       1  UNL1        0.2960
      6  C          6.9920   -0.0130   -2.1310 C.3     1  UNL1        0.0470
      7  C          6.4580    0.0420   -0.7570 C.2     1  UNL1       -0.0470
      8  C          6.5760   -0.9720    0.1590 C.2     1  UNL1        0.0040
      9  C          5.7980    1.1860   -0.3760 C.2     1  UNL1        0.0040
     10  C          6.0430   -0.8350    1.4260 C.2     1  UNL1        0.0000
     11  C          5.2640    1.3410    0.8700 C.2     1  UNL1        0.0000
     12  C          5.3840    0.3220    1.7910 C.2     1  UNL1        0.0000
@<TRIPOS>BOND
     1     3     2    2
     2     4     2    1
     3     4     5    1
     4     2     1    1
     5     1     6    1
     6     6     7    1
     7     7     9    2
     8     7     8    1
     9     9    11    1
    10     8    10    2
    11    11    12    2
    12    10    12    1
