@<TRIPOS>MOLECULE
/home/cewinharhar/GITHUB/reincatalyze/data/processed/docking_pred/2023-Apr-25-1630_maxeplen5_maxtrainstep200_exh32_gamma099_lrac3e-4_lrcr1e-3/b393d0f0af23d36e99ef7bf88514b4beffd0378d_ligand_2.pdbqt
 12 12 0 0 0
SMALL
GASTEIGER

@<TRIPOS>ATOM
      1  C          8.3290   -1.0170   -1.7740 C.3     1  UNL1        0.1270
      2  C          8.4350   -2.0770   -2.8040 C.2     1  UNL1        0.3030
      3  O          9.5360   -2.5640   -3.1040 O.2     1  UNL1       -0.2520
      4  O          7.2940   -2.5290   -3.4390 O.3     1  UNL1       -0.4810
      5  H          7.1760   -3.4980   -3.7200 H       1  UNL1        0.2960
      6  C          7.3720   -1.4310   -0.6840 C.3     1  UNL1        0.0470
      7  C          6.5500   -0.3100   -0.1880 C.2     1  UNL1       -0.0470
      8  C          6.2250    0.7960   -0.9300 C.2     1  UNL1        0.0040
      9  C          6.0850   -0.3850    1.1030 C.2     1  UNL1        0.0040
     10  C          5.4510    1.8010   -0.3830 C.2     1  UNL1        0.0000
     11  C          5.3190    0.5970    1.6620 C.2     1  UNL1        0.0000
     12  C          4.9920    1.7090    0.9160 C.2     1  UNL1        0.0000
@<TRIPOS>BOND
     1     5     4    1
     2     4     2    1
     3     3     2    2
     4     2     1    1
     5     1     6    1
     6     8    10    1
     7     8     7    2
     8     6     7    1
     9    10    12    2
    10     7     9    1
    11    12    11    1
    12     9    11    2
