@<TRIPOS>MOLECULE
/home/cewinharhar/GITHUB/reincatalyze/data/processed/docking_pred/2023-Apr-25-1630_maxeplen5_maxtrainstep200_exh32_gamma099_lrac3e-4_lrcr1e-3/b393d0f0af23d36e99ef7bf88514b4beffd0378d_ligand_2.pdbqt
 12 12 0 0 0
SMALL
GASTEIGER

@<TRIPOS>ATOM
      1  C          8.3840   -0.8820   -1.8440 C.3     1  UNL1        0.1270
      2  C          8.4440   -1.9830   -2.8340 C.2     1  UNL1        0.3030
      3  O          9.5300   -2.4930   -3.1520 O.2     1  UNL1       -0.2520
      4  O          7.2770   -2.4470   -3.4110 O.3     1  UNL1       -0.4810
      5  H          6.4740   -1.8450   -3.5710 H       1  UNL1        0.2960
      6  C          7.0780   -0.1370   -1.9590 C.3     1  UNL1        0.0470
      7  C          6.4360    0.1000   -0.6520 C.2     1  UNL1       -0.0470
      8  C          6.4670   -0.7850    0.3950 C.2     1  UNL1        0.0040
      9  C          5.7650    1.2870   -0.4770 C.2     1  UNL1        0.0040
     10  C          5.8370   -0.4810    1.5860 C.2     1  UNL1        0.0000
     11  C          5.1370    1.6060    0.6900 C.2     1  UNL1        0.0000
     12  C          5.1680    0.7170    1.7430 C.2     1  UNL1        0.0000
@<TRIPOS>BOND
     1     5     4    1
     2     4     2    1
     3     3     2    2
     4     2     1    1
     5     6     1    1
     6     6     7    1
     7     7     9    2
     8     7     8    1
     9     9    11    1
    10     8    10    2
    11    11    12    2
    12    10    12    1
