@<TRIPOS>MOLECULE
/home/cewinharhar/GITHUB/reincatalyze/data/processed/docking_pred/2023-Apr-25-1630_maxeplen5_maxtrainstep200_exh32_gamma099_lrac3e-4_lrcr1e-3/b393d0f0af23d36e99ef7bf88514b4beffd0378d_ligand_2.pdbqt
 12 12 0 0 0
SMALL
GASTEIGER

@<TRIPOS>ATOM
      1  C          8.3240   -0.5820   -2.2470 C.3     1  UNL1        0.1270
      2  C          8.4260   -1.8900   -2.9370 C.2     1  UNL1        0.3030
      3  O          9.5250   -2.4470   -3.0830 O.2     1  UNL1       -0.2520
      4  O          7.2830   -2.4950   -3.4240 O.3     1  UNL1       -0.4810
      5  H          6.5630   -1.9770   -3.9200 H       1  UNL1        0.2960
      6  C          6.9310   -0.3740   -1.7080 C.3     1  UNL1        0.0470
      7  C          6.8310    0.7960   -0.8140 C.2     1  UNL1       -0.0470
      8  C          7.8960    1.3620   -0.1620 C.2     1  UNL1        0.0040
      9  C          5.5870    1.3500   -0.6260 C.2     1  UNL1        0.0040
     10  C          7.7110    2.4580    0.6590 C.2     1  UNL1        0.0000
     11  C          5.3830    2.4310    0.1790 C.2     1  UNL1        0.0000
     12  C          6.4540    3.0010    0.8350 C.2     1  UNL1        0.0000
@<TRIPOS>BOND
     1     5     4    1
     2     4     2    1
     3     3     2    2
     4     2     1    1
     5     1     6    1
     6     6     7    1
     7     7     9    2
     8     7     8    1
     9     9    11    1
    10     8    10    2
    11    11    12    2
    12    10    12    1
