MODEL 1
REMARK VINA RESULT:      -7.1      0.000      0.000
REMARK SMILES O=C(O)CCc1ccccc1
REMARK SMILES IDX 4 1 2 2 1 3 3 4 5 6 6 7 7 8 11 9 8 10 10 11 9 12
REMARK H PARENT 3 5
REMARK Flexibility Score: inf
ROOT
ATOM      1  C   UNL     1       8.435  -0.645  -2.147  1.00  0.00     0.127 C 
ENDROOT
BRANCH   1   2
ATOM      2  C   UNL     1       8.468  -1.916  -2.909  1.00  0.00     0.303 C 
ATOM      3  O   UNL     1       9.537  -2.517  -3.097  1.00  0.00    -0.252 OA
BRANCH   2   4
ATOM      4  O   UNL     1       7.293  -2.437  -3.417  1.00  0.00    -0.481 OA
ATOM      5  H   UNL     1       6.909  -3.322  -3.098  1.00  0.00     0.296 HD
ENDBRANCH   2   4
ENDBRANCH   1   2
BRANCH   1   6
ATOM      6  C   UNL     1       7.036  -0.083  -2.113  1.00  0.00     0.047 C 
BRANCH   6   7
ATOM      7  C   UNL     1       6.487   0.005  -0.746  1.00  0.00    -0.047 A 
ATOM      8  C   UNL     1       6.569  -0.999   0.185  1.00  0.00     0.004 A 
ATOM      9  C   UNL     1       5.853   1.171  -0.388  1.00  0.00     0.004 A 
ATOM     10  C   UNL     1       6.025  -0.831   1.443  1.00  0.00     0.000 A 
ATOM     11  C   UNL     1       5.310   1.356   0.849  1.00  0.00     0.000 A 
ATOM     12  C   UNL     1       5.392   0.348   1.785  1.00  0.00     0.000 A 
ENDBRANCH   6   7
ENDBRANCH   1   6
TORSDOF 4
ENDMDL
MODEL 2
REMARK VINA RESULT:      -7.0      0.129      1.723
REMARK SMILES O=C(O)CCc1ccccc1
REMARK SMILES IDX 4 1 2 2 1 3 3 4 5 6 6 7 7 8 11 9 8 10 10 11 9 12
REMARK H PARENT 3 5
REMARK Flexibility Score: inf
ROOT
ATOM      1  C   UNL     1       8.381  -0.648  -2.115  1.00  0.00     0.127 C 
ENDROOT
BRANCH   1   2
ATOM      2  C   UNL     1       8.363  -1.901  -2.907  1.00  0.00     0.303 C 
ATOM      3  O   UNL     1       7.289  -2.419  -3.251  1.00  0.00    -0.252 OA
BRANCH   2   4
ATOM      4  O   UNL     1       9.556  -2.500  -3.265  1.00  0.00    -0.481 OA
ATOM      5  H   UNL     1       9.924  -3.311  -2.776  1.00  0.00     0.296 HD
ENDBRANCH   2   4
ENDBRANCH   1   2
BRANCH   1   6
ATOM      6  C   UNL     1       7.018  -0.003  -2.113  1.00  0.00     0.047 C 
BRANCH   6   7
ATOM      7  C   UNL     1       6.456   0.143  -0.756  1.00  0.00    -0.047 A 
ATOM      8  C   UNL     1       5.814   1.267  -0.303  1.00  0.00     0.004 A 
ATOM      9  C   UNL     1       6.589  -0.920   0.106  1.00  0.00     0.004 A 
ATOM     10  C   UNL     1       5.319   1.317   0.985  1.00  0.00     0.000 A 
ATOM     11  C   UNL     1       6.108  -0.890   1.382  1.00  0.00     0.000 A 
ATOM     12  C   UNL     1       5.461   0.240   1.837  1.00  0.00     0.000 A 
ENDBRANCH   6   7
ENDBRANCH   1   6
TORSDOF 4
ENDMDL
MODEL 3
REMARK VINA RESULT:      -6.7      1.376      2.003
REMARK SMILES O=C(O)CCc1ccccc1
REMARK SMILES IDX 4 1 2 2 1 3 3 4 5 6 6 7 7 8 11 9 8 10 10 11 9 12
REMARK H PARENT 3 5
REMARK Flexibility Score: inf
ROOT
ATOM      1  C   UNL     1       8.209  -0.550  -2.256  1.00  0.00     0.127 C 
ENDROOT
BRANCH   1   2
ATOM      2  C   UNL     1       8.369  -1.852  -2.945  1.00  0.00     0.303 C 
ATOM      3  O   UNL     1       9.487  -2.378  -3.060  1.00  0.00    -0.252 OA
BRANCH   2   4
ATOM      4  O   UNL     1       7.258  -2.489  -3.466  1.00  0.00    -0.481 OA
ATOM      5  H   UNL     1       6.438  -2.698  -2.903  1.00  0.00     0.296 HD
ENDBRANCH   2   4
ENDBRANCH   1   2
BRANCH   1   6
ATOM      6  C   UNL     1       6.958  -0.545  -1.414  1.00  0.00     0.047 C 
BRANCH   6   7
ATOM      7  C   UNL     1       6.755   0.729  -0.697  1.00  0.00    -0.047 A 
ATOM      8  C   UNL     1       5.548   1.372  -0.593  1.00  0.00     0.004 A 
ATOM      9  C   UNL     1       7.850   1.304  -0.098  1.00  0.00     0.004 A 
ATOM     10  C   UNL     1       5.449   2.564   0.098  1.00  0.00     0.000 A 
ATOM     11  C   UNL     1       7.774   2.481   0.588  1.00  0.00     0.000 A 
ATOM     12  C   UNL     1       6.561   3.127   0.693  1.00  0.00     0.000 A 
ENDBRANCH   6   7
ENDBRANCH   1   6
TORSDOF 4
ENDMDL
MODEL 4
REMARK VINA RESULT:      -6.4      3.416      5.110
REMARK SMILES O=C(O)CCc1ccccc1
REMARK SMILES IDX 4 1 2 2 1 3 3 4 5 6 6 7 7 8 11 9 8 10 10 11 9 12
REMARK H PARENT 3 5
REMARK Flexibility Score: inf
ROOT
ATOM      1  C   UNL     1       4.960   1.825   0.796  1.00  0.00     0.127 C 
ENDROOT
BRANCH   1   2
ATOM      2  C   UNL     1       4.436   1.092   1.973  1.00  0.00     0.303 C 
ATOM      3  O   UNL     1       5.086   0.168   2.487  1.00  0.00    -0.252 OA
BRANCH   2   4
ATOM      4  O   UNL     1       3.210   1.442   2.505  1.00  0.00    -0.481 OA
ATOM      5  H   UNL     1       2.827   0.991   3.331  1.00  0.00     0.296 HD
ENDBRANCH   2   4
ENDBRANCH   1   2
BRANCH   1   6
ATOM      6  C   UNL     1       6.455   1.994   0.899  1.00  0.00     0.047 C 
BRANCH   6   7
ATOM      7  C   UNL     1       7.185   1.290  -0.173  1.00  0.00    -0.047 A 
ATOM      8  C   UNL     1       8.545   1.340  -0.342  1.00  0.00     0.004 A 
ATOM      9  C   UNL     1       6.449   0.538  -1.058  1.00  0.00     0.004 A 
ATOM     10  C   UNL     1       9.147   0.649  -1.376  1.00  0.00     0.000 A 
ATOM     11  C   UNL     1       7.024  -0.150  -2.085  1.00  0.00     0.000 A 
ATOM     12  C   UNL     1       8.391  -0.101  -2.255  1.00  0.00     0.000 A 
ENDBRANCH   6   7
ENDBRANCH   1   6
TORSDOF 4
ENDMDL
MODEL 5
REMARK VINA RESULT:      -6.4      3.984      5.136
REMARK SMILES O=C(O)CCc1ccccc1
REMARK SMILES IDX 4 1 2 2 1 3 3 4 5 6 6 7 7 8 11 9 8 10 10 11 9 12
REMARK H PARENT 3 5
REMARK Flexibility Score: inf
ROOT
ATOM      1  C   UNL     1       6.392   3.669   0.271  1.00  0.00     0.127 C 
ENDROOT
BRANCH   1   2
ATOM      2  C   UNL     1       6.733   4.004   1.674  1.00  0.00     0.303 C 
ATOM      3  O   UNL     1       6.019   4.775   2.334  1.00  0.00    -0.252 OA
BRANCH   2   4
ATOM      4  O   UNL     1       7.859   3.451   2.253  1.00  0.00    -0.481 OA
ATOM      5  H   UNL     1       8.588   3.005   1.704  1.00  0.00     0.296 HD
ENDBRANCH   2   4
ENDBRANCH   1   2
BRANCH   1   6
ATOM      6  C   UNL     1       5.231   2.707   0.223  1.00  0.00     0.047 C 
BRANCH   6   7
ATOM      7  C   UNL     1       5.640   1.305   0.432  1.00  0.00    -0.047 A 
ATOM      8  C   UNL     1       6.322   0.554  -0.491  1.00  0.00     0.004 A 
ATOM      9  C   UNL     1       5.314   0.718   1.632  1.00  0.00     0.004 A 
ATOM     10  C   UNL     1       6.665  -0.755  -0.210  1.00  0.00     0.000 A 
ATOM     11  C   UNL     1       5.642  -0.572   1.927  1.00  0.00     0.000 A 
ATOM     12  C   UNL     1       6.328  -1.327   1.000  1.00  0.00     0.000 A 
ENDBRANCH   6   7
ENDBRANCH   1   6
TORSDOF 4
ENDMDL
