@<TRIPOS>MOLECULE
/home/cewinharhar/GITHUB/reincatalyze/data/processed/docking_pred/2023-Apr-25-1630_maxeplen5_maxtrainstep200_exh32_gamma099_lrac3e-4_lrcr1e-3/b8d8050f43b71ccf975db7ed0a80e234855f027b_ligand_2.pdbqt
 12 12 0 0 0
SMALL
GASTEIGER

@<TRIPOS>ATOM
      1  C          8.2090   -0.5500   -2.2560 C.3     1  UNL1        0.1270
      2  C          8.3690   -1.8520   -2.9450 C.2     1  UNL1        0.3030
      3  O          9.4870   -2.3780   -3.0600 O.2     1  UNL1       -0.2520
      4  O          7.2580   -2.4890   -3.4660 O.3     1  UNL1       -0.4810
      5  H          6.4380   -2.6980   -2.9030 H       1  UNL1        0.2960
      6  C          6.9580   -0.5450   -1.4140 C.3     1  UNL1        0.0470
      7  C          6.7550    0.7290   -0.6970 C.2     1  UNL1       -0.0470
      8  C          5.5480    1.3720   -0.5930 C.2     1  UNL1        0.0040
      9  C          7.8500    1.3040   -0.0980 C.2     1  UNL1        0.0040
     10  C          5.4490    2.5640    0.0980 C.2     1  UNL1        0.0000
     11  C          7.7740    2.4810    0.5880 C.2     1  UNL1        0.0000
     12  C          6.5610    3.1270    0.6930 C.2     1  UNL1        0.0000
@<TRIPOS>BOND
     1     4     2    1
     2     4     5    1
     3     3     2    2
     4     2     1    1
     5     1     6    1
     6     6     7    1
     7     7     8    2
     8     7     9    1
     9     8    10    1
    10     9    11    2
    11    10    12    2
    12    11    12    1
