@<TRIPOS>MOLECULE
/home/cewinharhar/GITHUB/reincatalyze/data/processed/docking_pred/2023-Apr-25-1630_maxeplen5_maxtrainstep200_exh32_gamma099_lrac3e-4_lrcr1e-3/b8d8050f43b71ccf975db7ed0a80e234855f027b_ligand_2.pdbqt
 12 12 0 0 0
SMALL
GASTEIGER

@<TRIPOS>ATOM
      1  C          8.4350   -0.6450   -2.1470 C.3     1  UNL1        0.1270
      2  C          8.4680   -1.9160   -2.9090 C.2     1  UNL1        0.3030
      3  O          9.5370   -2.5170   -3.0970 O.2     1  UNL1       -0.2520
      4  O          7.2930   -2.4370   -3.4170 O.3     1  UNL1       -0.4810
      5  H          6.9090   -3.3220   -3.0980 H       1  UNL1        0.2960
      6  C          7.0360   -0.0830   -2.1130 C.3     1  UNL1        0.0470
      7  C          6.4870    0.0050   -0.7460 C.2     1  UNL1       -0.0470
      8  C          6.5690   -0.9990    0.1850 C.2     1  UNL1        0.0040
      9  C          5.8530    1.1710   -0.3880 C.2     1  UNL1        0.0040
     10  C          6.0250   -0.8310    1.4430 C.2     1  UNL1        0.0000
     11  C          5.3100    1.3560    0.8490 C.2     1  UNL1        0.0000
     12  C          5.3920    0.3480    1.7850 C.2     1  UNL1        0.0000
@<TRIPOS>BOND
     1     4     5    1
     2     4     2    1
     3     3     2    2
     4     2     1    1
     5     1     6    1
     6     6     7    1
     7     7     9    2
     8     7     8    1
     9     9    11    1
    10     8    10    2
    11    11    12    2
    12    10    12    1
