@<TRIPOS>MOLECULE
/home/cewinharhar/GITHUB/reincatalyze/data/processed/docking_pred/2023-Apr-25-1630_maxeplen5_maxtrainstep200_exh32_gamma099_lrac3e-4_lrcr1e-3/b8d8050f43b71ccf975db7ed0a80e234855f027b_ligand_2.pdbqt
 12 12 0 0 0
SMALL
GASTEIGER

@<TRIPOS>ATOM
      1  C          4.9600    1.8250    0.7960 C.3     1  UNL1        0.1270
      2  C          4.4360    1.0920    1.9730 C.2     1  UNL1        0.3030
      3  O          5.0860    0.1680    2.4870 O.2     1  UNL1       -0.2520
      4  O          3.2100    1.4420    2.5050 O.3     1  UNL1       -0.4810
      5  H          2.8270    0.9910    3.3310 H       1  UNL1        0.2960
      6  C          6.4550    1.9940    0.8990 C.3     1  UNL1        0.0470
      7  C          7.1850    1.2900   -0.1730 C.2     1  UNL1       -0.0470
      8  C          8.5450    1.3400   -0.3420 C.2     1  UNL1        0.0040
      9  C          6.4490    0.5380   -1.0580 C.2     1  UNL1        0.0040
     10  C          9.1470    0.6490   -1.3760 C.2     1  UNL1        0.0000
     11  C          7.0240   -0.1500   -2.0850 C.2     1  UNL1        0.0000
     12  C          8.3910   -0.1010   -2.2550 C.2     1  UNL1        0.0000
@<TRIPOS>BOND
     1    12    11    2
     2    12    10    1
     3    11     9    1
     4    10     8    2
     5     9     7    2
     6     8     7    1
     7     7     6    1
     8     1     6    1
     9     1     2    1
    10     2     3    2
    11     2     4    1
    12     4     5    1
