@<TRIPOS>MOLECULE
/home/cewinharhar/GITHUB/reincatalyze/data/processed/docking_pred/2023-Apr-25-1630_maxeplen5_maxtrainstep200_exh32_gamma099_lrac3e-4_lrcr1e-3/b8d8050f43b71ccf975db7ed0a80e234855f027b_ligand_2.pdbqt
 12 12 0 0 0
SMALL
GASTEIGER

@<TRIPOS>ATOM
      1  C          6.3920    3.6690    0.2710 C.3     1  UNL1        0.1270
      2  C          6.7330    4.0040    1.6740 C.2     1  UNL1        0.3030
      3  O          6.0190    4.7750    2.3340 O.2     1  UNL1       -0.2520
      4  O          7.8590    3.4510    2.2530 O.3     1  UNL1       -0.4810
      5  H          8.5880    3.0050    1.7040 H       1  UNL1        0.2960
      6  C          5.2310    2.7070    0.2230 C.3     1  UNL1        0.0470
      7  C          5.6400    1.3050    0.4320 C.2     1  UNL1       -0.0470
      8  C          6.3220    0.5540   -0.4910 C.2     1  UNL1        0.0040
      9  C          5.3140    0.7180    1.6320 C.2     1  UNL1        0.0040
     10  C          6.6650   -0.7550   -0.2100 C.2     1  UNL1        0.0000
     11  C          5.6420   -0.5720    1.9270 C.2     1  UNL1        0.0000
     12  C          6.3280   -1.3270    1.0000 C.2     1  UNL1        0.0000
@<TRIPOS>BOND
     1     8    10    1
     2     8     7    2
     3    10    12    2
     4     6     1    1
     5     6     7    1
     6     1     2    1
     7     7     9    1
     8    12    11    1
     9     9    11    2
    10     2     4    1
    11     2     3    2
    12     5     4    1
