@<TRIPOS>MOLECULE
/home/cewinharhar/GITHUB/reincatalyze/data/processed/docking_pred/2023-Apr-25-1630_maxeplen5_maxtrainstep200_exh32_gamma099_lrac3e-4_lrcr1e-3/b8d8050f43b71ccf975db7ed0a80e234855f027b_ligand_2.pdbqt
 12 12 0 0 0
SMALL
GASTEIGER

@<TRIPOS>ATOM
      1  C          8.3810   -0.6480   -2.1150 C.3     1  UNL1        0.1270
      2  C          8.3630   -1.9010   -2.9070 C.2     1  UNL1        0.3030
      3  O          7.2890   -2.4190   -3.2510 O.2     1  UNL1       -0.2520
      4  O          9.5560   -2.5000   -3.2650 O.3     1  UNL1       -0.4810
      5  H          9.9240   -3.3110   -2.7760 H       1  UNL1        0.2960
      6  C          7.0180   -0.0030   -2.1130 C.3     1  UNL1        0.0470
      7  C          6.4560    0.1430   -0.7560 C.2     1  UNL1       -0.0470
      8  C          5.8140    1.2670   -0.3030 C.2     1  UNL1        0.0040
      9  C          6.5890   -0.9200    0.1060 C.2     1  UNL1        0.0040
     10  C          5.3190    1.3170    0.9850 C.2     1  UNL1        0.0000
     11  C          6.1080   -0.8900    1.3820 C.2     1  UNL1        0.0000
     12  C          5.4610    0.2400    1.8370 C.2     1  UNL1        0.0000
@<TRIPOS>BOND
     1     4     2    1
     2     4     5    1
     3     3     2    2
     4     2     1    1
     5     1     6    1
     6     6     7    1
     7     7     8    2
     8     7     9    1
     9     8    10    1
    10     9    11    2
    11    10    12    2
    12    11    12    1
