@<TRIPOS>MOLECULE
/home/cewinharhar/GITHUB/reincatalyze/data/processed/docking_pred/2023-Apr-25-1630_maxeplen5_maxtrainstep200_exh32_gamma099_lrac3e-4_lrcr1e-3/b99eeed02ad73e34178363463c07c25b6fbf2bee_ligand_2.pdbqt
 12 12 0 0 0
SMALL
GASTEIGER

@<TRIPOS>ATOM
      1  C          5.0010    1.7820    0.7120 C.3     1  UNL1        0.1270
      2  C          4.4880    1.1030    1.9260 C.2     1  UNL1        0.3030
      3  O          5.1470    0.2110    2.4810 O.2     1  UNL1       -0.2520
      4  O          3.2600    1.4690    2.4450 O.3     1  UNL1       -0.4810
      5  H          2.6870    0.8290    2.9870 H       1  UNL1        0.2960
      6  C          6.5090    1.8180    0.7230 C.3     1  UNL1        0.0470
      7  C          7.1080    1.0200   -0.3630 C.2     1  UNL1       -0.0470
      8  C          6.4270    0.0880   -1.1030 C.2     1  UNL1        0.0040
      9  C          8.4370    1.2260   -0.6470 C.2     1  UNL1        0.0040
     10  C          7.0690   -0.6170   -2.1030 C.2     1  UNL1        0.0000
     11  C          9.0900    0.5410   -1.6290 C.2     1  UNL1        0.0000
     12  C          8.4050   -0.3950   -2.3740 C.2     1  UNL1        0.0000
@<TRIPOS>BOND
     1    12    10    2
     2    12    11    1
     3    10     8    1
     4    11     9    2
     5     8     7    2
     6     9     7    1
     7     7     6    1
     8     1     6    1
     9     1     2    1
    10     2     4    1
    11     2     3    2
    12     4     5    1
