@<TRIPOS>MOLECULE
/home/cewinharhar/GITHUB/reincatalyze/data/processed/docking_pred/2023-Apr-25-1630_maxeplen5_maxtrainstep200_exh32_gamma099_lrac3e-4_lrcr1e-3/b99eeed02ad73e34178363463c07c25b6fbf2bee_ligand_2.pdbqt
 12 12 0 0 0
SMALL
GASTEIGER

@<TRIPOS>ATOM
      1  C          8.4140   -0.6430   -2.1380 C.3     1  UNL1        0.1270
      2  C          8.4740   -1.9140   -2.8980 C.2     1  UNL1        0.3030
      3  O          9.5560   -2.4920   -3.0840 O.2     1  UNL1       -0.2520
      4  O          7.3110   -2.4620   -3.4050 O.3     1  UNL1       -0.4810
      5  H          7.2900   -2.9760   -4.2810 H       1  UNL1        0.2960
      6  C          7.0160   -0.0780   -2.1610 C.3     1  UNL1        0.0470
      7  C          6.4570    0.1240   -0.8100 C.2     1  UNL1       -0.0470
      8  C          5.8210    1.2670   -0.4000 C.2     1  UNL1        0.0040
      9  C          6.5870   -0.9050    0.0930 C.2     1  UNL1        0.0040
     10  C          5.3290    1.3700    0.8860 C.2     1  UNL1        0.0000
     11  C          6.1090   -0.8230    1.3680 C.2     1  UNL1        0.0000
     12  C          5.4690    0.3270    1.7800 C.2     1  UNL1        0.0000
@<TRIPOS>BOND
     1     5     4    1
     2     4     2    1
     3     3     2    2
     4     2     1    1
     5     6     1    1
     6     6     7    1
     7     7     8    2
     8     7     9    1
     9     8    10    1
    10     9    11    2
    11    10    12    2
    12    11    12    1
