@<TRIPOS>MOLECULE
/home/cewinharhar/GITHUB/reincatalyze/data/processed/docking_pred/2023-Apr-25-1630_maxeplen5_maxtrainstep200_exh32_gamma099_lrac3e-4_lrcr1e-3/b99eeed02ad73e34178363463c07c25b6fbf2bee_ligand_2.pdbqt
 12 12 0 0 0
SMALL
GASTEIGER

@<TRIPOS>ATOM
      1  C          8.2830    0.3650   -1.9730 C.3     1  UNL1        0.1270
      2  C          9.4650    0.4060   -1.0800 C.2     1  UNL1        0.3030
      3  O          9.5500   -0.3540   -0.1030 O.2     1  UNL1       -0.2520
      4  O         10.4850    1.3020   -1.3380 O.3     1  UNL1       -0.4810
      5  H         10.3080    2.2490   -1.6610 H       1  UNL1        0.2960
      6  C          7.2110   -0.5220   -1.3930 C.3     1  UNL1        0.0470
      7  C          6.3800    0.1670   -0.3870 C.2     1  UNL1       -0.0470
      8  C          5.7970    1.3940   -0.5760 C.2     1  UNL1        0.0040
      9  C          6.1820   -0.4650    0.8170 C.2     1  UNL1        0.0040
     10  C          5.0350    1.9670    0.4230 C.2     1  UNL1        0.0000
     11  C          5.4330    0.0840    1.8160 C.2     1  UNL1        0.0000
     12  C          4.8460    1.3170    1.6260 C.2     1  UNL1        0.0000
@<TRIPOS>BOND
     1     1     6    1
     2     1     2    1
     3     5     4    1
     4     6     7    1
     5     4     2    1
     6     2     3    2
     7     8     7    2
     8     8    10    1
     9     7     9    1
    10    10    12    2
    11     9    11    2
    12    12    11    1
