@<TRIPOS>MOLECULE
/home/cewinharhar/GITHUB/reincatalyze/data/processed/docking_pred/2023-Apr-25-1630_maxeplen5_maxtrainstep200_exh32_gamma099_lrac3e-4_lrcr1e-3/b99eeed02ad73e34178363463c07c25b6fbf2bee_ligand_2.pdbqt
 12 12 0 0 0
SMALL
GASTEIGER

@<TRIPOS>ATOM
      1  C          8.4340   -0.5690   -2.2240 C.3     1  UNL1        0.1270
      2  C          8.4890   -1.8720   -2.9290 C.2     1  UNL1        0.3030
      3  O          9.5680   -2.4630   -3.0880 O.2     1  UNL1       -0.2520
      4  O          7.3240   -2.4340   -3.4140 O.3     1  UNL1       -0.4810
      5  H          7.3230   -3.1120   -4.1720 H       1  UNL1        0.2960
      6  C          7.0180   -0.0520   -2.1750 C.3     1  UNL1        0.0470
      7  C          6.4950    0.0570   -0.8000 C.2     1  UNL1       -0.0470
      8  C          6.6040   -0.9290    0.1480 C.2     1  UNL1        0.0040
      9  C          5.8580    1.2240   -0.4510 C.2     1  UNL1        0.0040
     10  C          6.0830   -0.7420    1.4130 C.2     1  UNL1        0.0000
     11  C          5.3370    1.4280    0.7930 C.2     1  UNL1        0.0000
     12  C          5.4470    0.4380    1.7460 C.2     1  UNL1        0.0000
@<TRIPOS>BOND
     1     5     4    1
     2     4     2    1
     3     3     2    2
     4     2     1    1
     5     1     6    1
     6     6     7    1
     7     7     9    2
     8     7     8    1
     9     9    11    1
    10     8    10    2
    11    11    12    2
    12    10    12    1
