@<TRIPOS>MOLECULE
/home/cewinharhar/GITHUB/reincatalyze/data/processed/docking_pred/2023-Apr-25-1630_maxeplen5_maxtrainstep200_exh32_gamma099_lrac3e-4_lrcr1e-3/b99eeed02ad73e34178363463c07c25b6fbf2bee_ligand_2.pdbqt
 12 12 0 0 0
SMALL
GASTEIGER

@<TRIPOS>ATOM
      1  C          5.0290    1.7400    0.7040 C.3     1  UNL1        0.1270
      2  C          4.5480    1.0600    1.9300 C.2     1  UNL1        0.3030
      3  O          3.4410    1.3370    2.4180 O.2     1  UNL1       -0.2520
      4  O          5.3410    0.1050    2.5370 O.3     1  UNL1       -0.4810
      5  H          6.2590   -0.1460    2.1790 H       1  UNL1        0.2960
      6  C          6.5310    1.8740    0.7270 C.3     1  UNL1        0.0470
      7  C          7.1910    1.1040   -0.3450 C.2     1  UNL1       -0.0470
      8  C          8.5210    1.2080   -0.6640 C.2     1  UNL1        0.0040
      9  C          6.4170    0.2290   -1.0700 C.2     1  UNL1        0.0040
     10  C          9.0560    0.4490   -1.6870 C.2     1  UNL1        0.0000
     11  C          6.9260   -0.5290   -2.0830 C.2     1  UNL1        0.0000
     12  C          8.2630   -0.4250   -2.4030 C.2     1  UNL1        0.0000
@<TRIPOS>BOND
     1    12    11    2
     2    12    10    1
     3    11     9    1
     4    10     8    2
     5     9     7    2
     6     8     7    1
     7     7     6    1
     8     1     6    1
     9     1     2    1
    10     2     3    2
    11     2     4    1
    12     5     4    1
