MODEL 1
REMARK VINA RESULT:      -7.3      0.000      0.000
REMARK SMILES O=C(O)CCc1ccccc1
REMARK SMILES IDX 4 1 2 2 1 3 3 4 5 6 6 7 7 8 11 9 8 10 10 11 9 12
REMARK H PARENT 3 5
REMARK Flexibility Score: inf
ROOT
ATOM      1  C   UNL     1       8.414  -0.643  -2.138  1.00  0.00     0.127 C 
ENDROOT
BRANCH   1   2
ATOM      2  C   UNL     1       8.474  -1.914  -2.898  1.00  0.00     0.303 C 
ATOM      3  O   UNL     1       9.556  -2.492  -3.084  1.00  0.00    -0.252 OA
BRANCH   2   4
ATOM      4  O   UNL     1       7.311  -2.462  -3.405  1.00  0.00    -0.481 OA
ATOM      5  H   UNL     1       7.290  -2.976  -4.281  1.00  0.00     0.296 HD
ENDBRANCH   2   4
ENDBRANCH   1   2
BRANCH   1   6
ATOM      6  C   UNL     1       7.016  -0.078  -2.161  1.00  0.00     0.047 C 
BRANCH   6   7
ATOM      7  C   UNL     1       6.457   0.124  -0.810  1.00  0.00    -0.047 A 
ATOM      8  C   UNL     1       5.821   1.267  -0.400  1.00  0.00     0.004 A 
ATOM      9  C   UNL     1       6.587  -0.905   0.093  1.00  0.00     0.004 A 
ATOM     10  C   UNL     1       5.329   1.370   0.886  1.00  0.00     0.000 A 
ATOM     11  C   UNL     1       6.109  -0.823   1.368  1.00  0.00     0.000 A 
ATOM     12  C   UNL     1       5.469   0.327   1.780  1.00  0.00     0.000 A 
ENDBRANCH   6   7
ENDBRANCH   1   6
TORSDOF 4
ENDMDL
MODEL 2
REMARK VINA RESULT:      -7.3      0.080      1.428
REMARK SMILES O=C(O)CCc1ccccc1
REMARK SMILES IDX 4 1 2 2 1 3 3 4 5 6 6 7 7 8 11 9 8 10 10 11 9 12
REMARK H PARENT 3 5
REMARK Flexibility Score: inf
ROOT
ATOM      1  C   UNL     1       8.434  -0.569  -2.224  1.00  0.00     0.127 C 
ENDROOT
BRANCH   1   2
ATOM      2  C   UNL     1       8.489  -1.872  -2.929  1.00  0.00     0.303 C 
ATOM      3  O   UNL     1       9.568  -2.463  -3.088  1.00  0.00    -0.252 OA
BRANCH   2   4
ATOM      4  O   UNL     1       7.324  -2.434  -3.414  1.00  0.00    -0.481 OA
ATOM      5  H   UNL     1       7.323  -3.112  -4.172  1.00  0.00     0.296 HD
ENDBRANCH   2   4
ENDBRANCH   1   2
BRANCH   1   6
ATOM      6  C   UNL     1       7.018  -0.052  -2.175  1.00  0.00     0.047 C 
BRANCH   6   7
ATOM      7  C   UNL     1       6.495   0.057  -0.800  1.00  0.00    -0.047 A 
ATOM      8  C   UNL     1       6.604  -0.929   0.148  1.00  0.00     0.004 A 
ATOM      9  C   UNL     1       5.858   1.224  -0.451  1.00  0.00     0.004 A 
ATOM     10  C   UNL     1       6.083  -0.742   1.413  1.00  0.00     0.000 A 
ATOM     11  C   UNL     1       5.337   1.428   0.793  1.00  0.00     0.000 A 
ATOM     12  C   UNL     1       5.447   0.438   1.746  1.00  0.00     0.000 A 
ENDBRANCH   6   7
ENDBRANCH   1   6
TORSDOF 4
ENDMDL
MODEL 3
REMARK VINA RESULT:      -6.8      3.375      5.082
REMARK SMILES O=C(O)CCc1ccccc1
REMARK SMILES IDX 4 1 2 2 1 3 3 4 5 6 6 7 7 8 11 9 8 10 10 11 9 12
REMARK H PARENT 3 5
REMARK Flexibility Score: inf
ROOT
ATOM      1  C   UNL     1       5.001   1.782   0.712  1.00  0.00     0.127 C 
ENDROOT
BRANCH   1   2
ATOM      2  C   UNL     1       4.488   1.103   1.926  1.00  0.00     0.303 C 
ATOM      3  O   UNL     1       5.147   0.211   2.481  1.00  0.00    -0.252 OA
BRANCH   2   4
ATOM      4  O   UNL     1       3.260   1.469   2.445  1.00  0.00    -0.481 OA
ATOM      5  H   UNL     1       2.687   0.829   2.987  1.00  0.00     0.296 HD
ENDBRANCH   2   4
ENDBRANCH   1   2
BRANCH   1   6
ATOM      6  C   UNL     1       6.509   1.818   0.723  1.00  0.00     0.047 C 
BRANCH   6   7
ATOM      7  C   UNL     1       7.108   1.020  -0.363  1.00  0.00    -0.047 A 
ATOM      8  C   UNL     1       6.427   0.088  -1.103  1.00  0.00     0.004 A 
ATOM      9  C   UNL     1       8.437   1.226  -0.647  1.00  0.00     0.004 A 
ATOM     10  C   UNL     1       7.069  -0.617  -2.103  1.00  0.00     0.000 A 
ATOM     11  C   UNL     1       9.090   0.541  -1.629  1.00  0.00     0.000 A 
ATOM     12  C   UNL     1       8.405  -0.395  -2.374  1.00  0.00     0.000 A 
ENDBRANCH   6   7
ENDBRANCH   1   6
TORSDOF 4
ENDMDL
MODEL 4
REMARK VINA RESULT:      -6.6      3.329      5.089
REMARK SMILES O=C(O)CCc1ccccc1
REMARK SMILES IDX 4 1 2 2 1 3 3 4 5 6 6 7 7 8 11 9 8 10 10 11 9 12
REMARK H PARENT 3 5
REMARK Flexibility Score: inf
ROOT
ATOM      1  C   UNL     1       5.029   1.740   0.704  1.00  0.00     0.127 C 
ENDROOT
BRANCH   1   2
ATOM      2  C   UNL     1       4.548   1.060   1.930  1.00  0.00     0.303 C 
ATOM      3  O   UNL     1       3.441   1.337   2.418  1.00  0.00    -0.252 OA
BRANCH   2   4
ATOM      4  O   UNL     1       5.341   0.105   2.537  1.00  0.00    -0.481 OA
ATOM      5  H   UNL     1       6.259  -0.146   2.179  1.00  0.00     0.296 HD
ENDBRANCH   2   4
ENDBRANCH   1   2
BRANCH   1   6
ATOM      6  C   UNL     1       6.531   1.874   0.727  1.00  0.00     0.047 C 
BRANCH   6   7
ATOM      7  C   UNL     1       7.191   1.104  -0.345  1.00  0.00    -0.047 A 
ATOM      8  C   UNL     1       8.521   1.208  -0.664  1.00  0.00     0.004 A 
ATOM      9  C   UNL     1       6.417   0.229  -1.070  1.00  0.00     0.004 A 
ATOM     10  C   UNL     1       9.056   0.449  -1.687  1.00  0.00     0.000 A 
ATOM     11  C   UNL     1       6.926  -0.529  -2.083  1.00  0.00     0.000 A 
ATOM     12  C   UNL     1       8.263  -0.425  -2.403  1.00  0.00     0.000 A 
ENDBRANCH   6   7
ENDBRANCH   1   6
TORSDOF 4
ENDMDL
MODEL 5
REMARK VINA RESULT:      -6.6      1.995      2.300
REMARK SMILES O=C(O)CCc1ccccc1
REMARK SMILES IDX 4 1 2 2 1 3 3 4 5 6 6 7 7 8 11 9 8 10 10 11 9 12
REMARK H PARENT 3 5
REMARK Flexibility Score: inf
ROOT
ATOM      1  C   UNL     1       8.283   0.365  -1.973  1.00  0.00     0.127 C 
ENDROOT
BRANCH   1   2
ATOM      2  C   UNL     1       9.465   0.406  -1.080  1.00  0.00     0.303 C 
ATOM      3  O   UNL     1       9.550  -0.354  -0.103  1.00  0.00    -0.252 OA
BRANCH   2   4
ATOM      4  O   UNL     1      10.485   1.302  -1.338  1.00  0.00    -0.481 OA
ATOM      5  H   UNL     1      10.308   2.249  -1.661  1.00  0.00     0.296 HD
ENDBRANCH   2   4
ENDBRANCH   1   2
BRANCH   1   6
ATOM      6  C   UNL     1       7.211  -0.522  -1.393  1.00  0.00     0.047 C 
BRANCH   6   7
ATOM      7  C   UNL     1       6.380   0.167  -0.387  1.00  0.00    -0.047 A 
ATOM      8  C   UNL     1       5.797   1.394  -0.576  1.00  0.00     0.004 A 
ATOM      9  C   UNL     1       6.182  -0.465   0.817  1.00  0.00     0.004 A 
ATOM     10  C   UNL     1       5.035   1.967   0.423  1.00  0.00     0.000 A 
ATOM     11  C   UNL     1       5.433   0.084   1.816  1.00  0.00     0.000 A 
ATOM     12  C   UNL     1       4.846   1.317   1.626  1.00  0.00     0.000 A 
ENDBRANCH   6   7
ENDBRANCH   1   6
TORSDOF 4
ENDMDL
