@<TRIPOS>MOLECULE
/home/cewinharhar/GITHUB/reincatalyze/data/processed/docking_pred/2023-Apr-25-1630_maxeplen5_maxtrainstep200_exh32_gamma099_lrac3e-4_lrcr1e-3/ba254a63d1f23417312e0ffefa4719b754a9a4bf_ligand_2.pdbqt
 12 12 0 0 0
SMALL
GASTEIGER

@<TRIPOS>ATOM
      1  C          8.4070   -0.7220   -2.0600 C.3     1  UNL1        0.1270
      2  C          8.4610   -1.9560   -2.8800 C.2     1  UNL1        0.3030
      3  O          9.5400   -2.5340   -3.0870 O.2     1  UNL1       -0.2520
      4  O          7.2980   -2.4680   -3.4210 O.3     1  UNL1       -0.4810
      5  H          6.3820   -2.2650   -3.0300 H       1  UNL1        0.2960
      6  C          7.0300   -0.1090   -2.1170 C.3     1  UNL1        0.0470
      7  C          6.4490    0.1180   -0.7790 C.2     1  UNL1       -0.0470
      8  C          5.8020    1.2670   -0.4040 C.2     1  UNL1        0.0040
      9  C          6.5680   -0.8910    0.1470 C.2     1  UNL1        0.0040
     10  C          5.2890    1.3950    0.8730 C.2     1  UNL1        0.0000
     11  C          6.0690   -0.7850    1.4110 C.2     1  UNL1        0.0000
     12  C          5.4180    0.3700    1.7890 C.2     1  UNL1        0.0000
@<TRIPOS>BOND
     1     4     5    1
     2     4     2    1
     3     3     2    2
     4     2     1    1
     5     6     1    1
     6     6     7    1
     7     7     8    2
     8     7     9    1
     9     8    10    1
    10     9    11    2
    11    10    12    2
    12    11    12    1
