@<TRIPOS>MOLECULE
/home/cewinharhar/GITHUB/reincatalyze/data/processed/docking_pred/2023-Apr-25-1630_maxeplen5_maxtrainstep200_exh32_gamma099_lrac3e-4_lrcr1e-3/ba254a63d1f23417312e0ffefa4719b754a9a4bf_ligand_2.pdbqt
 12 12 0 0 0
SMALL
GASTEIGER

@<TRIPOS>ATOM
      1  C          8.1870   -0.7030   -2.1060 C.3     1  UNL1        0.1270
      2  C          8.3520   -1.9400   -2.9060 C.2     1  UNL1        0.3030
      3  O          9.4650   -2.4750   -3.0250 O.2     1  UNL1       -0.2520
      4  O          7.2540   -2.5020   -3.5280 O.3     1  UNL1       -0.4810
      5  H          6.6750   -1.9830   -4.1820 H       1  UNL1        0.2960
      6  C          7.9600   -1.0390   -0.6530 C.3     1  UNL1        0.0470
      7  C          6.9270   -0.1920   -0.0250 C.2     1  UNL1       -0.0470
      8  C          6.4410   -0.3810    1.2430 C.2     1  UNL1        0.0040
      9  C          6.4220    0.8510   -0.7640 C.2     1  UNL1        0.0040
     10  C          5.4710    0.4610    1.7520 C.2     1  UNL1        0.0000
     11  C          5.4650    1.6930   -0.2800 C.2     1  UNL1        0.0000
     12  C          4.9760    1.5040    0.9950 C.2     1  UNL1        0.0000
@<TRIPOS>BOND
     1     5     4    1
     2     4     2    1
     3     3     2    2
     4     2     1    1
     5     1     6    1
     6     9    11    1
     7     9     7    2
     8     6     7    1
     9    11    12    2
    10     7     8    1
    11    12    10    1
    12     8    10    2
