@<TRIPOS>MOLECULE
/home/cewinharhar/GITHUB/reincatalyze/data/processed/docking_pred/2023-Apr-25-1630_maxeplen5_maxtrainstep200_exh32_gamma099_lrac3e-4_lrcr1e-3/ba254a63d1f23417312e0ffefa4719b754a9a4bf_ligand_2.pdbqt
 12 12 0 0 0
SMALL
GASTEIGER

@<TRIPOS>ATOM
      1  C          5.0290    1.7990    0.7510 C.3     1  UNL1        0.1270
      2  C          4.4930    1.0950    1.9390 C.2     1  UNL1        0.3030
      3  O          5.1360    0.1830    2.4810 O.2     1  UNL1       -0.2520
      4  O          3.2620    1.4590    2.4500 O.3     1  UNL1       -0.4810
      5  H          2.8270    2.3520    2.2350 H       1  UNL1        0.2960
      6  C          6.5370    1.7860    0.7620 C.3     1  UNL1        0.0470
      7  C          7.1110    0.9880   -0.3390 C.2     1  UNL1       -0.0470
      8  C          6.4210    0.0370   -1.0450 C.2     1  UNL1        0.0040
      9  C          8.4250    1.2170   -0.6730 C.2     1  UNL1        0.0040
     10  C          7.0390   -0.6650   -2.0620 C.2     1  UNL1        0.0000
     11  C          9.0540    0.5350   -1.6730 C.2     1  UNL1        0.0000
     12  C          8.3590   -0.4210   -2.3840 C.2     1  UNL1        0.0000
@<TRIPOS>BOND
     1    12    10    2
     2    12    11    1
     3    10     8    1
     4    11     9    2
     5     8     7    2
     6     9     7    1
     7     7     6    1
     8     1     6    1
     9     1     2    1
    10     2     4    1
    11     2     3    2
    12     5     4    1
