MODEL 1
REMARK VINA RESULT:      -7.3      0.000      0.000
REMARK SMILES O=C(O)CCc1ccccc1
REMARK SMILES IDX 4 1 2 2 1 3 3 4 5 6 6 7 7 8 11 9 8 10 10 11 9 12
REMARK H PARENT 3 5
REMARK Flexibility Score: inf
ROOT
ATOM      1  C   UNL     1       8.413  -0.656  -2.132  1.00  0.00     0.127 C 
ENDROOT
BRANCH   1   2
ATOM      2  C   UNL     1       8.461  -1.925  -2.898  1.00  0.00     0.303 C 
ATOM      3  O   UNL     1       9.537  -2.513  -3.086  1.00  0.00    -0.252 OA
BRANCH   2   4
ATOM      4  O   UNL     1       7.293  -2.458  -3.408  1.00  0.00    -0.481 OA
ATOM      5  H   UNL     1       6.650  -1.913  -3.976  1.00  0.00     0.296 HD
ENDBRANCH   2   4
ENDBRANCH   1   2
BRANCH   1   6
ATOM      6  C   UNL     1       7.006  -0.116  -2.088  1.00  0.00     0.047 C 
BRANCH   6   7
ATOM      7  C   UNL     1       6.477  -0.008  -0.715  1.00  0.00    -0.047 A 
ATOM      8  C   UNL     1       6.563  -1.002   0.226  1.00  0.00     0.004 A 
ATOM      9  C   UNL     1       5.857   1.167  -0.362  1.00  0.00     0.004 A 
ATOM     10  C   UNL     1       6.038  -0.814   1.490  1.00  0.00     0.000 A 
ATOM     11  C   UNL     1       5.333   1.372   0.880  1.00  0.00     0.000 A 
ATOM     12  C   UNL     1       5.420   0.373   1.827  1.00  0.00     0.000 A 
ENDBRANCH   6   7
ENDBRANCH   1   6
TORSDOF 4
ENDMDL
MODEL 2
REMARK VINA RESULT:      -7.3      0.085      1.429
REMARK SMILES O=C(O)CCc1ccccc1
REMARK SMILES IDX 4 1 2 2 1 3 3 4 5 6 6 7 7 8 11 9 8 10 10 11 9 12
REMARK H PARENT 3 5
REMARK Flexibility Score: inf
ROOT
ATOM      1  C   UNL     1       8.407  -0.722  -2.060  1.00  0.00     0.127 C 
ENDROOT
BRANCH   1   2
ATOM      2  C   UNL     1       8.461  -1.956  -2.880  1.00  0.00     0.303 C 
ATOM      3  O   UNL     1       9.540  -2.534  -3.087  1.00  0.00    -0.252 OA
BRANCH   2   4
ATOM      4  O   UNL     1       7.298  -2.468  -3.421  1.00  0.00    -0.481 OA
ATOM      5  H   UNL     1       6.382  -2.265  -3.030  1.00  0.00     0.296 HD
ENDBRANCH   2   4
ENDBRANCH   1   2
BRANCH   1   6
ATOM      6  C   UNL     1       7.030  -0.109  -2.117  1.00  0.00     0.047 C 
BRANCH   6   7
ATOM      7  C   UNL     1       6.449   0.118  -0.779  1.00  0.00    -0.047 A 
ATOM      8  C   UNL     1       5.802   1.267  -0.404  1.00  0.00     0.004 A 
ATOM      9  C   UNL     1       6.568  -0.891   0.147  1.00  0.00     0.004 A 
ATOM     10  C   UNL     1       5.289   1.395   0.873  1.00  0.00     0.000 A 
ATOM     11  C   UNL     1       6.069  -0.785   1.411  1.00  0.00     0.000 A 
ATOM     12  C   UNL     1       5.418   0.370   1.789  1.00  0.00     0.000 A 
ENDBRANCH   6   7
ENDBRANCH   1   6
TORSDOF 4
ENDMDL
MODEL 3
REMARK VINA RESULT:      -7.0      0.671      1.057
REMARK SMILES O=C(O)CCc1ccccc1
REMARK SMILES IDX 4 1 2 2 1 3 3 4 5 6 6 7 7 8 11 9 8 10 10 11 9 12
REMARK H PARENT 3 5
REMARK Flexibility Score: inf
ROOT
ATOM      1  C   UNL     1       8.187  -0.703  -2.106  1.00  0.00     0.127 C 
ENDROOT
BRANCH   1   2
ATOM      2  C   UNL     1       8.352  -1.940  -2.906  1.00  0.00     0.303 C 
ATOM      3  O   UNL     1       9.465  -2.475  -3.025  1.00  0.00    -0.252 OA
BRANCH   2   4
ATOM      4  O   UNL     1       7.254  -2.502  -3.528  1.00  0.00    -0.481 OA
ATOM      5  H   UNL     1       6.675  -1.983  -4.182  1.00  0.00     0.296 HD
ENDBRANCH   2   4
ENDBRANCH   1   2
BRANCH   1   6
ATOM      6  C   UNL     1       7.960  -1.039  -0.653  1.00  0.00     0.047 C 
BRANCH   6   7
ATOM      7  C   UNL     1       6.927  -0.192  -0.025  1.00  0.00    -0.047 A 
ATOM      8  C   UNL     1       6.441  -0.381   1.243  1.00  0.00     0.004 A 
ATOM      9  C   UNL     1       6.422   0.851  -0.764  1.00  0.00     0.004 A 
ATOM     10  C   UNL     1       5.471   0.461   1.752  1.00  0.00     0.000 A 
ATOM     11  C   UNL     1       5.465   1.693  -0.280  1.00  0.00     0.000 A 
ATOM     12  C   UNL     1       4.976   1.504   0.995  1.00  0.00     0.000 A 
ENDBRANCH   6   7
ENDBRANCH   1   6
TORSDOF 4
ENDMDL
MODEL 4
REMARK VINA RESULT:      -6.7      3.370      5.065
REMARK SMILES O=C(O)CCc1ccccc1
REMARK SMILES IDX 4 1 2 2 1 3 3 4 5 6 6 7 7 8 11 9 8 10 10 11 9 12
REMARK H PARENT 3 5
REMARK Flexibility Score: inf
ROOT
ATOM      1  C   UNL     1       5.029   1.799   0.751  1.00  0.00     0.127 C 
ENDROOT
BRANCH   1   2
ATOM      2  C   UNL     1       4.493   1.095   1.939  1.00  0.00     0.303 C 
ATOM      3  O   UNL     1       5.136   0.183   2.481  1.00  0.00    -0.252 OA
BRANCH   2   4
ATOM      4  O   UNL     1       3.262   1.459   2.450  1.00  0.00    -0.481 OA
ATOM      5  H   UNL     1       2.827   2.352   2.235  1.00  0.00     0.296 HD
ENDBRANCH   2   4
ENDBRANCH   1   2
BRANCH   1   6
ATOM      6  C   UNL     1       6.537   1.786   0.762  1.00  0.00     0.047 C 
BRANCH   6   7
ATOM      7  C   UNL     1       7.111   0.988  -0.339  1.00  0.00    -0.047 A 
ATOM      8  C   UNL     1       6.421   0.037  -1.045  1.00  0.00     0.004 A 
ATOM      9  C   UNL     1       8.425   1.217  -0.673  1.00  0.00     0.004 A 
ATOM     10  C   UNL     1       7.039  -0.665  -2.062  1.00  0.00     0.000 A 
ATOM     11  C   UNL     1       9.054   0.535  -1.673  1.00  0.00     0.000 A 
ATOM     12  C   UNL     1       8.359  -0.421  -2.384  1.00  0.00     0.000 A 
ENDBRANCH   6   7
ENDBRANCH   1   6
TORSDOF 4
ENDMDL
MODEL 5
REMARK VINA RESULT:      -6.7      0.968      1.794
REMARK SMILES O=C(O)CCc1ccccc1
REMARK SMILES IDX 4 1 2 2 1 3 3 4 5 6 6 7 7 8 11 9 8 10 10 11 9 12
REMARK H PARENT 3 5
REMARK Flexibility Score: inf
ROOT
ATOM      1  C   UNL     1       7.438  -1.323  -2.097  1.00  0.00     0.127 C 
ENDROOT
BRANCH   1   2
ATOM      2  C   UNL     1       8.398  -2.387  -2.475  1.00  0.00     0.303 C 
ATOM      3  O   UNL     1       9.439  -2.114  -3.093  1.00  0.00    -0.252 OA
BRANCH   2   4
ATOM      4  O   UNL     1       8.131  -3.700  -2.136  1.00  0.00    -0.481 OA
ATOM      5  H   UNL     1       8.867  -4.364  -1.912  1.00  0.00     0.296 HD
ENDBRANCH   2   4
ENDBRANCH   1   2
BRANCH   1   6
ATOM      6  C   UNL     1       7.159  -1.364  -0.616  1.00  0.00     0.047 C 
BRANCH   6   7
ATOM      7  C   UNL     1       6.398  -0.191  -0.144  1.00  0.00    -0.047 A 
ATOM      8  C   UNL     1       6.134   0.916  -0.909  1.00  0.00     0.004 A 
ATOM      9  C   UNL     1       5.929  -0.213   1.148  1.00  0.00     0.004 A 
ATOM     10  C   UNL     1       5.414   1.972  -0.385  1.00  0.00     0.000 A 
ATOM     11  C   UNL     1       5.217   0.819   1.684  1.00  0.00     0.000 A 
ATOM     12  C   UNL     1       4.950   1.931   0.915  1.00  0.00     0.000 A 
ENDBRANCH   6   7
ENDBRANCH   1   6
TORSDOF 4
ENDMDL
