@<TRIPOS>MOLECULE
/home/cewinharhar/GITHUB/reincatalyze/data/processed/docking_pred/2023-Apr-25-1630_maxeplen5_maxtrainstep200_exh32_gamma099_lrac3e-4_lrcr1e-3/ba254a63d1f23417312e0ffefa4719b754a9a4bf_ligand_2.pdbqt
 12 12 0 0 0
SMALL
GASTEIGER

@<TRIPOS>ATOM
      1  C          7.4380   -1.3230   -2.0970 C.3     1  UNL1        0.1270
      2  C          8.3980   -2.3870   -2.4750 C.2     1  UNL1        0.3030
      3  O          9.4390   -2.1140   -3.0930 O.2     1  UNL1       -0.2520
      4  O          8.1310   -3.7000   -2.1360 O.3     1  UNL1       -0.4810
      5  H          8.8670   -4.3640   -1.9120 H       1  UNL1        0.2960
      6  C          7.1590   -1.3640   -0.6160 C.3     1  UNL1        0.0470
      7  C          6.3980   -0.1910   -0.1440 C.2     1  UNL1       -0.0470
      8  C          6.1340    0.9160   -0.9090 C.2     1  UNL1        0.0040
      9  C          5.9290   -0.2130    1.1480 C.2     1  UNL1        0.0040
     10  C          5.4140    1.9720   -0.3850 C.2     1  UNL1        0.0000
     11  C          5.2170    0.8190    1.6840 C.2     1  UNL1        0.0000
     12  C          4.9500    1.9310    0.9150 C.2     1  UNL1        0.0000
@<TRIPOS>BOND
     1     3     2    2
     2     2     4    1
     3     2     1    1
     4     4     5    1
     5     1     6    1
     6     8    10    1
     7     8     7    2
     8     6     7    1
     9    10    12    2
    10     7     9    1
    11    12    11    1
    12     9    11    2
