@<TRIPOS>MOLECULE
/home/cewinharhar/GITHUB/reincatalyze/data/processed/docking_pred/2023-Apr-25-1630_maxeplen5_maxtrainstep200_exh32_gamma099_lrac3e-4_lrcr1e-3/c00c8b20774af87dd702fd508d588995eeb45aaa_ligand_2.pdbqt
 12 12 0 0 0
SMALL
GASTEIGER

@<TRIPOS>ATOM
      1  C          8.2880   -1.0140   -1.7640 C.3     1  UNL1        0.1270
      2  C          8.4390   -2.0370   -2.8250 C.2     1  UNL1        0.3030
      3  O          9.5600   -2.4680   -3.1360 O.2     1  UNL1       -0.2520
      4  O          7.3180   -2.5150   -3.4770 O.3     1  UNL1       -0.4810
      5  H          6.8180   -3.3410   -3.1620 H       1  UNL1        0.2960
      6  C          7.2310   -1.4320   -0.7720 C.3     1  UNL1        0.0470
      7  C          6.4780   -0.2880   -0.2220 C.2     1  UNL1       -0.0470
      8  C          6.1370    0.8290   -0.9400 C.2     1  UNL1        0.0040
      9  C          6.0960   -0.3520    1.0970 C.2     1  UNL1        0.0040
     10  C          5.4300    1.8550   -0.3440 C.2     1  UNL1        0.0000
     11  C          5.3990    0.6500    1.7050 C.2     1  UNL1        0.0000
     12  C          5.0550    1.7730    0.9830 C.2     1  UNL1        0.0000
@<TRIPOS>BOND
     1     4     5    1
     2     4     2    1
     3     3     2    2
     4     2     1    1
     5     1     6    1
     6     8    10    1
     7     8     7    2
     8     6     7    1
     9    10    12    2
    10     7     9    1
    11    12    11    1
    12     9    11    2
