@<TRIPOS>MOLECULE
/home/cewinharhar/GITHUB/reincatalyze/data/processed/docking_pred/2023-Apr-25-1630_maxeplen5_maxtrainstep200_exh32_gamma099_lrac3e-4_lrcr1e-3/c00c8b20774af87dd702fd508d588995eeb45aaa_ligand_2.pdbqt
 12 12 0 0 0
SMALL
GASTEIGER

@<TRIPOS>ATOM
      1  C          5.0470    1.7150    0.7060 C.3     1  UNL1        0.1270
      2  C          4.5980    1.0170    1.9340 C.2     1  UNL1        0.3030
      3  O          5.3150    0.1620    2.4770 O.2     1  UNL1       -0.2520
      4  O          3.3660    1.3220    2.4800 O.3     1  UNL1       -0.4810
      5  H          3.1930    1.2920    3.4810 H       1  UNL1        0.2960
      6  C          6.5470    1.8750    0.7060 C.3     1  UNL1        0.0470
      7  C          7.2060    1.0970   -0.3610 C.2     1  UNL1       -0.0470
      8  C          8.5420    1.1740   -0.6590 C.2     1  UNL1        0.0040
      9  C          6.4240    0.2430   -1.1020 C.2     1  UNL1        0.0040
     10  C          9.0750    0.4090   -1.6780 C.2     1  UNL1        0.0000
     11  C          6.9310   -0.5200   -2.1120 C.2     1  UNL1        0.0000
     12  C          8.2750   -0.4440   -2.4110 C.2     1  UNL1        0.0000
@<TRIPOS>BOND
     1    12    11    2
     2    12    10    1
     3    11     9    1
     4    10     8    2
     5     9     7    2
     6     8     7    1
     7     7     6    1
     8     1     6    1
     9     1     2    1
    10     2     3    2
    11     2     4    1
    12     4     5    1
