@<TRIPOS>MOLECULE
/home/cewinharhar/GITHUB/reincatalyze/data/processed/docking_pred/2023-Apr-25-1630_maxeplen5_maxtrainstep200_exh32_gamma099_lrac3e-4_lrcr1e-3/c00c8b20774af87dd702fd508d588995eeb45aaa_ligand_2.pdbqt
 12 12 0 0 0
SMALL
GASTEIGER

@<TRIPOS>ATOM
      1  C          8.4590   -0.6410   -2.1600 C.3     1  UNL1        0.1270
      2  C          8.4910   -1.9180   -2.9120 C.2     1  UNL1        0.3030
      3  O          9.5600   -2.5240   -3.0890 O.2     1  UNL1       -0.2520
      4  O          7.3180   -2.4400   -3.4210 O.3     1  UNL1       -0.4810
      5  H          6.6510   -1.8740   -3.9380 H       1  UNL1        0.2960
      6  C          7.0610   -0.0750   -2.1360 C.3     1  UNL1        0.0470
      7  C          6.5100    0.0310   -0.7710 C.2     1  UNL1       -0.0470
      8  C          6.6020   -0.9540    0.1780 C.2     1  UNL1        0.0040
      9  C          5.8630    1.1960   -0.4350 C.2     1  UNL1        0.0040
     10  C          6.0550   -0.7690    1.4330 C.2     1  UNL1        0.0000
     11  C          5.3160    1.3980    0.7980 C.2     1  UNL1        0.0000
     12  C          5.4090    0.4080    1.7530 C.2     1  UNL1        0.0000
@<TRIPOS>BOND
     1     5     4    1
     2     4     2    1
     3     3     2    2
     4     2     1    1
     5     1     6    1
     6     6     7    1
     7     7     9    2
     8     7     8    1
     9     9    11    1
    10     8    10    2
    11    11    12    2
    12    10    12    1
