@<TRIPOS>MOLECULE
/home/cewinharhar/GITHUB/reincatalyze/data/processed/docking_pred/2023-Apr-25-1630_maxeplen5_maxtrainstep200_exh32_gamma099_lrac3e-4_lrcr1e-3/c00c8b20774af87dd702fd508d588995eeb45aaa_ligand_2.pdbqt
 12 12 0 0 0
SMALL
GASTEIGER

@<TRIPOS>ATOM
      1  C          4.9860    1.7990    0.7300 C.3     1  UNL1        0.1270
      2  C          4.4760    1.1020    1.9340 C.2     1  UNL1        0.3030
      3  O          5.1370    0.2020    2.4750 O.2     1  UNL1       -0.2520
      4  O          3.2500    1.4590    2.4610 O.3     1  UNL1       -0.4810
      5  H          3.0180    1.3210    3.4410 H       1  UNL1        0.2960
      6  C          6.4940    1.8340    0.7360 C.3     1  UNL1        0.0470
      7  C          7.0900    1.0290   -0.3470 C.2     1  UNL1       -0.0470
      8  C          6.4030    0.1010   -1.0870 C.2     1  UNL1        0.0040
      9  C          8.4210    1.2250   -0.6280 C.2     1  UNL1        0.0040
     10  C          7.0430   -0.6100   -2.0840 C.2     1  UNL1        0.0000
     11  C          9.0710    0.5340   -1.6070 C.2     1  UNL1        0.0000
     12  C          8.3800   -0.3990   -2.3520 C.2     1  UNL1        0.0000
@<TRIPOS>BOND
     1    12    10    2
     2    12    11    1
     3    10     8    1
     4    11     9    2
     5     8     7    2
     6     9     7    1
     7     7     6    1
     8     1     6    1
     9     1     2    1
    10     2     4    1
    11     2     3    2
    12     4     5    1
