MODEL 1
REMARK VINA RESULT:      -7.3      0.000      0.000
REMARK SMILES O=C(O)CCc1ccccc1
REMARK SMILES IDX 4 1 2 2 1 3 3 4 5 6 6 7 7 8 11 9 8 10 10 11 9 12
REMARK H PARENT 3 5
REMARK Flexibility Score: inf
ROOT
ATOM      1  C   UNL     1       8.459  -0.641  -2.160  1.00  0.00     0.127 C 
ENDROOT
BRANCH   1   2
ATOM      2  C   UNL     1       8.491  -1.918  -2.912  1.00  0.00     0.303 C 
ATOM      3  O   UNL     1       9.560  -2.524  -3.089  1.00  0.00    -0.252 OA
BRANCH   2   4
ATOM      4  O   UNL     1       7.318  -2.440  -3.421  1.00  0.00    -0.481 OA
ATOM      5  H   UNL     1       6.651  -1.874  -3.938  1.00  0.00     0.296 HD
ENDBRANCH   2   4
ENDBRANCH   1   2
BRANCH   1   6
ATOM      6  C   UNL     1       7.061  -0.075  -2.136  1.00  0.00     0.047 C 
BRANCH   6   7
ATOM      7  C   UNL     1       6.510   0.031  -0.771  1.00  0.00    -0.047 A 
ATOM      8  C   UNL     1       6.602  -0.954   0.178  1.00  0.00     0.004 A 
ATOM      9  C   UNL     1       5.863   1.196  -0.435  1.00  0.00     0.004 A 
ATOM     10  C   UNL     1       6.055  -0.769   1.433  1.00  0.00     0.000 A 
ATOM     11  C   UNL     1       5.316   1.398   0.798  1.00  0.00     0.000 A 
ATOM     12  C   UNL     1       5.409   0.408   1.753  1.00  0.00     0.000 A 
ENDBRANCH   6   7
ENDBRANCH   1   6
TORSDOF 4
ENDMDL
MODEL 2
REMARK VINA RESULT:      -7.3      0.093      1.428
REMARK SMILES O=C(O)CCc1ccccc1
REMARK SMILES IDX 4 1 2 2 1 3 3 4 5 6 6 7 7 8 11 9 8 10 10 11 9 12
REMARK H PARENT 3 5
REMARK Flexibility Score: inf
ROOT
ATOM      1  C   UNL     1       8.408  -0.684  -2.080  1.00  0.00     0.127 C 
ENDROOT
BRANCH   1   2
ATOM      2  C   UNL     1       8.465  -1.929  -2.881  1.00  0.00     0.303 C 
ATOM      3  O   UNL     1       9.545  -2.505  -3.085  1.00  0.00    -0.252 OA
BRANCH   2   4
ATOM      4  O   UNL     1       7.301  -2.455  -3.409  1.00  0.00    -0.481 OA
ATOM      5  H   UNL     1       7.115  -3.453  -3.425  1.00  0.00     0.296 HD
ENDBRANCH   2   4
ENDBRANCH   1   2
BRANCH   1   6
ATOM      6  C   UNL     1       7.018  -0.098  -2.108  1.00  0.00     0.047 C 
BRANCH   6   7
ATOM      7  C   UNL     1       6.450   0.094  -0.760  1.00  0.00    -0.047 A 
ATOM      8  C   UNL     1       5.798   1.229  -0.352  1.00  0.00     0.004 A 
ATOM      9  C   UNL     1       6.588  -0.934   0.142  1.00  0.00     0.004 A 
ATOM     10  C   UNL     1       5.298   1.324   0.933  1.00  0.00     0.000 A 
ATOM     11  C   UNL     1       6.102  -0.860   1.414  1.00  0.00     0.000 A 
ATOM     12  C   UNL     1       5.446   0.281   1.825  1.00  0.00     0.000 A 
ENDBRANCH   6   7
ENDBRANCH   1   6
TORSDOF 4
ENDMDL
MODEL 3
REMARK VINA RESULT:      -7.2      0.672      1.605
REMARK SMILES O=C(O)CCc1ccccc1
REMARK SMILES IDX 4 1 2 2 1 3 3 4 5 6 6 7 7 8 11 9 8 10 10 11 9 12
REMARK H PARENT 3 5
REMARK Flexibility Score: inf
ROOT
ATOM      1  C   UNL     1       8.288  -1.014  -1.764  1.00  0.00     0.127 C 
ENDROOT
BRANCH   1   2
ATOM      2  C   UNL     1       8.439  -2.037  -2.825  1.00  0.00     0.303 C 
ATOM      3  O   UNL     1       9.560  -2.468  -3.136  1.00  0.00    -0.252 OA
BRANCH   2   4
ATOM      4  O   UNL     1       7.318  -2.515  -3.477  1.00  0.00    -0.481 OA
ATOM      5  H   UNL     1       6.818  -3.341  -3.162  1.00  0.00     0.296 HD
ENDBRANCH   2   4
ENDBRANCH   1   2
BRANCH   1   6
ATOM      6  C   UNL     1       7.231  -1.432  -0.772  1.00  0.00     0.047 C 
BRANCH   6   7
ATOM      7  C   UNL     1       6.478  -0.288  -0.222  1.00  0.00    -0.047 A 
ATOM      8  C   UNL     1       6.137   0.829  -0.940  1.00  0.00     0.004 A 
ATOM      9  C   UNL     1       6.096  -0.352   1.097  1.00  0.00     0.004 A 
ATOM     10  C   UNL     1       5.430   1.855  -0.344  1.00  0.00     0.000 A 
ATOM     11  C   UNL     1       5.399   0.650   1.705  1.00  0.00     0.000 A 
ATOM     12  C   UNL     1       5.055   1.773   0.983  1.00  0.00     0.000 A 
ENDBRANCH   6   7
ENDBRANCH   1   6
TORSDOF 4
ENDMDL
MODEL 4
REMARK VINA RESULT:      -6.7      3.375      5.070
REMARK SMILES O=C(O)CCc1ccccc1
REMARK SMILES IDX 4 1 2 2 1 3 3 4 5 6 6 7 7 8 11 9 8 10 10 11 9 12
REMARK H PARENT 3 5
REMARK Flexibility Score: inf
ROOT
ATOM      1  C   UNL     1       4.986   1.799   0.730  1.00  0.00     0.127 C 
ENDROOT
BRANCH   1   2
ATOM      2  C   UNL     1       4.476   1.102   1.934  1.00  0.00     0.303 C 
ATOM      3  O   UNL     1       5.137   0.202   2.475  1.00  0.00    -0.252 OA
BRANCH   2   4
ATOM      4  O   UNL     1       3.250   1.459   2.461  1.00  0.00    -0.481 OA
ATOM      5  H   UNL     1       3.018   1.321   3.441  1.00  0.00     0.296 HD
ENDBRANCH   2   4
ENDBRANCH   1   2
BRANCH   1   6
ATOM      6  C   UNL     1       6.494   1.834   0.736  1.00  0.00     0.047 C 
BRANCH   6   7
ATOM      7  C   UNL     1       7.090   1.029  -0.347  1.00  0.00    -0.047 A 
ATOM      8  C   UNL     1       6.403   0.101  -1.087  1.00  0.00     0.004 A 
ATOM      9  C   UNL     1       8.421   1.225  -0.628  1.00  0.00     0.004 A 
ATOM     10  C   UNL     1       7.043  -0.610  -2.084  1.00  0.00     0.000 A 
ATOM     11  C   UNL     1       9.071   0.534  -1.607  1.00  0.00     0.000 A 
ATOM     12  C   UNL     1       8.380  -0.399  -2.352  1.00  0.00     0.000 A 
ENDBRANCH   6   7
ENDBRANCH   1   6
TORSDOF 4
ENDMDL
MODEL 5
REMARK VINA RESULT:      -6.7      3.338      5.039
REMARK SMILES O=C(O)CCc1ccccc1
REMARK SMILES IDX 4 1 2 2 1 3 3 4 5 6 6 7 7 8 11 9 8 10 10 11 9 12
REMARK H PARENT 3 5
REMARK Flexibility Score: inf
ROOT
ATOM      1  C   UNL     1       5.047   1.715   0.706  1.00  0.00     0.127 C 
ENDROOT
BRANCH   1   2
ATOM      2  C   UNL     1       4.598   1.017   1.934  1.00  0.00     0.303 C 
ATOM      3  O   UNL     1       5.315   0.162   2.477  1.00  0.00    -0.252 OA
BRANCH   2   4
ATOM      4  O   UNL     1       3.366   1.322   2.480  1.00  0.00    -0.481 OA
ATOM      5  H   UNL     1       3.193   1.292   3.481  1.00  0.00     0.296 HD
ENDBRANCH   2   4
ENDBRANCH   1   2
BRANCH   1   6
ATOM      6  C   UNL     1       6.547   1.875   0.706  1.00  0.00     0.047 C 
BRANCH   6   7
ATOM      7  C   UNL     1       7.206   1.097  -0.361  1.00  0.00    -0.047 A 
ATOM      8  C   UNL     1       8.542   1.174  -0.659  1.00  0.00     0.004 A 
ATOM      9  C   UNL     1       6.424   0.243  -1.102  1.00  0.00     0.004 A 
ATOM     10  C   UNL     1       9.075   0.409  -1.678  1.00  0.00     0.000 A 
ATOM     11  C   UNL     1       6.931  -0.520  -2.112  1.00  0.00     0.000 A 
ATOM     12  C   UNL     1       8.275  -0.444  -2.411  1.00  0.00     0.000 A 
ENDBRANCH   6   7
ENDBRANCH   1   6
TORSDOF 4
ENDMDL
