@<TRIPOS>MOLECULE
/home/cewinharhar/GITHUB/reincatalyze/data/processed/docking_pred/2023-Apr-25-1630_maxeplen5_maxtrainstep200_exh32_gamma099_lrac3e-4_lrcr1e-3/c054a7f490e8e5c171bc57af56a9ae5cb4d717f8_ligand_2.pdbqt
 12 12 0 0 0
SMALL
GASTEIGER

@<TRIPOS>ATOM
      1  C          7.3240   -1.3970   -2.0320 C.3     1  UNL1        0.1270
      2  C          8.7390   -1.3780   -2.4740 C.2     1  UNL1        0.3030
      3  O          9.1920   -2.2820   -3.1930 O.2     1  UNL1       -0.2520
      4  O          9.5620   -0.3410   -2.0810 O.3     1  UNL1       -0.4810
      5  H         10.3240   -0.4720   -1.4220 H       1  UNL1        0.2960
      6  C          7.2410   -1.4310   -0.5260 C.3     1  UNL1        0.0470
      7  C          6.4400   -0.3220    0.0280 C.2     1  UNL1       -0.0470
      8  C          5.9260   -0.3010    1.2990 C.2     1  UNL1        0.0040
      9  C          6.1950    0.7570   -0.7890 C.2     1  UNL1        0.0040
     10  C          5.1840    0.7810    1.7350 C.2     1  UNL1        0.0000
     11  C          5.4650    1.8330   -0.3780 C.2     1  UNL1        0.0000
     12  C          4.9490    1.8550    0.9000 C.2     1  UNL1        0.0000
@<TRIPOS>BOND
     1     3     2    2
     2     2     4    1
     3     2     1    1
     4     4     5    1
     5     1     6    1
     6     9    11    1
     7     9     7    2
     8     6     7    1
     9    11    12    2
    10     7     8    1
    11    12    10    1
    12     8    10    2
