@<TRIPOS>MOLECULE
/home/cewinharhar/GITHUB/reincatalyze/data/processed/docking_pred/2023-Apr-25-1630_maxeplen5_maxtrainstep200_exh32_gamma099_lrac3e-4_lrcr1e-3/c054a7f490e8e5c171bc57af56a9ae5cb4d717f8_ligand_2.pdbqt
 12 12 0 0 0
SMALL
GASTEIGER

@<TRIPOS>ATOM
      1  C          4.9830    1.7960    0.7120 C.3     1  UNL1        0.1270
      2  C          4.4860    1.1070    1.9260 C.2     1  UNL1        0.3030
      3  O          5.1580    0.2200    2.4740 O.2     1  UNL1       -0.2520
      4  O          3.2580    1.4570    2.4540 O.3     1  UNL1       -0.4810
      5  H          2.8510    0.9730    3.2500 H       1  UNL1        0.2960
      6  C          6.4900    1.8520    0.7140 C.3     1  UNL1        0.0470
      7  C          7.0950    1.0470   -0.3650 C.2     1  UNL1       -0.0470
      8  C          6.4100    0.1290   -1.1190 C.2     1  UNL1        0.0040
      9  C          8.4320    1.2320   -0.6260 C.2     1  UNL1        0.0040
     10  C          7.0580   -0.5830   -2.1110 C.2     1  UNL1        0.0000
     11  C          9.0890    0.5400   -1.5990 C.2     1  UNL1        0.0000
     12  C          8.4010   -0.3830   -2.3580 C.2     1  UNL1        0.0000
@<TRIPOS>BOND
     1    12    10    2
     2    12    11    1
     3    10     8    1
     4    11     9    2
     5     8     7    2
     6     9     7    1
     7     7     6    1
     8     1     6    1
     9     1     2    1
    10     2     4    1
    11     2     3    2
    12     4     5    1
