@<TRIPOS>MOLECULE
/home/cewinharhar/GITHUB/reincatalyze/data/processed/docking_pred/2023-Apr-25-1630_maxeplen5_maxtrainstep200_exh32_gamma099_lrac3e-4_lrcr1e-3/c054a7f490e8e5c171bc57af56a9ae5cb4d717f8_ligand_2.pdbqt
 12 12 0 0 0
SMALL
GASTEIGER

@<TRIPOS>ATOM
      1  C          8.4270   -0.5930   -2.2420 C.3     1  UNL1        0.1270
      2  C          8.4760   -1.9030   -2.9340 C.2     1  UNL1        0.3030
      3  O          9.5510   -2.5050   -3.0800 O.2     1  UNL1       -0.2520
      4  O          7.3100   -2.4610   -3.4220 O.3     1  UNL1       -0.4810
      5  H          7.3110   -3.2440   -4.0690 H       1  UNL1        0.2960
      6  C          7.0110   -0.0750   -2.1870 C.3     1  UNL1        0.0470
      7  C          6.4950    0.0330   -0.8090 C.2     1  UNL1       -0.0470
      8  C          6.6070   -0.9530    0.1370 C.2     1  UNL1        0.0040
      9  C          5.8590    1.2000   -0.4570 C.2     1  UNL1        0.0040
     10  C          6.0920   -0.7660    1.4050 C.2     1  UNL1        0.0000
     11  C          5.3430    1.4040    0.7890 C.2     1  UNL1        0.0000
     12  C          5.4570    0.4130    1.7410 C.2     1  UNL1        0.0000
@<TRIPOS>BOND
     1     5     4    1
     2     4     2    1
     3     3     2    2
     4     2     1    1
     5     1     6    1
     6     6     7    1
     7     7     9    2
     8     7     8    1
     9     9    11    1
    10     8    10    2
    11    11    12    2
    12    10    12    1
