MODEL 1
REMARK VINA RESULT:      -7.3      0.000      0.000
REMARK SMILES O=C(O)CCc1ccccc1
REMARK SMILES IDX 4 1 2 2 1 3 3 4 5 6 6 7 7 8 11 9 8 10 10 11 9 12
REMARK H PARENT 3 5
REMARK Flexibility Score: inf
ROOT
ATOM      1  C   UNL     1       8.427  -0.593  -2.242  1.00  0.00     0.127 C 
ENDROOT
BRANCH   1   2
ATOM      2  C   UNL     1       8.476  -1.903  -2.934  1.00  0.00     0.303 C 
ATOM      3  O   UNL     1       9.551  -2.505  -3.080  1.00  0.00    -0.252 OA
BRANCH   2   4
ATOM      4  O   UNL     1       7.310  -2.461  -3.422  1.00  0.00    -0.481 OA
ATOM      5  H   UNL     1       7.311  -3.244  -4.069  1.00  0.00     0.296 HD
ENDBRANCH   2   4
ENDBRANCH   1   2
BRANCH   1   6
ATOM      6  C   UNL     1       7.011  -0.075  -2.187  1.00  0.00     0.047 C 
BRANCH   6   7
ATOM      7  C   UNL     1       6.495   0.033  -0.809  1.00  0.00    -0.047 A 
ATOM      8  C   UNL     1       6.607  -0.953   0.137  1.00  0.00     0.004 A 
ATOM      9  C   UNL     1       5.859   1.200  -0.457  1.00  0.00     0.004 A 
ATOM     10  C   UNL     1       6.092  -0.766   1.405  1.00  0.00     0.000 A 
ATOM     11  C   UNL     1       5.343   1.404   0.789  1.00  0.00     0.000 A 
ATOM     12  C   UNL     1       5.457   0.413   1.741  1.00  0.00     0.000 A 
ENDBRANCH   6   7
ENDBRANCH   1   6
TORSDOF 4
ENDMDL
MODEL 2
REMARK VINA RESULT:      -7.3      0.116      1.429
REMARK SMILES O=C(O)CCc1ccccc1
REMARK SMILES IDX 4 1 2 2 1 3 3 4 5 6 6 7 7 8 11 9 8 10 10 11 9 12
REMARK H PARENT 3 5
REMARK Flexibility Score: inf
ROOT
ATOM      1  C   UNL     1       8.416  -0.641  -2.146  1.00  0.00     0.127 C 
ENDROOT
BRANCH   1   2
ATOM      2  C   UNL     1       8.466  -1.908  -2.912  1.00  0.00     0.303 C 
ATOM      3  O   UNL     1       9.541  -2.501  -3.091  1.00  0.00    -0.252 OA
BRANCH   2   4
ATOM      4  O   UNL     1       7.301  -2.436  -3.434  1.00  0.00    -0.481 OA
ATOM      5  H   UNL     1       6.381  -2.153  -3.107  1.00  0.00     0.296 HD
ENDBRANCH   2   4
ENDBRANCH   1   2
BRANCH   1   6
ATOM      6  C   UNL     1       7.017  -0.076  -2.145  1.00  0.00     0.047 C 
BRANCH   6   7
ATOM      7  C   UNL     1       6.467   0.087  -0.786  1.00  0.00    -0.047 A 
ATOM      8  C   UNL     1       5.827   1.216  -0.343  1.00  0.00     0.004 A 
ATOM      9  C   UNL     1       6.610  -0.963   0.090  1.00  0.00     0.004 A 
ATOM     10  C   UNL     1       5.343   1.284   0.949  1.00  0.00     0.000 A 
ATOM     11  C   UNL     1       6.140  -0.916   1.369  1.00  0.00     0.000 A 
ATOM     12  C   UNL     1       5.495   0.219   1.814  1.00  0.00     0.000 A 
ENDBRANCH   6   7
ENDBRANCH   1   6
TORSDOF 4
ENDMDL
MODEL 3
REMARK VINA RESULT:      -6.8      1.028      1.654
REMARK SMILES O=C(O)CCc1ccccc1
REMARK SMILES IDX 4 1 2 2 1 3 3 4 5 6 6 7 7 8 11 9 8 10 10 11 9 12
REMARK H PARENT 3 5
REMARK Flexibility Score: inf
ROOT
ATOM      1  C   UNL     1       7.324  -1.397  -2.032  1.00  0.00     0.127 C 
ENDROOT
BRANCH   1   2
ATOM      2  C   UNL     1       8.739  -1.378  -2.474  1.00  0.00     0.303 C 
ATOM      3  O   UNL     1       9.192  -2.282  -3.193  1.00  0.00    -0.252 OA
BRANCH   2   4
ATOM      4  O   UNL     1       9.562  -0.341  -2.081  1.00  0.00    -0.481 OA
ATOM      5  H   UNL     1      10.324  -0.472  -1.422  1.00  0.00     0.296 HD
ENDBRANCH   2   4
ENDBRANCH   1   2
BRANCH   1   6
ATOM      6  C   UNL     1       7.241  -1.431  -0.526  1.00  0.00     0.047 C 
BRANCH   6   7
ATOM      7  C   UNL     1       6.440  -0.322   0.028  1.00  0.00    -0.047 A 
ATOM      8  C   UNL     1       5.926  -0.301   1.299  1.00  0.00     0.004 A 
ATOM      9  C   UNL     1       6.195   0.757  -0.789  1.00  0.00     0.004 A 
ATOM     10  C   UNL     1       5.184   0.781   1.735  1.00  0.00     0.000 A 
ATOM     11  C   UNL     1       5.465   1.833  -0.378  1.00  0.00     0.000 A 
ATOM     12  C   UNL     1       4.949   1.855   0.900  1.00  0.00     0.000 A 
ENDBRANCH   6   7
ENDBRANCH   1   6
TORSDOF 4
ENDMDL
MODEL 4
REMARK VINA RESULT:      -6.8      3.377      5.064
REMARK SMILES O=C(O)CCc1ccccc1
REMARK SMILES IDX 4 1 2 2 1 3 3 4 5 6 6 7 7 8 11 9 8 10 10 11 9 12
REMARK H PARENT 3 5
REMARK Flexibility Score: inf
ROOT
ATOM      1  C   UNL     1       4.983   1.796   0.712  1.00  0.00     0.127 C 
ENDROOT
BRANCH   1   2
ATOM      2  C   UNL     1       4.486   1.107   1.926  1.00  0.00     0.303 C 
ATOM      3  O   UNL     1       5.158   0.220   2.474  1.00  0.00    -0.252 OA
BRANCH   2   4
ATOM      4  O   UNL     1       3.258   1.457   2.454  1.00  0.00    -0.481 OA
ATOM      5  H   UNL     1       2.851   0.973   3.250  1.00  0.00     0.296 HD
ENDBRANCH   2   4
ENDBRANCH   1   2
BRANCH   1   6
ATOM      6  C   UNL     1       6.490   1.852   0.714  1.00  0.00     0.047 C 
BRANCH   6   7
ATOM      7  C   UNL     1       7.095   1.047  -0.365  1.00  0.00    -0.047 A 
ATOM      8  C   UNL     1       6.410   0.129  -1.119  1.00  0.00     0.004 A 
ATOM      9  C   UNL     1       8.432   1.232  -0.626  1.00  0.00     0.004 A 
ATOM     10  C   UNL     1       7.058  -0.583  -2.111  1.00  0.00     0.000 A 
ATOM     11  C   UNL     1       9.089   0.540  -1.599  1.00  0.00     0.000 A 
ATOM     12  C   UNL     1       8.401  -0.383  -2.358  1.00  0.00     0.000 A 
ENDBRANCH   6   7
ENDBRANCH   1   6
TORSDOF 4
ENDMDL
MODEL 5
REMARK VINA RESULT:      -6.6      1.871      2.863
REMARK SMILES O=C(O)CCc1ccccc1
REMARK SMILES IDX 4 1 2 2 1 3 3 4 5 6 6 7 7 8 11 9 8 10 10 11 9 12
REMARK H PARENT 3 5
REMARK Flexibility Score: inf
ROOT
ATOM      1  C   UNL     1       8.215  -1.627   1.075  1.00  0.00     0.127 C 
ENDROOT
BRANCH   1   2
ATOM      2  C   UNL     1       8.522  -2.849   0.294  1.00  0.00     0.303 C 
ATOM      3  O   UNL     1       9.173  -3.778   0.796  1.00  0.00    -0.252 OA
BRANCH   2   4
ATOM      4  O   UNL     1       8.078  -2.953  -1.011  1.00  0.00    -0.481 OA
ATOM      5  H   UNL     1       8.250  -2.229  -1.703  1.00  0.00     0.296 HD
ENDBRANCH   2   4
ENDBRANCH   1   2
BRANCH   1   6
ATOM      6  C   UNL     1       6.732  -1.517   1.326  1.00  0.00     0.047 C 
BRANCH   6   7
ATOM      7  C   UNL     1       6.164  -0.241   0.851  1.00  0.00    -0.047 A 
ATOM      8  C   UNL     1       5.392   0.594   1.618  1.00  0.00     0.004 A 
ATOM      9  C   UNL     1       6.429   0.131  -0.446  1.00  0.00     0.004 A 
ATOM     10  C   UNL     1       4.900   1.772   1.090  1.00  0.00     0.000 A 
ATOM     11  C   UNL     1       5.953   1.289  -0.986  1.00  0.00     0.000 A 
ATOM     12  C   UNL     1       5.177   2.128  -0.215  1.00  0.00     0.000 A 
ENDBRANCH   6   7
ENDBRANCH   1   6
TORSDOF 4
ENDMDL
