@<TRIPOS>MOLECULE
/home/cewinharhar/GITHUB/reincatalyze/data/processed/docking_pred/2023-Apr-25-1630_maxeplen5_maxtrainstep200_exh32_gamma099_lrac3e-4_lrcr1e-3/c054a7f490e8e5c171bc57af56a9ae5cb4d717f8_ligand_2.pdbqt
 12 12 0 0 0
SMALL
GASTEIGER

@<TRIPOS>ATOM
      1  C          8.2150   -1.6270    1.0750 C.3     1  UNL1        0.1270
      2  C          8.5220   -2.8490    0.2940 C.2     1  UNL1        0.3030
      3  O          9.1730   -3.7780    0.7960 O.2     1  UNL1       -0.2520
      4  O          8.0780   -2.9530   -1.0110 O.3     1  UNL1       -0.4810
      5  H          8.2500   -2.2290   -1.7030 H       1  UNL1        0.2960
      6  C          6.7320   -1.5170    1.3260 C.3     1  UNL1        0.0470
      7  C          6.1640   -0.2410    0.8510 C.2     1  UNL1       -0.0470
      8  C          5.3920    0.5940    1.6180 C.2     1  UNL1        0.0040
      9  C          6.4290    0.1310   -0.4460 C.2     1  UNL1        0.0040
     10  C          4.9000    1.7720    1.0900 C.2     1  UNL1        0.0000
     11  C          5.9530    1.2890   -0.9860 C.2     1  UNL1        0.0000
     12  C          5.1770    2.1280   -0.2150 C.2     1  UNL1        0.0000
@<TRIPOS>BOND
     1     5     4    1
     2     4     2    1
     3    11     9    1
     4    11    12    2
     5     9     7    2
     6    12    10    1
     7     2     3    2
     8     2     1    1
     9     7     6    1
    10     7     8    1
    11     1     6    1
    12    10     8    2
