@<TRIPOS>MOLECULE
/home/cewinharhar/GITHUB/reincatalyze/data/processed/docking_pred/2023-Apr-25-1630_maxeplen5_maxtrainstep200_exh32_gamma099_lrac3e-4_lrcr1e-3/c2b16f598521213e119e3a09a49f7e8c9c89cc3b_ligand_2.pdbqt
 12 12 0 0 0
SMALL
GASTEIGER

@<TRIPOS>ATOM
      1  C          5.0510    1.7090    0.7060 C.3     1  UNL1        0.1270
      2  C          4.5960    1.0190    1.9360 C.2     1  UNL1        0.3030
      3  O          5.3090    0.1650    2.4870 O.2     1  UNL1       -0.2520
      4  O          3.3630    1.3300    2.4770 O.3     1  UNL1       -0.4810
      5  H          2.5960    1.6860    1.9120 H       1  UNL1        0.2960
      6  C          6.5520    1.8640    0.7100 C.3     1  UNL1        0.0470
      7  C          7.2100    1.0830   -0.3550 C.2     1  UNL1       -0.0470
      8  C          8.5400    1.1830   -0.6760 C.2     1  UNL1        0.0040
      9  C          6.4350    0.2020   -1.0710 C.2     1  UNL1        0.0040
     10  C          9.0730    0.4130   -1.6910 C.2     1  UNL1        0.0000
     11  C          6.9420   -0.5670   -2.0770 C.2     1  UNL1        0.0000
     12  C          8.2790   -0.4680   -2.3990 C.2     1  UNL1        0.0000
@<TRIPOS>BOND
     1    12    11    2
     2    12    10    1
     3    11     9    1
     4    10     8    2
     5     9     7    2
     6     8     7    1
     7     7     6    1
     8     1     6    1
     9     1     2    1
    10     5     4    1
    11     2     4    1
    12     2     3    2
