@<TRIPOS>MOLECULE
/home/cewinharhar/GITHUB/reincatalyze/data/processed/docking_pred/2023-Apr-25-1630_maxeplen5_maxtrainstep200_exh32_gamma099_lrac3e-4_lrcr1e-3/c2b16f598521213e119e3a09a49f7e8c9c89cc3b_ligand_2.pdbqt
 12 12 0 0 0
SMALL
GASTEIGER

@<TRIPOS>ATOM
      1  C          8.2070    0.2910   -2.0700 C.3     1  UNL1        0.1270
      2  C          9.3820    0.3930   -1.1730 C.2     1  UNL1        0.3030
      3  O          9.5040   -0.3630   -0.1970 O.2     1  UNL1       -0.2520
      4  O         10.3540    1.3420   -1.4260 O.3     1  UNL1       -0.4810
      5  H         11.3230    1.0940   -1.6040 H       1  UNL1        0.2960
      6  C          7.1320   -0.5600   -1.4410 C.3     1  UNL1        0.0470
      7  C          6.3380    0.1720   -0.4360 C.2     1  UNL1       -0.0470
      8  C          5.7750    1.4050   -0.6440 C.2     1  UNL1        0.0040
      9  C          6.1550   -0.4250    0.7890 C.2     1  UNL1        0.0040
     10  C          5.0470    2.0190    0.3560 C.2     1  UNL1        0.0000
     11  C          5.4400    0.1640    1.7900 C.2     1  UNL1        0.0000
     12  C          4.8730    1.4030    1.5800 C.2     1  UNL1        0.0000
@<TRIPOS>BOND
     1     1     6    1
     2     1     2    1
     3     5     4    1
     4     6     7    1
     5     4     2    1
     6     2     3    2
     7     8     7    2
     8     8    10    1
     9     7     9    1
    10    10    12    2
    11     9    11    2
    12    12    11    1
