@<TRIPOS>MOLECULE
/home/cewinharhar/GITHUB/reincatalyze/data/processed/docking_pred/2023-Apr-25-1630_maxeplen5_maxtrainstep200_exh32_gamma099_lrac3e-4_lrcr1e-3/c2b16f598521213e119e3a09a49f7e8c9c89cc3b_ligand_2.pdbqt
 12 12 0 0 0
SMALL
GASTEIGER

@<TRIPOS>ATOM
      1  C          8.4660   -0.6380   -2.1460 C.3     1  UNL1        0.1270
      2  C          8.4920   -1.9100   -2.9060 C.2     1  UNL1        0.3030
      3  O          9.5560   -2.5200   -3.0870 O.2     1  UNL1       -0.2520
      4  O          7.3150   -2.4210   -3.4200 O.3     1  UNL1       -0.4810
      5  H          6.9970   -2.2110   -4.3620 H       1  UNL1        0.2960
      6  C          7.0730   -0.0600   -2.1250 C.3     1  UNL1        0.0470
      7  C          6.5150    0.0390   -0.7620 C.2     1  UNL1       -0.0470
      8  C          6.6120   -0.9470    0.1860 C.2     1  UNL1        0.0040
      9  C          5.8550    1.1980   -0.4270 C.2     1  UNL1        0.0040
     10  C          6.0580   -0.7690    1.4390 C.2     1  UNL1        0.0000
     11  C          5.3010    1.3930    0.8030 C.2     1  UNL1        0.0000
     12  C          5.3990    0.4020    1.7570 C.2     1  UNL1        0.0000
@<TRIPOS>BOND
     1     5     4    1
     2     4     2    1
     3     3     2    2
     4     2     1    1
     5     1     6    1
     6     6     7    1
     7     7     9    2
     8     7     8    1
     9     9    11    1
    10     8    10    2
    11    11    12    2
    12    10    12    1
