MODEL 1
REMARK VINA RESULT:      -7.4      0.000      0.000
REMARK SMILES O=C(O)CCc1ccccc1
REMARK SMILES IDX 4 1 2 2 1 3 3 4 5 6 6 7 7 8 11 9 8 10 10 11 9 12
REMARK H PARENT 3 5
REMARK Flexibility Score: inf
ROOT
ATOM      1  C   UNL     1       8.466  -0.638  -2.146  1.00  0.00     0.127 C 
ENDROOT
BRANCH   1   2
ATOM      2  C   UNL     1       8.492  -1.910  -2.906  1.00  0.00     0.303 C 
ATOM      3  O   UNL     1       9.556  -2.520  -3.087  1.00  0.00    -0.252 OA
BRANCH   2   4
ATOM      4  O   UNL     1       7.315  -2.421  -3.420  1.00  0.00    -0.481 OA
ATOM      5  H   UNL     1       6.997  -2.211  -4.362  1.00  0.00     0.296 HD
ENDBRANCH   2   4
ENDBRANCH   1   2
BRANCH   1   6
ATOM      6  C   UNL     1       7.073  -0.060  -2.125  1.00  0.00     0.047 C 
BRANCH   6   7
ATOM      7  C   UNL     1       6.515   0.039  -0.762  1.00  0.00    -0.047 A 
ATOM      8  C   UNL     1       6.612  -0.947   0.186  1.00  0.00     0.004 A 
ATOM      9  C   UNL     1       5.855   1.198  -0.427  1.00  0.00     0.004 A 
ATOM     10  C   UNL     1       6.058  -0.769   1.439  1.00  0.00     0.000 A 
ATOM     11  C   UNL     1       5.301   1.393   0.803  1.00  0.00     0.000 A 
ATOM     12  C   UNL     1       5.399   0.402   1.757  1.00  0.00     0.000 A 
ENDBRANCH   6   7
ENDBRANCH   1   6
TORSDOF 4
ENDMDL
MODEL 2
REMARK VINA RESULT:      -7.3      0.074      1.428
REMARK SMILES O=C(O)CCc1ccccc1
REMARK SMILES IDX 4 1 2 2 1 3 3 4 5 6 6 7 7 8 11 9 8 10 10 11 9 12
REMARK H PARENT 3 5
REMARK Flexibility Score: inf
ROOT
ATOM      1  C   UNL     1       8.413  -0.658  -2.108  1.00  0.00     0.127 C 
ENDROOT
BRANCH   1   2
ATOM      2  C   UNL     1       8.475  -1.910  -2.899  1.00  0.00     0.303 C 
ATOM      3  O   UNL     1       9.557  -2.485  -3.094  1.00  0.00    -0.252 OA
BRANCH   2   4
ATOM      4  O   UNL     1       7.314  -2.443  -3.424  1.00  0.00    -0.481 OA
ATOM      5  H   UNL     1       6.467  -2.550  -2.873  1.00  0.00     0.296 HD
ENDBRANCH   2   4
ENDBRANCH   1   2
BRANCH   1   6
ATOM      6  C   UNL     1       7.022  -0.077  -2.144  1.00  0.00     0.047 C 
BRANCH   6   7
ATOM      7  C   UNL     1       6.454   0.131  -0.798  1.00  0.00    -0.047 A 
ATOM      8  C   UNL     1       5.804   1.272  -0.401  1.00  0.00     0.004 A 
ATOM      9  C   UNL     1       6.589  -0.889   0.115  1.00  0.00     0.004 A 
ATOM     10  C   UNL     1       5.304   1.381   0.882  1.00  0.00     0.000 A 
ATOM     11  C   UNL     1       6.102  -0.800   1.386  1.00  0.00     0.000 A 
ATOM     12  C   UNL     1       5.448   0.346   1.784  1.00  0.00     0.000 A 
ENDBRANCH   6   7
ENDBRANCH   1   6
TORSDOF 4
ENDMDL
MODEL 3
REMARK VINA RESULT:      -6.7      3.336      5.038
REMARK SMILES O=C(O)CCc1ccccc1
REMARK SMILES IDX 4 1 2 2 1 3 3 4 5 6 6 7 7 8 11 9 8 10 10 11 9 12
REMARK H PARENT 3 5
REMARK Flexibility Score: inf
ROOT
ATOM      1  C   UNL     1       5.051   1.709   0.706  1.00  0.00     0.127 C 
ENDROOT
BRANCH   1   2
ATOM      2  C   UNL     1       4.596   1.019   1.936  1.00  0.00     0.303 C 
ATOM      3  O   UNL     1       5.309   0.165   2.487  1.00  0.00    -0.252 OA
BRANCH   2   4
ATOM      4  O   UNL     1       3.363   1.330   2.477  1.00  0.00    -0.481 OA
ATOM      5  H   UNL     1       2.596   1.686   1.912  1.00  0.00     0.296 HD
ENDBRANCH   2   4
ENDBRANCH   1   2
BRANCH   1   6
ATOM      6  C   UNL     1       6.552   1.864   0.710  1.00  0.00     0.047 C 
BRANCH   6   7
ATOM      7  C   UNL     1       7.210   1.083  -0.355  1.00  0.00    -0.047 A 
ATOM      8  C   UNL     1       8.540   1.183  -0.676  1.00  0.00     0.004 A 
ATOM      9  C   UNL     1       6.435   0.202  -1.071  1.00  0.00     0.004 A 
ATOM     10  C   UNL     1       9.073   0.413  -1.691  1.00  0.00     0.000 A 
ATOM     11  C   UNL     1       6.942  -0.567  -2.077  1.00  0.00     0.000 A 
ATOM     12  C   UNL     1       8.279  -0.468  -2.399  1.00  0.00     0.000 A 
ENDBRANCH   6   7
ENDBRANCH   1   6
TORSDOF 4
ENDMDL
MODEL 4
REMARK VINA RESULT:      -6.7      3.819      4.945
REMARK SMILES O=C(O)CCc1ccccc1
REMARK SMILES IDX 4 1 2 2 1 3 3 4 5 6 6 7 7 8 11 9 8 10 10 11 9 12
REMARK H PARENT 3 5
REMARK Flexibility Score: inf
ROOT
ATOM      1  C   UNL     1       5.467   2.924   0.027  1.00  0.00     0.127 C 
ENDROOT
BRANCH   1   2
ATOM      2  C   UNL     1       6.253   3.906   0.810  1.00  0.00     0.303 C 
ATOM      3  O   UNL     1       6.932   4.775   0.242  1.00  0.00    -0.252 OA
BRANCH   2   4
ATOM      4  O   UNL     1       6.230   3.853   2.191  1.00  0.00    -0.481 OA
ATOM      5  H   UNL     1       5.377   3.992   2.725  1.00  0.00     0.296 HD
ENDBRANCH   2   4
ENDBRANCH   1   2
BRANCH   1   6
ATOM      6  C   UNL     1       4.869   1.878   0.935  1.00  0.00     0.047 C 
BRANCH   6   7
ATOM      7  C   UNL     1       5.663   0.636   0.978  1.00  0.00    -0.047 A 
ATOM      8  C   UNL     1       5.777  -0.169   2.083  1.00  0.00     0.004 A 
ATOM      9  C   UNL     1       6.332   0.266  -0.165  1.00  0.00     0.004 A 
ATOM     10  C   UNL     1       6.544  -1.317   2.035  1.00  0.00     0.000 A 
ATOM     11  C   UNL     1       7.095  -0.862  -0.232  1.00  0.00     0.000 A 
ATOM     12  C   UNL     1       7.208  -1.672   0.878  1.00  0.00     0.000 A 
ENDBRANCH   6   7
ENDBRANCH   1   6
TORSDOF 4
ENDMDL
MODEL 5
REMARK VINA RESULT:      -6.7      1.956      2.632
REMARK SMILES O=C(O)CCc1ccccc1
REMARK SMILES IDX 4 1 2 2 1 3 3 4 5 6 6 7 7 8 11 9 8 10 10 11 9 12
REMARK H PARENT 3 5
REMARK Flexibility Score: inf
ROOT
ATOM      1  C   UNL     1       8.207   0.291  -2.070  1.00  0.00     0.127 C 
ENDROOT
BRANCH   1   2
ATOM      2  C   UNL     1       9.382   0.393  -1.173  1.00  0.00     0.303 C 
ATOM      3  O   UNL     1       9.504  -0.363  -0.197  1.00  0.00    -0.252 OA
BRANCH   2   4
ATOM      4  O   UNL     1      10.354   1.342  -1.426  1.00  0.00    -0.481 OA
ATOM      5  H   UNL     1      11.323   1.094  -1.604  1.00  0.00     0.296 HD
ENDBRANCH   2   4
ENDBRANCH   1   2
BRANCH   1   6
ATOM      6  C   UNL     1       7.132  -0.560  -1.441  1.00  0.00     0.047 C 
BRANCH   6   7
ATOM      7  C   UNL     1       6.338   0.172  -0.436  1.00  0.00    -0.047 A 
ATOM      8  C   UNL     1       5.775   1.405  -0.644  1.00  0.00     0.004 A 
ATOM      9  C   UNL     1       6.155  -0.425   0.789  1.00  0.00     0.004 A 
ATOM     10  C   UNL     1       5.047   2.019   0.356  1.00  0.00     0.000 A 
ATOM     11  C   UNL     1       5.440   0.164   1.790  1.00  0.00     0.000 A 
ATOM     12  C   UNL     1       4.873   1.403   1.580  1.00  0.00     0.000 A 
ENDBRANCH   6   7
ENDBRANCH   1   6
TORSDOF 4
ENDMDL
