@<TRIPOS>MOLECULE
/home/cewinharhar/GITHUB/reincatalyze/data/processed/docking_pred/2023-Apr-25-1630_maxeplen5_maxtrainstep200_exh32_gamma099_lrac3e-4_lrcr1e-3/c2b16f598521213e119e3a09a49f7e8c9c89cc3b_ligand_2.pdbqt
 12 12 0 0 0
SMALL
GASTEIGER

@<TRIPOS>ATOM
      1  C          5.4670    2.9240    0.0270 C.3     1  UNL1        0.1270
      2  C          6.2530    3.9060    0.8100 C.2     1  UNL1        0.3030
      3  O          6.9320    4.7750    0.2420 O.2     1  UNL1       -0.2520
      4  O          6.2300    3.8530    2.1910 O.3     1  UNL1       -0.4810
      5  H          5.3770    3.9920    2.7250 H       1  UNL1        0.2960
      6  C          4.8690    1.8780    0.9350 C.3     1  UNL1        0.0470
      7  C          5.6630    0.6360    0.9780 C.2     1  UNL1       -0.0470
      8  C          5.7770   -0.1690    2.0830 C.2     1  UNL1        0.0040
      9  C          6.3320    0.2660   -0.1650 C.2     1  UNL1        0.0040
     10  C          6.5440   -1.3170    2.0350 C.2     1  UNL1        0.0000
     11  C          7.0950   -0.8620   -0.2320 C.2     1  UNL1        0.0000
     12  C          7.2080   -1.6720    0.8780 C.2     1  UNL1        0.0000
@<TRIPOS>BOND
     1    11     9    1
     2    11    12    2
     3     9     7    2
     4     1     2    1
     5     1     6    1
     6     3     2    2
     7     2     4    1
     8    12    10    1
     9     6     7    1
    10     7     8    1
    11    10     8    2
    12     4     5    1
