@<TRIPOS>MOLECULE
/home/cewinharhar/GITHUB/reincatalyze/data/processed/docking_pred/2023-Apr-25-1630_maxeplen5_maxtrainstep200_exh32_gamma099_lrac3e-4_lrcr1e-3/c2bbe2b0b698b4c34a14c6b9d782c5d04fb4e97c_ligand_2.pdbqt
 12 12 0 0 0
SMALL
GASTEIGER

@<TRIPOS>ATOM
      1  C          8.4470   -0.5820   -2.2180 C.3     1  UNL1        0.1270
      2  C          8.5040   -1.8850   -2.9220 C.2     1  UNL1        0.3030
      3  O          9.5840   -2.4760   -3.0780 O.2     1  UNL1       -0.2520
      4  O          7.3410   -2.4490   -3.4100 O.3     1  UNL1       -0.4810
      5  H          6.4240   -2.0610   -3.2090 H       1  UNL1        0.2960
      6  C          7.0320   -0.0610   -2.1820 C.3     1  UNL1        0.0470
      7  C          6.4980    0.0490   -0.8110 C.2     1  UNL1       -0.0470
      8  C          6.6040   -0.9320    0.1410 C.2     1  UNL1        0.0040
      9  C          5.8520    1.2140   -0.4710 C.2     1  UNL1        0.0040
     10  C          6.0730   -0.7440    1.4020 C.2     1  UNL1        0.0000
     11  C          5.3200    1.4200    0.7680 C.2     1  UNL1        0.0000
     12  C          5.4270    0.4330    1.7250 C.2     1  UNL1        0.0000
@<TRIPOS>BOND
     1     4     5    1
     2     4     2    1
     3     3     2    2
     4     2     1    1
     5     1     6    1
     6     6     7    1
     7     7     9    2
     8     7     8    1
     9     9    11    1
    10     8    10    2
    11    11    12    2
    12    10    12    1
