@<TRIPOS>MOLECULE
/home/cewinharhar/GITHUB/reincatalyze/data/processed/docking_pred/2023-Apr-25-1630_maxeplen5_maxtrainstep200_exh32_gamma099_lrac3e-4_lrcr1e-3/c2bbe2b0b698b4c34a14c6b9d782c5d04fb4e97c_ligand_2.pdbqt
 12 12 0 0 0
SMALL
GASTEIGER

@<TRIPOS>ATOM
      1  C          5.0030    1.8000    0.7450 C.3     1  UNL1        0.1270
      2  C          4.4740    1.0960    1.9370 C.2     1  UNL1        0.3030
      3  O          5.1190    0.1820    2.4740 O.2     1  UNL1       -0.2520
      4  O          3.2470    1.4620    2.4570 O.3     1  UNL1       -0.4810
      5  H          2.3810    1.3480    1.9370 H       1  UNL1        0.2960
      6  C          6.5110    1.8010    0.7560 C.3     1  UNL1        0.0470
      7  C          7.0920    1.0040   -0.3410 C.2     1  UNL1       -0.0470
      8  C          6.4030    0.0580   -1.0560 C.2     1  UNL1        0.0040
      9  C          8.4100    1.2260   -0.6620 C.2     1  UNL1        0.0040
     10  C          7.0280   -0.6450   -2.0680 C.2     1  UNL1        0.0000
     11  C          9.0450    0.5440   -1.6570 C.2     1  UNL1        0.0000
     12  C          8.3530   -0.4070   -2.3770 C.2     1  UNL1        0.0000
@<TRIPOS>BOND
     1    12    10    2
     2    12    11    1
     3    10     8    1
     4    11     9    2
     5     8     7    2
     6     9     7    1
     7     7     6    1
     8     1     6    1
     9     1     2    1
    10     2     4    1
    11     2     3    2
    12     5     4    1
