@<TRIPOS>MOLECULE
/home/cewinharhar/GITHUB/reincatalyze/data/processed/docking_pred/2023-Apr-25-1630_maxeplen5_maxtrainstep200_exh32_gamma099_lrac3e-4_lrcr1e-3/c2bbe2b0b698b4c34a14c6b9d782c5d04fb4e97c_ligand_2.pdbqt
 12 12 0 0 0
SMALL
GASTEIGER

@<TRIPOS>ATOM
      1  C          8.3050    0.2400   -2.1310 C.3     1  UNL1        0.1270
      2  C          9.4340    0.3710   -1.1790 C.2     1  UNL1        0.3030
      3  O          9.5070   -0.3570   -0.1770 O.2     1  UNL1       -0.2520
      4  O         10.4160    1.3150   -1.4110 O.3     1  UNL1       -0.4810
      5  H         10.4850    1.8230   -2.2880 H       1  UNL1        0.2960
      6  C          7.1880   -0.5690   -1.5200 C.3     1  UNL1        0.0470
      7  C          6.3930    0.2000   -0.5430 C.2     1  UNL1       -0.0470
      8  C          6.1440   -0.2080    0.7420 C.2     1  UNL1        0.0040
      9  C          5.8690    1.4030   -0.9540 C.2     1  UNL1        0.0040
     10  C          5.3860    0.5760    1.5900 C.2     1  UNL1        0.0000
     11  C          5.1180    2.1910   -0.1330 C.2     1  UNL1        0.0000
     12  C          4.8680    1.7810    1.1590 C.2     1  UNL1        0.0000
@<TRIPOS>BOND
     1     5     4    1
     2     1     6    1
     3     1     2    1
     4     6     7    1
     5     4     2    1
     6     2     3    2
     7     9     7    2
     8     9    11    1
     9     7     8    1
    10    11    12    2
    11     8    10    2
    12    12    10    1
