@<TRIPOS>MOLECULE
/home/cewinharhar/GITHUB/reincatalyze/data/processed/docking_pred/2023-Apr-25-1630_maxeplen5_maxtrainstep200_exh32_gamma099_lrac3e-4_lrcr1e-3/c2bbe2b0b698b4c34a14c6b9d782c5d04fb4e97c_ligand_2.pdbqt
 12 12 0 0 0
SMALL
GASTEIGER

@<TRIPOS>ATOM
      1  C          8.1810   -0.8970   -1.9120 C.3     1  UNL1        0.1270
      2  C          8.3500   -2.0050   -2.8820 C.2     1  UNL1        0.3030
      3  O          9.4730   -2.4790   -3.1160 O.2     1  UNL1       -0.2520
      4  O          7.2440   -2.5150   -3.5350 O.3     1  UNL1       -0.4810
      5  H          6.6520   -1.9420   -4.1300 H       1  UNL1        0.2960
      6  C          7.5060   -1.3900   -0.6570 C.3     1  UNL1        0.0470
      7  C          6.6260   -0.3760   -0.0440 C.2     1  UNL1       -0.0470
      8  C          6.1150   -0.4640    1.2250 C.2     1  UNL1        0.0040
      9  C          6.3000    0.7250   -0.8000 C.2     1  UNL1        0.0040
     10  C          5.2960    0.5330    1.7190 C.2     1  UNL1        0.0000
     11  C          5.4940    1.7200   -0.3310 C.2     1  UNL1        0.0000
     12  C          4.9800    1.6320    0.9450 C.2     1  UNL1        0.0000
@<TRIPOS>BOND
     1     5     4    1
     2     4     2    1
     3     3     2    2
     4     2     1    1
     5     1     6    1
     6     9    11    1
     7     9     7    2
     8     6     7    1
     9    11    12    2
    10     7     8    1
    11    12    10    1
    12     8    10    2
