@<TRIPOS>MOLECULE
/home/cewinharhar/GITHUB/reincatalyze/data/processed/docking_pred/2023-Apr-25-1630_maxeplen5_maxtrainstep200_exh32_gamma099_lrac3e-4_lrcr1e-3/c2bbe2b0b698b4c34a14c6b9d782c5d04fb4e97c_ligand_2.pdbqt
 12 12 0 0 0
SMALL
GASTEIGER

@<TRIPOS>ATOM
      1  C          8.4200   -0.6120   -2.1660 C.3     1  UNL1        0.1270
      2  C          8.4900   -1.8920   -2.9100 C.2     1  UNL1        0.3030
      3  O          9.5750   -2.4660   -3.0860 O.2     1  UNL1       -0.2520
      4  O          7.3320   -2.4520   -3.4140 O.3     1  UNL1       -0.4810
      5  H          6.6020   -1.8930   -3.8470 H       1  UNL1        0.2960
      6  C          7.0100   -0.0750   -2.1660 C.3     1  UNL1        0.0470
      7  C          6.4660    0.1040   -0.8060 C.2     1  UNL1       -0.0470
      8  C          5.8290    1.2380   -0.3720 C.2     1  UNL1        0.0040
      9  C          6.6120   -0.9370    0.0800 C.2     1  UNL1        0.0040
     10  C          5.3510    1.3200    0.9210 C.2     1  UNL1        0.0000
     11  C          6.1480   -0.8760    1.3610 C.2     1  UNL1        0.0000
     12  C          5.5060    0.2640    1.7970 C.2     1  UNL1        0.0000
@<TRIPOS>BOND
     1     5     4    1
     2     4     2    1
     3     3     2    2
     4     2     1    1
     5     1     6    1
     6     6     7    1
     7     7     8    2
     8     7     9    1
     9     8    10    1
    10     9    11    2
    11    10    12    2
    12    11    12    1
