MODEL 1
REMARK VINA RESULT:      -7.3      0.000      0.000
REMARK SMILES O=C(O)CCc1ccccc1
REMARK SMILES IDX 4 1 2 2 1 3 3 4 5 6 6 7 7 8 11 9 8 10 10 11 9 12
REMARK H PARENT 3 5
REMARK Flexibility Score: inf
ROOT
ATOM      1  C   UNL     1       8.447  -0.582  -2.218  1.00  0.00     0.127 C 
ENDROOT
BRANCH   1   2
ATOM      2  C   UNL     1       8.504  -1.885  -2.922  1.00  0.00     0.303 C 
ATOM      3  O   UNL     1       9.584  -2.476  -3.078  1.00  0.00    -0.252 OA
BRANCH   2   4
ATOM      4  O   UNL     1       7.341  -2.449  -3.410  1.00  0.00    -0.481 OA
ATOM      5  H   UNL     1       6.424  -2.061  -3.209  1.00  0.00     0.296 HD
ENDBRANCH   2   4
ENDBRANCH   1   2
BRANCH   1   6
ATOM      6  C   UNL     1       7.032  -0.061  -2.182  1.00  0.00     0.047 C 
BRANCH   6   7
ATOM      7  C   UNL     1       6.498   0.049  -0.811  1.00  0.00    -0.047 A 
ATOM      8  C   UNL     1       6.604  -0.932   0.141  1.00  0.00     0.004 A 
ATOM      9  C   UNL     1       5.852   1.214  -0.471  1.00  0.00     0.004 A 
ATOM     10  C   UNL     1       6.073  -0.744   1.402  1.00  0.00     0.000 A 
ATOM     11  C   UNL     1       5.320   1.420   0.768  1.00  0.00     0.000 A 
ATOM     12  C   UNL     1       5.427   0.433   1.725  1.00  0.00     0.000 A 
ENDBRANCH   6   7
ENDBRANCH   1   6
TORSDOF 4
ENDMDL
MODEL 2
REMARK VINA RESULT:      -7.3      0.106      1.429
REMARK SMILES O=C(O)CCc1ccccc1
REMARK SMILES IDX 4 1 2 2 1 3 3 4 5 6 6 7 7 8 11 9 8 10 10 11 9 12
REMARK H PARENT 3 5
REMARK Flexibility Score: inf
ROOT
ATOM      1  C   UNL     1       8.420  -0.612  -2.166  1.00  0.00     0.127 C 
ENDROOT
BRANCH   1   2
ATOM      2  C   UNL     1       8.490  -1.892  -2.910  1.00  0.00     0.303 C 
ATOM      3  O   UNL     1       9.575  -2.466  -3.086  1.00  0.00    -0.252 OA
BRANCH   2   4
ATOM      4  O   UNL     1       7.332  -2.452  -3.414  1.00  0.00    -0.481 OA
ATOM      5  H   UNL     1       6.602  -1.893  -3.847  1.00  0.00     0.296 HD
ENDBRANCH   2   4
ENDBRANCH   1   2
BRANCH   1   6
ATOM      6  C   UNL     1       7.010  -0.075  -2.166  1.00  0.00     0.047 C 
BRANCH   6   7
ATOM      7  C   UNL     1       6.466   0.104  -0.806  1.00  0.00    -0.047 A 
ATOM      8  C   UNL     1       5.829   1.238  -0.372  1.00  0.00     0.004 A 
ATOM      9  C   UNL     1       6.612  -0.937   0.080  1.00  0.00     0.004 A 
ATOM     10  C   UNL     1       5.351   1.320   0.921  1.00  0.00     0.000 A 
ATOM     11  C   UNL     1       6.148  -0.876   1.361  1.00  0.00     0.000 A 
ATOM     12  C   UNL     1       5.506   0.264   1.797  1.00  0.00     0.000 A 
ENDBRANCH   6   7
ENDBRANCH   1   6
TORSDOF 4
ENDMDL
MODEL 3
REMARK VINA RESULT:      -7.2      0.604      1.109
REMARK SMILES O=C(O)CCc1ccccc1
REMARK SMILES IDX 4 1 2 2 1 3 3 4 5 6 6 7 7 8 11 9 8 10 10 11 9 12
REMARK H PARENT 3 5
REMARK Flexibility Score: inf
ROOT
ATOM      1  C   UNL     1       8.181  -0.897  -1.912  1.00  0.00     0.127 C 
ENDROOT
BRANCH   1   2
ATOM      2  C   UNL     1       8.350  -2.005  -2.882  1.00  0.00     0.303 C 
ATOM      3  O   UNL     1       9.473  -2.479  -3.116  1.00  0.00    -0.252 OA
BRANCH   2   4
ATOM      4  O   UNL     1       7.244  -2.515  -3.535  1.00  0.00    -0.481 OA
ATOM      5  H   UNL     1       6.652  -1.942  -4.130  1.00  0.00     0.296 HD
ENDBRANCH   2   4
ENDBRANCH   1   2
BRANCH   1   6
ATOM      6  C   UNL     1       7.506  -1.390  -0.657  1.00  0.00     0.047 C 
BRANCH   6   7
ATOM      7  C   UNL     1       6.626  -0.376  -0.044  1.00  0.00    -0.047 A 
ATOM      8  C   UNL     1       6.115  -0.464   1.225  1.00  0.00     0.004 A 
ATOM      9  C   UNL     1       6.300   0.725  -0.800  1.00  0.00     0.004 A 
ATOM     10  C   UNL     1       5.296   0.533   1.719  1.00  0.00     0.000 A 
ATOM     11  C   UNL     1       5.494   1.720  -0.331  1.00  0.00     0.000 A 
ATOM     12  C   UNL     1       4.980   1.632   0.945  1.00  0.00     0.000 A 
ENDBRANCH   6   7
ENDBRANCH   1   6
TORSDOF 4
ENDMDL
MODEL 4
REMARK VINA RESULT:      -6.8      3.373      5.062
REMARK SMILES O=C(O)CCc1ccccc1
REMARK SMILES IDX 4 1 2 2 1 3 3 4 5 6 6 7 7 8 11 9 8 10 10 11 9 12
REMARK H PARENT 3 5
REMARK Flexibility Score: inf
ROOT
ATOM      1  C   UNL     1       5.003   1.800   0.745  1.00  0.00     0.127 C 
ENDROOT
BRANCH   1   2
ATOM      2  C   UNL     1       4.474   1.096   1.937  1.00  0.00     0.303 C 
ATOM      3  O   UNL     1       5.119   0.182   2.474  1.00  0.00    -0.252 OA
BRANCH   2   4
ATOM      4  O   UNL     1       3.247   1.462   2.457  1.00  0.00    -0.481 OA
ATOM      5  H   UNL     1       2.381   1.348   1.937  1.00  0.00     0.296 HD
ENDBRANCH   2   4
ENDBRANCH   1   2
BRANCH   1   6
ATOM      6  C   UNL     1       6.511   1.801   0.756  1.00  0.00     0.047 C 
BRANCH   6   7
ATOM      7  C   UNL     1       7.092   1.004  -0.341  1.00  0.00    -0.047 A 
ATOM      8  C   UNL     1       6.403   0.058  -1.056  1.00  0.00     0.004 A 
ATOM      9  C   UNL     1       8.410   1.226  -0.662  1.00  0.00     0.004 A 
ATOM     10  C   UNL     1       7.028  -0.645  -2.068  1.00  0.00     0.000 A 
ATOM     11  C   UNL     1       9.045   0.544  -1.657  1.00  0.00     0.000 A 
ATOM     12  C   UNL     1       8.353  -0.407  -2.377  1.00  0.00     0.000 A 
ENDBRANCH   6   7
ENDBRANCH   1   6
TORSDOF 4
ENDMDL
MODEL 5
REMARK VINA RESULT:      -6.7      1.949      2.307
REMARK SMILES O=C(O)CCc1ccccc1
REMARK SMILES IDX 4 1 2 2 1 3 3 4 5 6 6 7 7 8 11 9 8 10 10 11 9 12
REMARK H PARENT 3 5
REMARK Flexibility Score: inf
ROOT
ATOM      1  C   UNL     1       8.305   0.240  -2.131  1.00  0.00     0.127 C 
ENDROOT
BRANCH   1   2
ATOM      2  C   UNL     1       9.434   0.371  -1.179  1.00  0.00     0.303 C 
ATOM      3  O   UNL     1       9.507  -0.357  -0.177  1.00  0.00    -0.252 OA
BRANCH   2   4
ATOM      4  O   UNL     1      10.416   1.315  -1.411  1.00  0.00    -0.481 OA
ATOM      5  H   UNL     1      10.485   1.823  -2.288  1.00  0.00     0.296 HD
ENDBRANCH   2   4
ENDBRANCH   1   2
BRANCH   1   6
ATOM      6  C   UNL     1       7.188  -0.569  -1.520  1.00  0.00     0.047 C 
BRANCH   6   7
ATOM      7  C   UNL     1       6.393   0.200  -0.543  1.00  0.00    -0.047 A 
ATOM      8  C   UNL     1       6.144  -0.208   0.742  1.00  0.00     0.004 A 
ATOM      9  C   UNL     1       5.869   1.403  -0.954  1.00  0.00     0.004 A 
ATOM     10  C   UNL     1       5.386   0.576   1.590  1.00  0.00     0.000 A 
ATOM     11  C   UNL     1       5.118   2.191  -0.133  1.00  0.00     0.000 A 
ATOM     12  C   UNL     1       4.868   1.781   1.159  1.00  0.00     0.000 A 
ENDBRANCH   6   7
ENDBRANCH   1   6
TORSDOF 4
ENDMDL
