@<TRIPOS>MOLECULE
/home/cewinharhar/GITHUB/reincatalyze/data/processed/docking_pred/2023-Apr-25-1630_maxeplen5_maxtrainstep200_exh32_gamma099_lrac3e-4_lrcr1e-3/c584487daa348165e33ca71579c90fd99cb4babd_ligand_2.pdbqt
 12 12 0 0 0
SMALL
GASTEIGER

@<TRIPOS>ATOM
      1  C          8.4490   -0.6720   -2.1130 C.3     1  UNL1        0.1270
      2  C          8.4840   -1.9320   -2.8930 C.2     1  UNL1        0.3030
      3  O          9.5530   -2.5300   -3.0860 O.2     1  UNL1       -0.2520
      4  O          7.3110   -2.4450   -3.4130 O.3     1  UNL1       -0.4810
      5  H          7.3040   -3.1650   -4.1300 H       1  UNL1        0.2960
      6  C          7.0720   -0.0570   -2.1610 C.3     1  UNL1        0.0470
      7  C          6.4870    0.1410   -0.8210 C.2     1  UNL1       -0.0470
      8  C          5.8340    1.2790   -0.4240 C.2     1  UNL1        0.0040
      9  C          6.6080   -0.8860    0.0850 C.2     1  UNL1        0.0040
     10  C          5.3160    1.3790    0.8530 C.2     1  UNL1        0.0000
     11  C          6.1050   -0.8070    1.3500 C.2     1  UNL1        0.0000
     12  C          5.4480    0.3370    1.7490 C.2     1  UNL1        0.0000
@<TRIPOS>BOND
     1     5     4    1
     2     4     2    1
     3     3     2    2
     4     2     1    1
     5     6     1    1
     6     6     7    1
     7     7     8    2
     8     7     9    1
     9     8    10    1
    10     9    11    2
    11    10    12    2
    12    11    12    1
