@<TRIPOS>MOLECULE
/home/cewinharhar/GITHUB/reincatalyze/data/processed/docking_pred/2023-Apr-25-1630_maxeplen5_maxtrainstep200_exh32_gamma099_lrac3e-4_lrcr1e-3/c584487daa348165e33ca71579c90fd99cb4babd_ligand_2.pdbqt
 12 12 0 0 0
SMALL
GASTEIGER

@<TRIPOS>ATOM
      1  C          5.0080    1.7820    0.7330 C.3     1  UNL1        0.1270
      2  C          4.4860    1.0910    1.9360 C.2     1  UNL1        0.3030
      3  O          5.1370    0.1880    2.4820 O.2     1  UNL1       -0.2520
      4  O          3.2590    1.4580    2.4540 O.3     1  UNL1       -0.4810
      5  H          2.5720    0.7740    2.7590 H       1  UNL1        0.2960
      6  C          6.5160    1.8000    0.7450 C.3     1  UNL1        0.0470
      7  C          7.1070    1.0020   -0.3470 C.2     1  UNL1       -0.0470
      8  C          6.4230    0.0590   -1.0710 C.2     1  UNL1        0.0040
      9  C          8.4290    1.2210   -0.6540 C.2     1  UNL1        0.0040
     10  C          7.0560   -0.6440   -2.0780 C.2     1  UNL1        0.0000
     11  C          9.0720    0.5380   -1.6430 C.2     1  UNL1        0.0000
     12  C          8.3850   -0.4090   -2.3720 C.2     1  UNL1        0.0000
@<TRIPOS>BOND
     1    12    10    2
     2    12    11    1
     3    10     8    1
     4    11     9    2
     5     8     7    2
     6     9     7    1
     7     7     6    1
     8     1     6    1
     9     1     2    1
    10     2     4    1
    11     2     3    2
    12     4     5    1
