@<TRIPOS>MOLECULE
/home/cewinharhar/GITHUB/reincatalyze/data/processed/docking_pred/2023-Apr-25-1630_maxeplen5_maxtrainstep200_exh32_gamma099_lrac3e-4_lrcr1e-3/c584487daa348165e33ca71579c90fd99cb4babd_ligand_2.pdbqt
 12 12 0 0 0
SMALL
GASTEIGER

@<TRIPOS>ATOM
      1  C          5.4430    2.9060   -0.0390 C.3     1  UNL1        0.1270
      2  C          6.2340    3.8660    0.7670 C.2     1  UNL1        0.3030
      3  O          6.8860    4.7690    0.2200 O.2     1  UNL1       -0.2520
      4  O          6.2470    3.7530    2.1440 O.3     1  UNL1       -0.4810
      5  H          5.7400    3.0210    2.6330 H       1  UNL1        0.2960
      6  C          4.8710    1.8220    0.8390 C.3     1  UNL1        0.0470
      7  C          5.7010    0.6020    0.8580 C.2     1  UNL1       -0.0470
      8  C          6.4030    0.1300   -0.2210 C.2     1  UNL1        0.0040
      9  C          5.7690   -0.1040    2.0350 C.2     1  UNL1        0.0040
     10  C          7.1560   -1.0240   -0.1150 C.2     1  UNL1        0.0000
     11  C          6.5060   -1.2450    2.1610 C.2     1  UNL1        0.0000
     12  C          7.2130   -1.7190    1.0770 C.2     1  UNL1        0.0000
@<TRIPOS>BOND
     1     8    10    1
     2     8     7    2
     3    10    12    2
     4     1     2    1
     5     1     6    1
     6     3     2    2
     7     2     4    1
     8     6     7    1
     9     7     9    1
    10    12    11    1
    11     9    11    2
    12     4     5    1
