MODEL 1
REMARK VINA RESULT:      -7.3      0.000      0.000
REMARK SMILES O=C(O)CCc1ccccc1
REMARK SMILES IDX 4 1 2 2 1 3 3 4 5 6 6 7 7 8 11 9 8 10 10 11 9 12
REMARK H PARENT 3 5
REMARK Flexibility Score: inf
ROOT
ATOM      1  C   UNL     1       8.449  -0.672  -2.113  1.00  0.00     0.127 C 
ENDROOT
BRANCH   1   2
ATOM      2  C   UNL     1       8.484  -1.932  -2.893  1.00  0.00     0.303 C 
ATOM      3  O   UNL     1       9.553  -2.530  -3.086  1.00  0.00    -0.252 OA
BRANCH   2   4
ATOM      4  O   UNL     1       7.311  -2.445  -3.413  1.00  0.00    -0.481 OA
ATOM      5  H   UNL     1       7.304  -3.165  -4.130  1.00  0.00     0.296 HD
ENDBRANCH   2   4
ENDBRANCH   1   2
BRANCH   1   6
ATOM      6  C   UNL     1       7.072  -0.057  -2.161  1.00  0.00     0.047 C 
BRANCH   6   7
ATOM      7  C   UNL     1       6.487   0.141  -0.821  1.00  0.00    -0.047 A 
ATOM      8  C   UNL     1       5.834   1.279  -0.424  1.00  0.00     0.004 A 
ATOM      9  C   UNL     1       6.608  -0.886   0.085  1.00  0.00     0.004 A 
ATOM     10  C   UNL     1       5.316   1.379   0.853  1.00  0.00     0.000 A 
ATOM     11  C   UNL     1       6.105  -0.807   1.350  1.00  0.00     0.000 A 
ATOM     12  C   UNL     1       5.448   0.337   1.749  1.00  0.00     0.000 A 
ENDBRANCH   6   7
ENDBRANCH   1   6
TORSDOF 4
ENDMDL
MODEL 2
REMARK VINA RESULT:      -7.3      0.095      1.430
REMARK SMILES O=C(O)CCc1ccccc1
REMARK SMILES IDX 4 1 2 2 1 3 3 4 5 6 6 7 7 8 11 9 8 10 10 11 9 12
REMARK H PARENT 3 5
REMARK Flexibility Score: inf
ROOT
ATOM      1  C   UNL     1       8.408  -0.570  -2.247  1.00  0.00     0.127 C 
ENDROOT
BRANCH   1   2
ATOM      2  C   UNL     1       8.462  -1.884  -2.931  1.00  0.00     0.303 C 
ATOM      3  O   UNL     1       9.541  -2.478  -3.082  1.00  0.00    -0.252 OA
BRANCH   2   4
ATOM      4  O   UNL     1       7.297  -2.454  -3.406  1.00  0.00    -0.481 OA
ATOM      5  H   UNL     1       6.693  -3.025  -2.821  1.00  0.00     0.296 HD
ENDBRANCH   2   4
ENDBRANCH   1   2
BRANCH   1   6
ATOM      6  C   UNL     1       6.986  -0.072  -2.168  1.00  0.00     0.047 C 
BRANCH   6   7
ATOM      7  C   UNL     1       6.485   0.012  -0.783  1.00  0.00    -0.047 A 
ATOM      8  C   UNL     1       6.611  -0.988   0.146  1.00  0.00     0.004 A 
ATOM      9  C   UNL     1       5.850   1.172  -0.405  1.00  0.00     0.004 A 
ATOM     10  C   UNL     1       6.110  -0.824   1.423  1.00  0.00     0.000 A 
ATOM     11  C   UNL     1       5.348   1.353   0.850  1.00  0.00     0.000 A 
ATOM     12  C   UNL     1       5.475   0.348   1.784  1.00  0.00     0.000 A 
ENDBRANCH   6   7
ENDBRANCH   1   6
TORSDOF 4
ENDMDL
MODEL 3
REMARK VINA RESULT:      -6.8      3.369      5.081
REMARK SMILES O=C(O)CCc1ccccc1
REMARK SMILES IDX 4 1 2 2 1 3 3 4 5 6 6 7 7 8 11 9 8 10 10 11 9 12
REMARK H PARENT 3 5
REMARK Flexibility Score: inf
ROOT
ATOM      1  C   UNL     1       5.008   1.782   0.733  1.00  0.00     0.127 C 
ENDROOT
BRANCH   1   2
ATOM      2  C   UNL     1       4.486   1.091   1.936  1.00  0.00     0.303 C 
ATOM      3  O   UNL     1       5.137   0.188   2.482  1.00  0.00    -0.252 OA
BRANCH   2   4
ATOM      4  O   UNL     1       3.259   1.458   2.454  1.00  0.00    -0.481 OA
ATOM      5  H   UNL     1       2.572   0.774   2.759  1.00  0.00     0.296 HD
ENDBRANCH   2   4
ENDBRANCH   1   2
BRANCH   1   6
ATOM      6  C   UNL     1       6.516   1.800   0.745  1.00  0.00     0.047 C 
BRANCH   6   7
ATOM      7  C   UNL     1       7.107   1.002  -0.347  1.00  0.00    -0.047 A 
ATOM      8  C   UNL     1       6.423   0.059  -1.071  1.00  0.00     0.004 A 
ATOM      9  C   UNL     1       8.429   1.221  -0.654  1.00  0.00     0.004 A 
ATOM     10  C   UNL     1       7.056  -0.644  -2.078  1.00  0.00     0.000 A 
ATOM     11  C   UNL     1       9.072   0.538  -1.643  1.00  0.00     0.000 A 
ATOM     12  C   UNL     1       8.385  -0.409  -2.372  1.00  0.00     0.000 A 
ENDBRANCH   6   7
ENDBRANCH   1   6
TORSDOF 4
ENDMDL
MODEL 4
REMARK VINA RESULT:      -6.7      3.829      4.924
REMARK SMILES O=C(O)CCc1ccccc1
REMARK SMILES IDX 4 1 2 2 1 3 3 4 5 6 6 7 7 8 11 9 8 10 10 11 9 12
REMARK H PARENT 3 5
REMARK Flexibility Score: inf
ROOT
ATOM      1  C   UNL     1       5.443   2.906  -0.039  1.00  0.00     0.127 C 
ENDROOT
BRANCH   1   2
ATOM      2  C   UNL     1       6.234   3.866   0.767  1.00  0.00     0.303 C 
ATOM      3  O   UNL     1       6.886   4.769   0.220  1.00  0.00    -0.252 OA
BRANCH   2   4
ATOM      4  O   UNL     1       6.247   3.753   2.144  1.00  0.00    -0.481 OA
ATOM      5  H   UNL     1       5.740   3.021   2.633  1.00  0.00     0.296 HD
ENDBRANCH   2   4
ENDBRANCH   1   2
BRANCH   1   6
ATOM      6  C   UNL     1       4.871   1.822   0.839  1.00  0.00     0.047 C 
BRANCH   6   7
ATOM      7  C   UNL     1       5.701   0.602   0.858  1.00  0.00    -0.047 A 
ATOM      8  C   UNL     1       6.403   0.130  -0.221  1.00  0.00     0.004 A 
ATOM      9  C   UNL     1       5.769  -0.104   2.035  1.00  0.00     0.004 A 
ATOM     10  C   UNL     1       7.156  -1.024  -0.115  1.00  0.00     0.000 A 
ATOM     11  C   UNL     1       6.506  -1.245   2.161  1.00  0.00     0.000 A 
ATOM     12  C   UNL     1       7.213  -1.719   1.077  1.00  0.00     0.000 A 
ENDBRANCH   6   7
ENDBRANCH   1   6
TORSDOF 4
ENDMDL
MODEL 5
REMARK VINA RESULT:      -6.6      1.874      2.787
REMARK SMILES O=C(O)CCc1ccccc1
REMARK SMILES IDX 4 1 2 2 1 3 3 4 5 6 6 7 7 8 11 9 8 10 10 11 9 12
REMARK H PARENT 3 5
REMARK Flexibility Score: inf
ROOT
ATOM      1  C   UNL     1       8.256  -1.548   0.947  1.00  0.00     0.127 C 
ENDROOT
BRANCH   1   2
ATOM      2  C   UNL     1       8.517  -2.828   0.247  1.00  0.00     0.303 C 
ATOM      3  O   UNL     1       9.098  -3.760   0.824  1.00  0.00    -0.252 OA
BRANCH   2   4
ATOM      4  O   UNL     1       8.108  -2.985  -1.064  1.00  0.00    -0.481 OA
ATOM      5  H   UNL     1       8.515  -3.683  -1.680  1.00  0.00     0.296 HD
ENDBRANCH   2   4
ENDBRANCH   1   2
BRANCH   1   6
ATOM      6  C   UNL     1       6.794  -1.424   1.298  1.00  0.00     0.047 C 
BRANCH   6   7
ATOM      7  C   UNL     1       6.194  -0.166   0.815  1.00  0.00    -0.047 A 
ATOM      8  C   UNL     1       5.408   0.658   1.581  1.00  0.00     0.004 A 
ATOM      9  C   UNL     1       6.439   0.200  -0.487  1.00  0.00     0.004 A 
ATOM     10  C   UNL     1       4.886   1.820   1.046  1.00  0.00     0.000 A 
ATOM     11  C   UNL     1       5.933   1.342  -1.034  1.00  0.00     0.000 A 
ATOM     12  C   UNL     1       5.144   2.170  -0.264  1.00  0.00     0.000 A 
ENDBRANCH   6   7
ENDBRANCH   1   6
TORSDOF 4
ENDMDL
