@<TRIPOS>MOLECULE
/home/cewinharhar/GITHUB/reincatalyze/data/processed/docking_pred/2023-Apr-25-1630_maxeplen5_maxtrainstep200_exh32_gamma099_lrac3e-4_lrcr1e-3/c584487daa348165e33ca71579c90fd99cb4babd_ligand_2.pdbqt
 12 12 0 0 0
SMALL
GASTEIGER

@<TRIPOS>ATOM
      1  C          8.2560   -1.5480    0.9470 C.3     1  UNL1        0.1270
      2  C          8.5170   -2.8280    0.2470 C.2     1  UNL1        0.3030
      3  O          9.0980   -3.7600    0.8240 O.2     1  UNL1       -0.2520
      4  O          8.1080   -2.9850   -1.0640 O.3     1  UNL1       -0.4810
      5  H          8.5150   -3.6830   -1.6800 H       1  UNL1        0.2960
      6  C          6.7940   -1.4240    1.2980 C.3     1  UNL1        0.0470
      7  C          6.1940   -0.1660    0.8150 C.2     1  UNL1       -0.0470
      8  C          5.4080    0.6580    1.5810 C.2     1  UNL1        0.0040
      9  C          6.4390    0.2000   -0.4870 C.2     1  UNL1        0.0040
     10  C          4.8860    1.8200    1.0460 C.2     1  UNL1        0.0000
     11  C          5.9330    1.3420   -1.0340 C.2     1  UNL1        0.0000
     12  C          5.1440    2.1700   -0.2640 C.2     1  UNL1        0.0000
@<TRIPOS>BOND
     1     5     4    1
     2     4     2    1
     3    11     9    1
     4    11    12    2
     5     9     7    2
     6    12    10    1
     7     2     3    2
     8     2     1    1
     9     7     6    1
    10     7     8    1
    11     1     6    1
    12    10     8    2
