@<TRIPOS>MOLECULE
/home/cewinharhar/GITHUB/reincatalyze/data/processed/docking_pred/2023-Apr-25-1630_maxeplen5_maxtrainstep200_exh32_gamma099_lrac3e-4_lrcr1e-3/c584487daa348165e33ca71579c90fd99cb4babd_ligand_2.pdbqt
 12 12 0 0 0
SMALL
GASTEIGER

@<TRIPOS>ATOM
      1  C          8.4080   -0.5700   -2.2470 C.3     1  UNL1        0.1270
      2  C          8.4620   -1.8840   -2.9310 C.2     1  UNL1        0.3030
      3  O          9.5410   -2.4780   -3.0820 O.2     1  UNL1       -0.2520
      4  O          7.2970   -2.4540   -3.4060 O.3     1  UNL1       -0.4810
      5  H          6.6930   -3.0250   -2.8210 H       1  UNL1        0.2960
      6  C          6.9860   -0.0720   -2.1680 C.3     1  UNL1        0.0470
      7  C          6.4850    0.0120   -0.7830 C.2     1  UNL1       -0.0470
      8  C          6.6110   -0.9880    0.1460 C.2     1  UNL1        0.0040
      9  C          5.8500    1.1720   -0.4050 C.2     1  UNL1        0.0040
     10  C          6.1100   -0.8240    1.4230 C.2     1  UNL1        0.0000
     11  C          5.3480    1.3530    0.8500 C.2     1  UNL1        0.0000
     12  C          5.4750    0.3480    1.7840 C.2     1  UNL1        0.0000
@<TRIPOS>BOND
     1     4     2    1
     2     4     5    1
     3     3     2    2
     4     2     1    1
     5     1     6    1
     6     6     7    1
     7     7     9    2
     8     7     8    1
     9     9    11    1
    10     8    10    2
    11    11    12    2
    12    10    12    1
