@<TRIPOS>MOLECULE
/home/cewinharhar/GITHUB/reincatalyze/data/processed/docking_pred/2023-Apr-25-1630_maxeplen5_maxtrainstep200_exh32_gamma099_lrac3e-4_lrcr1e-3/c8a10dea28a77dd5a54e6b3bff917c6d12aef46d_ligand_2.pdbqt
 12 12 0 0 0
SMALL
GASTEIGER

@<TRIPOS>ATOM
      1  C          8.3820   -0.7450   -1.9980 C.3     1  UNL1        0.1270
      2  C          8.3620   -1.9420   -2.8710 C.2     1  UNL1        0.3030
      3  O          7.2890   -2.4200   -3.2700 O.2     1  UNL1       -0.2520
      4  O          9.5540   -2.5330   -3.2460 O.3     1  UNL1       -0.4810
      5  H         10.0960   -2.2040   -4.0400 H       1  UNL1        0.2960
      6  C          7.0590   -0.0230   -2.0580 C.3     1  UNL1        0.0470
      7  C          6.4510    0.1700   -0.7280 C.2     1  UNL1       -0.0470
      8  C          5.7770    1.3010   -0.3440 C.2     1  UNL1        0.0040
      9  C          6.5710   -0.8530    0.1820 C.2     1  UNL1        0.0040
     10  C          5.2390    1.3970    0.9250 C.2     1  UNL1        0.0000
     11  C          6.0480   -0.7780    1.4390 C.2     1  UNL1        0.0000
     12  C          5.3700    0.3590    1.8250 C.2     1  UNL1        0.0000
@<TRIPOS>BOND
     1     5     4    1
     2     3     2    2
     3     4     2    1
     4     2     1    1
     5     6     1    1
     6     6     7    1
     7     7     8    2
     8     7     9    1
     9     8    10    1
    10     9    11    2
    11    10    12    2
    12    11    12    1
