@<TRIPOS>MOLECULE
/home/cewinharhar/GITHUB/reincatalyze/data/processed/docking_pred/2023-Apr-25-1630_maxeplen5_maxtrainstep200_exh32_gamma099_lrac3e-4_lrcr1e-3/c8a10dea28a77dd5a54e6b3bff917c6d12aef46d_ligand_2.pdbqt
 12 12 0 0 0
SMALL
GASTEIGER

@<TRIPOS>ATOM
      1  C          8.2800   -0.9590   -1.8400 C.3     1  UNL1        0.1270
      2  C          8.4290   -2.0360   -2.8470 C.2     1  UNL1        0.3030
      3  O          9.5450   -2.5130   -3.1060 O.2     1  UNL1       -0.2520
      4  O          7.3130   -2.5150   -3.5050 O.3     1  UNL1       -0.4810
      5  H          6.7430   -3.2690   -3.1300 H       1  UNL1        0.2960
      6  C          7.3500   -1.3920   -0.7340 C.3     1  UNL1        0.0470
      7  C          6.5400   -0.2800   -0.1990 C.2     1  UNL1       -0.0470
      8  C          6.2010    0.8410   -0.9130 C.2     1  UNL1        0.0040
      9  C          6.1010   -0.3790    1.1000 C.2     1  UNL1        0.0040
     10  C          5.4380    1.8350   -0.3310 C.2     1  UNL1        0.0000
     11  C          5.3490    0.5910    1.6920 C.2     1  UNL1        0.0000
     12  C          5.0060    1.7180    0.9750 C.2     1  UNL1        0.0000
@<TRIPOS>BOND
     1     4     5    1
     2     4     2    1
     3     3     2    2
     4     2     1    1
     5     1     6    1
     6     8    10    1
     7     8     7    2
     8     6     7    1
     9    10    12    2
    10     7     9    1
    11    12    11    1
    12     9    11    2
