@<TRIPOS>MOLECULE
/home/cewinharhar/GITHUB/reincatalyze/data/processed/docking_pred/2023-Apr-25-1630_maxeplen5_maxtrainstep200_exh32_gamma099_lrac3e-4_lrcr1e-3/c8a10dea28a77dd5a54e6b3bff917c6d12aef46d_ligand_2.pdbqt
 12 12 0 0 0
SMALL
GASTEIGER

@<TRIPOS>ATOM
      1  C          8.1760    0.2460   -2.1260 C.3     1  UNL1        0.1270
      2  C          9.3370    0.3640   -1.2120 C.2     1  UNL1        0.3030
      3  O          9.4620   -0.3990   -0.2420 O.2     1  UNL1       -0.2520
      4  O         10.2900    1.3370   -1.4430 O.3     1  UNL1       -0.4810
      5  H         10.5530    1.6290   -2.3800 H       1  UNL1        0.2960
      6  C          7.0890   -0.5890   -1.4960 C.3     1  UNL1        0.0470
      7  C          6.3250    0.1450   -0.4690 C.2     1  UNL1       -0.0470
      8  C          5.7660    1.3820   -0.6600 C.2     1  UNL1        0.0040
      9  C          6.1690   -0.4550    0.7580 C.2     1  UNL1        0.0040
     10  C          5.0670    1.9980    0.3610 C.2     1  UNL1        0.0000
     11  C          5.4830    0.1360    1.7780 C.2     1  UNL1        0.0000
     12  C          4.9200    1.3800    1.5860 C.2     1  UNL1        0.0000
@<TRIPOS>BOND
     1     5     4    1
     2     1     6    1
     3     1     2    1
     4     6     7    1
     5     4     2    1
     6     2     3    2
     7     8     7    2
     8     8    10    1
     9     7     9    1
    10    10    12    2
    11     9    11    2
    12    12    11    1
