@<TRIPOS>MOLECULE
/home/cewinharhar/GITHUB/reincatalyze/data/processed/docking_pred/2023-Apr-25-1630_maxeplen5_maxtrainstep200_exh32_gamma099_lrac3e-4_lrcr1e-3/c8a10dea28a77dd5a54e6b3bff917c6d12aef46d_ligand_2.pdbqt
 12 12 0 0 0
SMALL
GASTEIGER

@<TRIPOS>ATOM
      1  C          8.4750   -0.6470   -2.1540 C.3     1  UNL1        0.1270
      2  C          8.5010   -1.9190   -2.9140 C.2     1  UNL1        0.3030
      3  O          9.5700   -2.5160   -3.1170 O.2     1  UNL1       -0.2520
      4  O          7.3220   -2.4470   -3.4020 O.3     1  UNL1       -0.4810
      5  H          6.5440   -1.8620   -3.6940 H       1  UNL1        0.2960
      6  C          7.0830   -0.0670   -2.1410 C.3     1  UNL1        0.0470
      7  C          6.5200    0.0410   -0.7810 C.2     1  UNL1       -0.0470
      8  C          6.6220   -0.9370    0.1760 C.2     1  UNL1        0.0040
      9  C          5.8520    1.1970   -0.4570 C.2     1  UNL1        0.0040
     10  C          6.0630   -0.7520    1.4260 C.2     1  UNL1        0.0000
     11  C          5.2930    1.3990    0.7700 C.2     1  UNL1        0.0000
     12  C          5.3950    0.4170    1.7320 C.2     1  UNL1        0.0000
@<TRIPOS>BOND
     1     5     4    1
     2     4     2    1
     3     3     2    2
     4     2     1    1
     5     1     6    1
     6     6     7    1
     7     7     9    2
     8     7     8    1
     9     9    11    1
    10     8    10    2
    11    11    12    2
    12    10    12    1
