MODEL 1
REMARK VINA RESULT:      -7.4      0.000      0.000
REMARK SMILES O=C(O)CCc1ccccc1
REMARK SMILES IDX 4 1 2 2 1 3 3 4 5 6 6 7 7 8 11 9 8 10 10 11 9 12
REMARK H PARENT 3 5
REMARK Flexibility Score: inf
ROOT
ATOM      1  C   UNL     1       8.475  -0.647  -2.154  1.00  0.00     0.127 C 
ENDROOT
BRANCH   1   2
ATOM      2  C   UNL     1       8.501  -1.919  -2.914  1.00  0.00     0.303 C 
ATOM      3  O   UNL     1       9.570  -2.516  -3.117  1.00  0.00    -0.252 OA
BRANCH   2   4
ATOM      4  O   UNL     1       7.322  -2.447  -3.402  1.00  0.00    -0.481 OA
ATOM      5  H   UNL     1       6.544  -1.862  -3.694  1.00  0.00     0.296 HD
ENDBRANCH   2   4
ENDBRANCH   1   2
BRANCH   1   6
ATOM      6  C   UNL     1       7.083  -0.067  -2.141  1.00  0.00     0.047 C 
BRANCH   6   7
ATOM      7  C   UNL     1       6.520   0.041  -0.781  1.00  0.00    -0.047 A 
ATOM      8  C   UNL     1       6.622  -0.937   0.176  1.00  0.00     0.004 A 
ATOM      9  C   UNL     1       5.852   1.197  -0.457  1.00  0.00     0.004 A 
ATOM     10  C   UNL     1       6.063  -0.752   1.426  1.00  0.00     0.000 A 
ATOM     11  C   UNL     1       5.293   1.399   0.770  1.00  0.00     0.000 A 
ATOM     12  C   UNL     1       5.395   0.417   1.732  1.00  0.00     0.000 A 
ENDBRANCH   6   7
ENDBRANCH   1   6
TORSDOF 4
ENDMDL
MODEL 2
REMARK VINA RESULT:      -7.3      0.140      1.726
REMARK SMILES O=C(O)CCc1ccccc1
REMARK SMILES IDX 4 1 2 2 1 3 3 4 5 6 6 7 7 8 11 9 8 10 10 11 9 12
REMARK H PARENT 3 5
REMARK Flexibility Score: inf
ROOT
ATOM      1  C   UNL     1       8.382  -0.745  -1.998  1.00  0.00     0.127 C 
ENDROOT
BRANCH   1   2
ATOM      2  C   UNL     1       8.362  -1.942  -2.871  1.00  0.00     0.303 C 
ATOM      3  O   UNL     1       7.289  -2.420  -3.270  1.00  0.00    -0.252 OA
BRANCH   2   4
ATOM      4  O   UNL     1       9.554  -2.533  -3.246  1.00  0.00    -0.481 OA
ATOM      5  H   UNL     1      10.096  -2.204  -4.040  1.00  0.00     0.296 HD
ENDBRANCH   2   4
ENDBRANCH   1   2
BRANCH   1   6
ATOM      6  C   UNL     1       7.059  -0.023  -2.058  1.00  0.00     0.047 C 
BRANCH   6   7
ATOM      7  C   UNL     1       6.451   0.170  -0.728  1.00  0.00    -0.047 A 
ATOM      8  C   UNL     1       5.777   1.301  -0.344  1.00  0.00     0.004 A 
ATOM      9  C   UNL     1       6.571  -0.853   0.182  1.00  0.00     0.004 A 
ATOM     10  C   UNL     1       5.239   1.397   0.925  1.00  0.00     0.000 A 
ATOM     11  C   UNL     1       6.048  -0.778   1.439  1.00  0.00     0.000 A 
ATOM     12  C   UNL     1       5.370   0.359   1.825  1.00  0.00     0.000 A 
ENDBRANCH   6   7
ENDBRANCH   1   6
TORSDOF 4
ENDMDL
MODEL 3
REMARK VINA RESULT:      -7.2      0.645      1.598
REMARK SMILES O=C(O)CCc1ccccc1
REMARK SMILES IDX 4 1 2 2 1 3 3 4 5 6 6 7 7 8 11 9 8 10 10 11 9 12
REMARK H PARENT 3 5
REMARK Flexibility Score: inf
ROOT
ATOM      1  C   UNL     1       8.280  -0.959  -1.840  1.00  0.00     0.127 C 
ENDROOT
BRANCH   1   2
ATOM      2  C   UNL     1       8.429  -2.036  -2.847  1.00  0.00     0.303 C 
ATOM      3  O   UNL     1       9.545  -2.513  -3.106  1.00  0.00    -0.252 OA
BRANCH   2   4
ATOM      4  O   UNL     1       7.313  -2.515  -3.505  1.00  0.00    -0.481 OA
ATOM      5  H   UNL     1       6.743  -3.269  -3.130  1.00  0.00     0.296 HD
ENDBRANCH   2   4
ENDBRANCH   1   2
BRANCH   1   6
ATOM      6  C   UNL     1       7.350  -1.392  -0.734  1.00  0.00     0.047 C 
BRANCH   6   7
ATOM      7  C   UNL     1       6.540  -0.280  -0.199  1.00  0.00    -0.047 A 
ATOM      8  C   UNL     1       6.201   0.841  -0.913  1.00  0.00     0.004 A 
ATOM      9  C   UNL     1       6.101  -0.379   1.100  1.00  0.00     0.004 A 
ATOM     10  C   UNL     1       5.438   1.835  -0.331  1.00  0.00     0.000 A 
ATOM     11  C   UNL     1       5.349   0.591   1.692  1.00  0.00     0.000 A 
ATOM     12  C   UNL     1       5.006   1.718   0.975  1.00  0.00     0.000 A 
ENDBRANCH   6   7
ENDBRANCH   1   6
TORSDOF 4
ENDMDL
MODEL 4
REMARK VINA RESULT:      -6.7      3.335      5.040
REMARK SMILES O=C(O)CCc1ccccc1
REMARK SMILES IDX 4 1 2 2 1 3 3 4 5 6 6 7 7 8 11 9 8 10 10 11 9 12
REMARK H PARENT 3 5
REMARK Flexibility Score: inf
ROOT
ATOM      1  C   UNL     1       5.036   1.674   0.699  1.00  0.00     0.127 C 
ENDROOT
BRANCH   1   2
ATOM      2  C   UNL     1       4.595   0.997   1.942  1.00  0.00     0.303 C 
ATOM      3  O   UNL     1       5.316   0.154   2.496  1.00  0.00    -0.252 OA
BRANCH   2   4
ATOM      4  O   UNL     1       3.365   1.310   2.490  1.00  0.00    -0.481 OA
ATOM      5  H   UNL     1       2.950   2.233   2.401  1.00  0.00     0.296 HD
ENDBRANCH   2   4
ENDBRANCH   1   2
BRANCH   1   6
ATOM      6  C   UNL     1       6.533   1.858   0.698  1.00  0.00     0.047 C 
BRANCH   6   7
ATOM      7  C   UNL     1       7.205   1.080  -0.360  1.00  0.00    -0.047 A 
ATOM      8  C   UNL     1       8.540   1.175  -0.659  1.00  0.00     0.004 A 
ATOM      9  C   UNL     1       6.438   0.206  -1.093  1.00  0.00     0.004 A 
ATOM     10  C   UNL     1       9.086   0.408  -1.669  1.00  0.00     0.000 A 
ATOM     11  C   UNL     1       6.958  -0.559  -2.095  1.00  0.00     0.000 A 
ATOM     12  C   UNL     1       8.300  -0.464  -2.395  1.00  0.00     0.000 A 
ENDBRANCH   6   7
ENDBRANCH   1   6
TORSDOF 4
ENDMDL
MODEL 5
REMARK VINA RESULT:      -6.6      1.924      2.609
REMARK SMILES O=C(O)CCc1ccccc1
REMARK SMILES IDX 4 1 2 2 1 3 3 4 5 6 6 7 7 8 11 9 8 10 10 11 9 12
REMARK H PARENT 3 5
REMARK Flexibility Score: inf
ROOT
ATOM      1  C   UNL     1       8.176   0.246  -2.126  1.00  0.00     0.127 C 
ENDROOT
BRANCH   1   2
ATOM      2  C   UNL     1       9.337   0.364  -1.212  1.00  0.00     0.303 C 
ATOM      3  O   UNL     1       9.462  -0.399  -0.242  1.00  0.00    -0.252 OA
BRANCH   2   4
ATOM      4  O   UNL     1      10.290   1.337  -1.443  1.00  0.00    -0.481 OA
ATOM      5  H   UNL     1      10.553   1.629  -2.380  1.00  0.00     0.296 HD
ENDBRANCH   2   4
ENDBRANCH   1   2
BRANCH   1   6
ATOM      6  C   UNL     1       7.089  -0.589  -1.496  1.00  0.00     0.047 C 
BRANCH   6   7
ATOM      7  C   UNL     1       6.325   0.145  -0.469  1.00  0.00    -0.047 A 
ATOM      8  C   UNL     1       5.766   1.382  -0.660  1.00  0.00     0.004 A 
ATOM      9  C   UNL     1       6.169  -0.455   0.758  1.00  0.00     0.004 A 
ATOM     10  C   UNL     1       5.067   1.998   0.361  1.00  0.00     0.000 A 
ATOM     11  C   UNL     1       5.483   0.136   1.778  1.00  0.00     0.000 A 
ATOM     12  C   UNL     1       4.920   1.380   1.586  1.00  0.00     0.000 A 
ENDBRANCH   6   7
ENDBRANCH   1   6
TORSDOF 4
ENDMDL
