@<TRIPOS>MOLECULE
/home/cewinharhar/GITHUB/reincatalyze/data/processed/docking_pred/2023-Apr-25-1630_maxeplen5_maxtrainstep200_exh32_gamma099_lrac3e-4_lrcr1e-3/c8a10dea28a77dd5a54e6b3bff917c6d12aef46d_ligand_2.pdbqt
 12 12 0 0 0
SMALL
GASTEIGER

@<TRIPOS>ATOM
      1  C          5.0360    1.6740    0.6990 C.3     1  UNL1        0.1270
      2  C          4.5950    0.9970    1.9420 C.2     1  UNL1        0.3030
      3  O          5.3160    0.1540    2.4960 O.2     1  UNL1       -0.2520
      4  O          3.3650    1.3100    2.4900 O.3     1  UNL1       -0.4810
      5  H          2.9500    2.2330    2.4010 H       1  UNL1        0.2960
      6  C          6.5330    1.8580    0.6980 C.3     1  UNL1        0.0470
      7  C          7.2050    1.0800   -0.3600 C.2     1  UNL1       -0.0470
      8  C          8.5400    1.1750   -0.6590 C.2     1  UNL1        0.0040
      9  C          6.4380    0.2060   -1.0930 C.2     1  UNL1        0.0040
     10  C          9.0860    0.4080   -1.6690 C.2     1  UNL1        0.0000
     11  C          6.9580   -0.5590   -2.0950 C.2     1  UNL1        0.0000
     12  C          8.3000   -0.4640   -2.3950 C.2     1  UNL1        0.0000
@<TRIPOS>BOND
     1    12    11    2
     2    12    10    1
     3    11     9    1
     4    10     8    2
     5     9     7    2
     6     8     7    1
     7     7     6    1
     8     6     1    1
     9     1     2    1
    10     2     4    1
    11     2     3    2
    12     5     4    1
