@<TRIPOS>MOLECULE
/home/cewinharhar/GITHUB/reincatalyze/data/processed/docking_pred/2023-Apr-25-1630_maxeplen5_maxtrainstep200_exh32_gamma099_lrac3e-4_lrcr1e-3/cc4a81c85f0f72a0e9860fd8246284f5ccc1e781_ligand_2.pdbqt
 12 12 0 0 0
SMALL
GASTEIGER

@<TRIPOS>ATOM
      1  C          8.4510   -0.7030   -2.0620 C.3     1  UNL1        0.1270
      2  C          8.4860   -1.9350   -2.8850 C.2     1  UNL1        0.3030
      3  O          9.5570   -2.5230   -3.1030 O.2     1  UNL1       -0.2520
      4  O          7.3130   -2.4340   -3.4170 O.3     1  UNL1       -0.4810
      5  H          6.8480   -3.2530   -3.0360 H       1  UNL1        0.2960
      6  C          7.0860   -0.0640   -2.1220 C.3     1  UNL1        0.0470
      7  C          6.4820    0.1240   -0.7890 C.2     1  UNL1       -0.0470
      8  C          5.8080    1.2520   -0.3990 C.2     1  UNL1        0.0040
      9  C          6.6090   -0.9020    0.1180 C.2     1  UNL1        0.0040
     10  C          5.2740    1.3430    0.8720 C.2     1  UNL1        0.0000
     11  C          6.0900   -0.8310    1.3770 C.2     1  UNL1        0.0000
     12  C          5.4110    0.3030    1.7690 C.2     1  UNL1        0.0000
@<TRIPOS>BOND
     1     4     5    1
     2     4     2    1
     3     3     2    2
     4     2     1    1
     5     6     1    1
     6     6     7    1
     7     7     8    2
     8     7     9    1
     9     8    10    1
    10     9    11    2
    11    10    12    2
    12    11    12    1
