MODEL 1
REMARK VINA RESULT:      -7.4      0.000      0.000
REMARK SMILES O=C(O)CCc1ccccc1
REMARK SMILES IDX 4 1 2 2 1 3 3 4 5 6 6 7 7 8 11 9 8 10 10 11 9 12
REMARK H PARENT 3 5
REMARK Flexibility Score: inf
ROOT
ATOM      1  C   UNL     1       8.451  -0.703  -2.062  1.00  0.00     0.127 C 
ENDROOT
BRANCH   1   2
ATOM      2  C   UNL     1       8.486  -1.935  -2.885  1.00  0.00     0.303 C 
ATOM      3  O   UNL     1       9.557  -2.523  -3.103  1.00  0.00    -0.252 OA
BRANCH   2   4
ATOM      4  O   UNL     1       7.313  -2.434  -3.417  1.00  0.00    -0.481 OA
ATOM      5  H   UNL     1       6.848  -3.253  -3.036  1.00  0.00     0.296 HD
ENDBRANCH   2   4
ENDBRANCH   1   2
BRANCH   1   6
ATOM      6  C   UNL     1       7.086  -0.064  -2.122  1.00  0.00     0.047 C 
BRANCH   6   7
ATOM      7  C   UNL     1       6.482   0.124  -0.789  1.00  0.00    -0.047 A 
ATOM      8  C   UNL     1       5.808   1.252  -0.399  1.00  0.00     0.004 A 
ATOM      9  C   UNL     1       6.609  -0.902   0.118  1.00  0.00     0.004 A 
ATOM     10  C   UNL     1       5.274   1.343   0.872  1.00  0.00     0.000 A 
ATOM     11  C   UNL     1       6.090  -0.831   1.377  1.00  0.00     0.000 A 
ATOM     12  C   UNL     1       5.411   0.303   1.769  1.00  0.00     0.000 A 
ENDBRANCH   6   7
ENDBRANCH   1   6
TORSDOF 4
ENDMDL
MODEL 2
REMARK VINA RESULT:      -7.4      0.093      1.429
REMARK SMILES O=C(O)CCc1ccccc1
REMARK SMILES IDX 4 1 2 2 1 3 3 4 5 6 6 7 7 8 11 9 8 10 10 11 9 12
REMARK H PARENT 3 5
REMARK Flexibility Score: inf
ROOT
ATOM      1  C   UNL     1       8.438  -0.616  -2.186  1.00  0.00     0.127 C 
ENDROOT
BRANCH   1   2
ATOM      2  C   UNL     1       8.489  -1.904  -2.919  1.00  0.00     0.303 C 
ATOM      3  O   UNL     1       9.565  -2.502  -3.077  1.00  0.00    -0.252 OA
BRANCH   2   4
ATOM      4  O   UNL     1       7.326  -2.444  -3.432  1.00  0.00    -0.481 OA
ATOM      5  H   UNL     1       6.777  -1.973  -4.146  1.00  0.00     0.296 HD
ENDBRANCH   2   4
ENDBRANCH   1   2
BRANCH   1   6
ATOM      6  C   UNL     1       7.023  -0.097  -2.127  1.00  0.00     0.047 C 
BRANCH   6   7
ATOM      7  C   UNL     1       6.504  -0.007  -0.748  1.00  0.00    -0.047 A 
ATOM      8  C   UNL     1       6.633  -0.997   0.192  1.00  0.00     0.004 A 
ATOM      9  C   UNL     1       5.848   1.147  -0.389  1.00  0.00     0.004 A 
ATOM     10  C   UNL     1       6.114  -0.827   1.461  1.00  0.00     0.000 A 
ATOM     11  C   UNL     1       5.328   1.333   0.858  1.00  0.00     0.000 A 
ATOM     12  C   UNL     1       5.458   0.338   1.804  1.00  0.00     0.000 A 
ENDBRANCH   6   7
ENDBRANCH   1   6
TORSDOF 4
ENDMDL
MODEL 3
REMARK VINA RESULT:      -6.7      3.344      5.051
REMARK SMILES O=C(O)CCc1ccccc1
REMARK SMILES IDX 4 1 2 2 1 3 3 4 5 6 6 7 7 8 11 9 8 10 10 11 9 12
REMARK H PARENT 3 5
REMARK Flexibility Score: inf
ROOT
ATOM      1  C   UNL     1       5.018   1.715   0.701  1.00  0.00     0.127 C 
ENDROOT
BRANCH   1   2
ATOM      2  C   UNL     1       4.593   1.028   1.943  1.00  0.00     0.303 C 
ATOM      3  O   UNL     1       5.330   0.195   2.492  1.00  0.00    -0.252 OA
BRANCH   2   4
ATOM      4  O   UNL     1       3.361   1.320   2.496  1.00  0.00    -0.481 OA
ATOM      5  H   UNL     1       2.489   1.125   2.013  1.00  0.00     0.296 HD
ENDBRANCH   2   4
ENDBRANCH   1   2
BRANCH   1   6
ATOM      6  C   UNL     1       6.520   1.847   0.655  1.00  0.00     0.047 C 
BRANCH   6   7
ATOM      7  C   UNL     1       7.136   1.022  -0.402  1.00  0.00    -0.047 A 
ATOM      8  C   UNL     1       6.457   0.095  -1.151  1.00  0.00     0.004 A 
ATOM      9  C   UNL     1       8.477   1.196  -0.647  1.00  0.00     0.004 A 
ATOM     10  C   UNL     1       7.115  -0.636  -2.121  1.00  0.00     0.000 A 
ATOM     11  C   UNL     1       9.145   0.485  -1.599  1.00  0.00     0.000 A 
ATOM     12  C   UNL     1       8.463  -0.447  -2.353  1.00  0.00     0.000 A 
ENDBRANCH   6   7
ENDBRANCH   1   6
TORSDOF 4
ENDMDL
MODEL 4
REMARK VINA RESULT:      -6.7      1.945      2.250
REMARK SMILES O=C(O)CCc1ccccc1
REMARK SMILES IDX 4 1 2 2 1 3 3 4 5 6 6 7 7 8 11 9 8 10 10 11 9 12
REMARK H PARENT 3 5
REMARK Flexibility Score: inf
ROOT
ATOM      1  C   UNL     1       8.189   0.256  -2.099  1.00  0.00     0.127 C 
ENDROOT
BRANCH   1   2
ATOM      2  C   UNL     1       9.363   0.373  -1.201  1.00  0.00     0.303 C 
ATOM      3  O   UNL     1       9.489  -0.376  -0.220  1.00  0.00    -0.252 OA
BRANCH   2   4
ATOM      4  O   UNL     1      10.327   1.327  -1.461  1.00  0.00    -0.481 OA
ATOM      5  H   UNL     1      10.280   1.942  -2.268  1.00  0.00     0.296 HD
ENDBRANCH   2   4
ENDBRANCH   1   2
BRANCH   1   6
ATOM      6  C   UNL     1       7.114  -0.586  -1.458  1.00  0.00     0.047 C 
BRANCH   6   7
ATOM      7  C   UNL     1       6.327   0.157  -0.455  1.00  0.00    -0.047 A 
ATOM      8  C   UNL     1       5.763   1.388  -0.673  1.00  0.00     0.004 A 
ATOM      9  C   UNL     1       6.153  -0.427   0.777  1.00  0.00     0.004 A 
ATOM     10  C   UNL     1       5.042   2.013   0.326  1.00  0.00     0.000 A 
ATOM     11  C   UNL     1       5.445   0.173   1.777  1.00  0.00     0.000 A 
ATOM     12  C   UNL     1       4.877   1.410   1.558  1.00  0.00     0.000 A 
ENDBRANCH   6   7
ENDBRANCH   1   6
TORSDOF 4
ENDMDL
MODEL 5
REMARK VINA RESULT:      -6.6      1.902      2.842
REMARK SMILES O=C(O)CCc1ccccc1
REMARK SMILES IDX 4 1 2 2 1 3 3 4 5 6 6 7 7 8 11 9 8 10 10 11 9 12
REMARK H PARENT 3 5
REMARK Flexibility Score: inf
ROOT
ATOM      1  C   UNL     1       8.164  -1.613   1.173  1.00  0.00     0.127 C 
ENDROOT
BRANCH   1   2
ATOM      2  C   UNL     1       8.515  -2.822   0.391  1.00  0.00     0.303 C 
ATOM      3  O   UNL     1       9.198  -3.728   0.894  1.00  0.00    -0.252 OA
BRANCH   2   4
ATOM      4  O   UNL     1       8.077  -2.941  -0.914  1.00  0.00    -0.481 OA
ATOM      5  H   UNL     1       8.704  -3.178  -1.678  1.00  0.00     0.296 HD
ENDBRANCH   2   4
ENDBRANCH   1   2
BRANCH   1   6
ATOM      6  C   UNL     1       6.668  -1.507   1.342  1.00  0.00     0.047 C 
BRANCH   6   7
ATOM      7  C   UNL     1       6.126  -0.225   0.851  1.00  0.00    -0.047 A 
ATOM      8  C   UNL     1       5.376   0.636   1.609  1.00  0.00     0.004 A 
ATOM      9  C   UNL     1       6.393   0.122  -0.452  1.00  0.00     0.004 A 
ATOM     10  C   UNL     1       4.907   1.817   1.067  1.00  0.00     0.000 A 
ATOM     11  C   UNL     1       5.939   1.283  -1.006  1.00  0.00     0.000 A 
ATOM     12  C   UNL     1       5.185   2.150  -0.244  1.00  0.00     0.000 A 
ENDBRANCH   6   7
ENDBRANCH   1   6
TORSDOF 4
ENDMDL
