@<TRIPOS>MOLECULE
/home/cewinharhar/GITHUB/reincatalyze/data/processed/docking_pred/2023-Apr-25-1630_maxeplen5_maxtrainstep200_exh32_gamma099_lrac3e-4_lrcr1e-3/cc4a81c85f0f72a0e9860fd8246284f5ccc1e781_ligand_2.pdbqt
 12 12 0 0 0
SMALL
GASTEIGER

@<TRIPOS>ATOM
      1  C          5.0180    1.7150    0.7010 C.3     1  UNL1        0.1270
      2  C          4.5930    1.0280    1.9430 C.2     1  UNL1        0.3030
      3  O          5.3300    0.1950    2.4920 O.2     1  UNL1       -0.2520
      4  O          3.3610    1.3200    2.4960 O.3     1  UNL1       -0.4810
      5  H          2.4890    1.1250    2.0130 H       1  UNL1        0.2960
      6  C          6.5200    1.8470    0.6550 C.3     1  UNL1        0.0470
      7  C          7.1360    1.0220   -0.4020 C.2     1  UNL1       -0.0470
      8  C          6.4570    0.0950   -1.1510 C.2     1  UNL1        0.0040
      9  C          8.4770    1.1960   -0.6470 C.2     1  UNL1        0.0040
     10  C          7.1150   -0.6360   -2.1210 C.2     1  UNL1        0.0000
     11  C          9.1450    0.4850   -1.5990 C.2     1  UNL1        0.0000
     12  C          8.4630   -0.4470   -2.3530 C.2     1  UNL1        0.0000
@<TRIPOS>BOND
     1    12    10    2
     2    12    11    1
     3    10     8    1
     4    11     9    2
     5     8     7    2
     6     9     7    1
     7     7     6    1
     8     6     1    1
     9     1     2    1
    10     2     3    2
    11     2     4    1
    12     5     4    1
