@<TRIPOS>MOLECULE
/home/cewinharhar/GITHUB/reincatalyze/data/processed/docking_pred/2023-Apr-25-1630_maxeplen5_maxtrainstep200_exh32_gamma099_lrac3e-4_lrcr1e-3/cc4a81c85f0f72a0e9860fd8246284f5ccc1e781_ligand_2.pdbqt
 12 12 0 0 0
SMALL
GASTEIGER

@<TRIPOS>ATOM
      1  C          8.1890    0.2560   -2.0990 C.3     1  UNL1        0.1270
      2  C          9.3630    0.3730   -1.2010 C.2     1  UNL1        0.3030
      3  O          9.4890   -0.3760   -0.2200 O.2     1  UNL1       -0.2520
      4  O         10.3270    1.3270   -1.4610 O.3     1  UNL1       -0.4810
      5  H         10.2800    1.9420   -2.2680 H       1  UNL1        0.2960
      6  C          7.1140   -0.5860   -1.4580 C.3     1  UNL1        0.0470
      7  C          6.3270    0.1570   -0.4550 C.2     1  UNL1       -0.0470
      8  C          5.7630    1.3880   -0.6730 C.2     1  UNL1        0.0040
      9  C          6.1530   -0.4270    0.7770 C.2     1  UNL1        0.0040
     10  C          5.0420    2.0130    0.3260 C.2     1  UNL1        0.0000
     11  C          5.4450    0.1730    1.7770 C.2     1  UNL1        0.0000
     12  C          4.8770    1.4100    1.5580 C.2     1  UNL1        0.0000
@<TRIPOS>BOND
     1     5     4    1
     2     1     6    1
     3     1     2    1
     4     4     2    1
     5     6     7    1
     6     2     3    2
     7     8     7    2
     8     8    10    1
     9     7     9    1
    10    10    12    2
    11     9    11    2
    12    12    11    1
