@<TRIPOS>MOLECULE
/home/cewinharhar/GITHUB/reincatalyze/data/processed/docking_pred/2023-Apr-25-1630_maxeplen5_maxtrainstep200_exh32_gamma099_lrac3e-4_lrcr1e-3/cc4a81c85f0f72a0e9860fd8246284f5ccc1e781_ligand_2.pdbqt
 12 12 0 0 0
SMALL
GASTEIGER

@<TRIPOS>ATOM
      1  C          8.1640   -1.6130    1.1730 C.3     1  UNL1        0.1270
      2  C          8.5150   -2.8220    0.3910 C.2     1  UNL1        0.3030
      3  O          9.1980   -3.7280    0.8940 O.2     1  UNL1       -0.2520
      4  O          8.0770   -2.9410   -0.9140 O.3     1  UNL1       -0.4810
      5  H          8.7040   -3.1780   -1.6780 H       1  UNL1        0.2960
      6  C          6.6680   -1.5070    1.3420 C.3     1  UNL1        0.0470
      7  C          6.1260   -0.2250    0.8510 C.2     1  UNL1       -0.0470
      8  C          5.3760    0.6360    1.6090 C.2     1  UNL1        0.0040
      9  C          6.3930    0.1220   -0.4520 C.2     1  UNL1        0.0040
     10  C          4.9070    1.8170    1.0670 C.2     1  UNL1        0.0000
     11  C          5.9390    1.2830   -1.0060 C.2     1  UNL1        0.0000
     12  C          5.1850    2.1500   -0.2440 C.2     1  UNL1        0.0000
@<TRIPOS>BOND
     1     5     4    1
     2    11     9    1
     3    11    12    2
     4     4     2    1
     5     9     7    2
     6    12    10    1
     7     2     3    2
     8     2     1    1
     9     7     6    1
    10     7     8    1
    11    10     8    2
    12     1     6    1
