MODEL 1
REMARK VINA RESULT:      -7.3      0.000      0.000
REMARK SMILES O=C(O)CCc1ccccc1
REMARK SMILES IDX 4 1 2 2 1 3 3 4 5 6 6 7 7 8 11 9 8 10 10 11 9 12
REMARK H PARENT 3 5
REMARK Flexibility Score: inf
ROOT
ATOM      1  C   UNL     1       8.398  -0.640  -2.128  1.00  0.00     0.127 C 
ENDROOT
BRANCH   1   2
ATOM      2  C   UNL     1       8.454  -1.903  -2.902  1.00  0.00     0.303 C 
ATOM      3  O   UNL     1       9.533  -2.486  -3.091  1.00  0.00    -0.252 OA
BRANCH   2   4
ATOM      4  O   UNL     1       7.289  -2.438  -3.418  1.00  0.00    -0.481 OA
ATOM      5  H   UNL     1       6.995  -2.274  -4.377  1.00  0.00     0.296 HD
ENDBRANCH   2   4
ENDBRANCH   1   2
BRANCH   1   6
ATOM      6  C   UNL     1       6.998  -0.079  -2.130  1.00  0.00     0.047 C 
BRANCH   6   7
ATOM      7  C   UNL     1       6.454   0.105  -0.771  1.00  0.00    -0.047 A 
ATOM      8  C   UNL     1       5.829   1.246  -0.338  1.00  0.00     0.004 A 
ATOM      9  C   UNL     1       6.585  -0.938   0.114  1.00  0.00     0.004 A 
ATOM     10  C   UNL     1       5.349   1.332   0.955  1.00  0.00     0.000 A 
ATOM     11  C   UNL     1       6.118  -0.873   1.394  1.00  0.00     0.000 A 
ATOM     12  C   UNL     1       5.490   0.274   1.830  1.00  0.00     0.000 A 
ENDBRANCH   6   7
ENDBRANCH   1   6
TORSDOF 4
ENDMDL
MODEL 2
REMARK VINA RESULT:      -7.3      0.101      1.429
REMARK SMILES O=C(O)CCc1ccccc1
REMARK SMILES IDX 4 1 2 2 1 3 3 4 5 6 6 7 7 8 11 9 8 10 10 11 9 12
REMARK H PARENT 3 5
REMARK Flexibility Score: inf
ROOT
ATOM      1  C   UNL     1       8.429  -0.567  -2.241  1.00  0.00     0.127 C 
ENDROOT
BRANCH   1   2
ATOM      2  C   UNL     1       8.488  -1.876  -2.932  1.00  0.00     0.303 C 
ATOM      3  O   UNL     1       9.568  -2.468  -3.082  1.00  0.00    -0.252 OA
BRANCH   2   4
ATOM      4  O   UNL     1       7.325  -2.445  -3.416  1.00  0.00    -0.481 OA
ATOM      5  H   UNL     1       6.564  -1.888  -3.793  1.00  0.00     0.296 HD
ENDBRANCH   2   4
ENDBRANCH   1   2
BRANCH   1   6
ATOM      6  C   UNL     1       7.009  -0.061  -2.183  1.00  0.00     0.047 C 
BRANCH   6   7
ATOM      7  C   UNL     1       6.493   0.037  -0.804  1.00  0.00    -0.047 A 
ATOM      8  C   UNL     1       6.612  -0.953   0.137  1.00  0.00     0.004 A 
ATOM      9  C   UNL     1       5.852   1.199  -0.445  1.00  0.00     0.004 A 
ATOM     10  C   UNL     1       6.097  -0.776   1.407  1.00  0.00     0.000 A 
ATOM     11  C   UNL     1       5.336   1.393   0.803  1.00  0.00     0.000 A 
ATOM     12  C   UNL     1       5.456   0.398   1.749  1.00  0.00     0.000 A 
ENDBRANCH   6   7
ENDBRANCH   1   6
TORSDOF 4
ENDMDL
MODEL 3
REMARK VINA RESULT:      -6.8      3.370      5.077
REMARK SMILES O=C(O)CCc1ccccc1
REMARK SMILES IDX 4 1 2 2 1 3 3 4 5 6 6 7 7 8 11 9 8 10 10 11 9 12
REMARK H PARENT 3 5
REMARK Flexibility Score: inf
ROOT
ATOM      1  C   UNL     1       5.009   1.813   0.731  1.00  0.00     0.127 C 
ENDROOT
BRANCH   1   2
ATOM      2  C   UNL     1       4.491   1.106   1.926  1.00  0.00     0.303 C 
ATOM      3  O   UNL     1       5.148   0.201   2.463  1.00  0.00    -0.252 OA
BRANCH   2   4
ATOM      4  O   UNL     1       3.262   1.460   2.449  1.00  0.00    -0.481 OA
ATOM      5  H   UNL     1       2.758   2.287   2.141  1.00  0.00     0.296 HD
ENDBRANCH   2   4
ENDBRANCH   1   2
BRANCH   1   6
ATOM      6  C   UNL     1       6.517   1.830   0.738  1.00  0.00     0.047 C 
BRANCH   6   7
ATOM      7  C   UNL     1       7.104   1.025  -0.350  1.00  0.00    -0.047 A 
ATOM      8  C   UNL     1       6.412   0.092  -1.079  1.00  0.00     0.004 A 
ATOM      9  C   UNL     1       8.431   1.226  -0.647  1.00  0.00     0.004 A 
ATOM     10  C   UNL     1       7.043  -0.619  -2.082  1.00  0.00     0.000 A 
ATOM     11  C   UNL     1       9.072   0.534  -1.633  1.00  0.00     0.000 A 
ATOM     12  C   UNL     1       8.377  -0.404  -2.366  1.00  0.00     0.000 A 
ENDBRANCH   6   7
ENDBRANCH   1   6
TORSDOF 4
ENDMDL
MODEL 4
REMARK VINA RESULT:      -6.7      3.340      5.015
REMARK SMILES O=C(O)CCc1ccccc1
REMARK SMILES IDX 4 1 2 2 1 3 3 4 5 6 6 7 7 8 11 9 8 10 10 11 9 12
REMARK H PARENT 3 5
REMARK Flexibility Score: inf
ROOT
ATOM      1  C   UNL     1       5.053   1.703   0.687  1.00  0.00     0.127 C 
ENDROOT
BRANCH   1   2
ATOM      2  C   UNL     1       4.600   1.029   1.926  1.00  0.00     0.303 C 
ATOM      3  O   UNL     1       5.313   0.182   2.486  1.00  0.00    -0.252 OA
BRANCH   2   4
ATOM      4  O   UNL     1       3.367   1.346   2.464  1.00  0.00    -0.481 OA
ATOM      5  H   UNL     1       2.995   0.875   3.284  1.00  0.00     0.296 HD
ENDBRANCH   2   4
ENDBRANCH   1   2
BRANCH   1   6
ATOM      6  C   UNL     1       6.553   1.865   0.690  1.00  0.00     0.047 C 
BRANCH   6   7
ATOM      7  C   UNL     1       7.215   1.081  -0.371  1.00  0.00    -0.047 A 
ATOM      8  C   UNL     1       8.546   1.178  -0.685  1.00  0.00     0.004 A 
ATOM      9  C   UNL     1       6.442   0.199  -1.088  1.00  0.00     0.004 A 
ATOM     10  C   UNL     1       9.083   0.405  -1.696  1.00  0.00     0.000 A 
ATOM     11  C   UNL     1       6.953  -0.572  -2.090  1.00  0.00     0.000 A 
ATOM     12  C   UNL     1       8.291  -0.476  -2.406  1.00  0.00     0.000 A 
ENDBRANCH   6   7
ENDBRANCH   1   6
TORSDOF 4
ENDMDL
MODEL 5
REMARK VINA RESULT:      -6.7      1.936      2.660
REMARK SMILES O=C(O)CCc1ccccc1
REMARK SMILES IDX 4 1 2 2 1 3 3 4 5 6 6 7 7 8 11 9 8 10 10 11 9 12
REMARK H PARENT 3 5
REMARK Flexibility Score: inf
ROOT
ATOM      1  C   UNL     1       8.257   0.232  -2.195  1.00  0.00     0.127 C 
ENDROOT
BRANCH   1   2
ATOM      2  C   UNL     1       9.384   0.352  -1.240  1.00  0.00     0.303 C 
ATOM      3  O   UNL     1       9.459  -0.391  -0.250  1.00  0.00    -0.252 OA
BRANCH   2   4
ATOM      4  O   UNL     1      10.361   1.305  -1.455  1.00  0.00    -0.481 OA
ATOM      5  H   UNL     1      10.182   2.159  -1.976  1.00  0.00     0.296 HD
ENDBRANCH   2   4
ENDBRANCH   1   2
BRANCH   1   6
ATOM      6  C   UNL     1       7.124  -0.553  -1.582  1.00  0.00     0.047 C 
BRANCH   6   7
ATOM      7  C   UNL     1       6.352   0.230  -0.598  1.00  0.00    -0.047 A 
ATOM      8  C   UNL     1       6.123  -0.166   0.695  1.00  0.00     0.004 A 
ATOM      9  C   UNL     1       5.829   1.433  -1.010  1.00  0.00     0.004 A 
ATOM     10  C   UNL     1       5.387   0.631   1.550  1.00  0.00     0.000 A 
ATOM     11  C   UNL     1       5.099   2.234  -0.182  1.00  0.00     0.000 A 
ATOM     12  C   UNL     1       4.870   1.836   1.118  1.00  0.00     0.000 A 
ENDBRANCH   6   7
ENDBRANCH   1   6
TORSDOF 4
ENDMDL
