@<TRIPOS>MOLECULE
/home/cewinharhar/GITHUB/reincatalyze/data/processed/docking_pred/2023-Apr-25-1630_maxeplen5_maxtrainstep200_exh32_gamma099_lrac3e-4_lrcr1e-3/cdc825ac9d1cfd0e1f917a20457d8153cb4f8d56_ligand_2.pdbqt
 12 12 0 0 0
SMALL
GASTEIGER

@<TRIPOS>ATOM
      1  C          8.3980   -0.6400   -2.1280 C.3     1  UNL1        0.1270
      2  C          8.4540   -1.9030   -2.9020 C.2     1  UNL1        0.3030
      3  O          9.5330   -2.4860   -3.0910 O.2     1  UNL1       -0.2520
      4  O          7.2890   -2.4380   -3.4180 O.3     1  UNL1       -0.4810
      5  H          6.9950   -2.2740   -4.3770 H       1  UNL1        0.2960
      6  C          6.9980   -0.0790   -2.1300 C.3     1  UNL1        0.0470
      7  C          6.4540    0.1050   -0.7710 C.2     1  UNL1       -0.0470
      8  C          5.8290    1.2460   -0.3380 C.2     1  UNL1        0.0040
      9  C          6.5850   -0.9380    0.1140 C.2     1  UNL1        0.0040
     10  C          5.3490    1.3320    0.9550 C.2     1  UNL1        0.0000
     11  C          6.1180   -0.8730    1.3940 C.2     1  UNL1        0.0000
     12  C          5.4900    0.2740    1.8300 C.2     1  UNL1        0.0000
@<TRIPOS>BOND
     1     5     4    1
     2     4     2    1
     3     3     2    2
     4     2     1    1
     5     6     1    1
     6     6     7    1
     7     7     8    2
     8     7     9    1
     9     8    10    1
    10     9    11    2
    11    10    12    2
    12    11    12    1
