@<TRIPOS>MOLECULE
/home/cewinharhar/GITHUB/reincatalyze/data/processed/docking_pred/2023-Apr-25-1630_maxeplen5_maxtrainstep200_exh32_gamma099_lrac3e-4_lrcr1e-3/cdc825ac9d1cfd0e1f917a20457d8153cb4f8d56_ligand_2.pdbqt
 12 12 0 0 0
SMALL
GASTEIGER

@<TRIPOS>ATOM
      1  C          8.4290   -0.5670   -2.2410 C.3     1  UNL1        0.1270
      2  C          8.4880   -1.8760   -2.9320 C.2     1  UNL1        0.3030
      3  O          9.5680   -2.4680   -3.0820 O.2     1  UNL1       -0.2520
      4  O          7.3250   -2.4450   -3.4160 O.3     1  UNL1       -0.4810
      5  H          6.5640   -1.8880   -3.7930 H       1  UNL1        0.2960
      6  C          7.0090   -0.0610   -2.1830 C.3     1  UNL1        0.0470
      7  C          6.4930    0.0370   -0.8040 C.2     1  UNL1       -0.0470
      8  C          6.6120   -0.9530    0.1370 C.2     1  UNL1        0.0040
      9  C          5.8520    1.1990   -0.4450 C.2     1  UNL1        0.0040
     10  C          6.0970   -0.7760    1.4070 C.2     1  UNL1        0.0000
     11  C          5.3360    1.3930    0.8030 C.2     1  UNL1        0.0000
     12  C          5.4560    0.3980    1.7490 C.2     1  UNL1        0.0000
@<TRIPOS>BOND
     1     5     4    1
     2     4     2    1
     3     3     2    2
     4     2     1    1
     5     1     6    1
     6     6     7    1
     7     7     9    2
     8     7     8    1
     9     9    11    1
    10     8    10    2
    11    11    12    2
    12    10    12    1
