@<TRIPOS>MOLECULE
/home/cewinharhar/GITHUB/reincatalyze/data/processed/docking_pred/2023-Apr-25-1630_maxeplen5_maxtrainstep200_exh32_gamma099_lrac3e-4_lrcr1e-3/cdc825ac9d1cfd0e1f917a20457d8153cb4f8d56_ligand_2.pdbqt
 12 12 0 0 0
SMALL
GASTEIGER

@<TRIPOS>ATOM
      1  C          8.2570    0.2320   -2.1950 C.3     1  UNL1        0.1270
      2  C          9.3840    0.3520   -1.2400 C.2     1  UNL1        0.3030
      3  O          9.4590   -0.3910   -0.2500 O.2     1  UNL1       -0.2520
      4  O         10.3610    1.3050   -1.4550 O.3     1  UNL1       -0.4810
      5  H         10.1820    2.1590   -1.9760 H       1  UNL1        0.2960
      6  C          7.1240   -0.5530   -1.5820 C.3     1  UNL1        0.0470
      7  C          6.3520    0.2300   -0.5980 C.2     1  UNL1       -0.0470
      8  C          6.1230   -0.1660    0.6950 C.2     1  UNL1        0.0040
      9  C          5.8290    1.4330   -1.0100 C.2     1  UNL1        0.0040
     10  C          5.3870    0.6310    1.5500 C.2     1  UNL1        0.0000
     11  C          5.0990    2.2340   -0.1820 C.2     1  UNL1        0.0000
     12  C          4.8700    1.8360    1.1180 C.2     1  UNL1        0.0000
@<TRIPOS>BOND
     1     1     6    1
     2     1     2    1
     3     5     4    1
     4     6     7    1
     5     4     2    1
     6     2     3    2
     7     9     7    2
     8     9    11    1
     9     7     8    1
    10    11    12    2
    11     8    10    2
    12    12    10    1
