@<TRIPOS>MOLECULE
/home/cewinharhar/GITHUB/reincatalyze/data/processed/docking_pred/2023-Apr-25-1630_maxeplen5_maxtrainstep200_exh32_gamma099_lrac3e-4_lrcr1e-3/cdc825ac9d1cfd0e1f917a20457d8153cb4f8d56_ligand_2.pdbqt
 12 12 0 0 0
SMALL
GASTEIGER

@<TRIPOS>ATOM
      1  C          5.0530    1.7030    0.6870 C.3     1  UNL1        0.1270
      2  C          4.6000    1.0290    1.9260 C.2     1  UNL1        0.3030
      3  O          5.3130    0.1820    2.4860 O.2     1  UNL1       -0.2520
      4  O          3.3670    1.3460    2.4640 O.3     1  UNL1       -0.4810
      5  H          2.9950    0.8750    3.2840 H       1  UNL1        0.2960
      6  C          6.5530    1.8650    0.6900 C.3     1  UNL1        0.0470
      7  C          7.2150    1.0810   -0.3710 C.2     1  UNL1       -0.0470
      8  C          8.5460    1.1780   -0.6850 C.2     1  UNL1        0.0040
      9  C          6.4420    0.1990   -1.0880 C.2     1  UNL1        0.0040
     10  C          9.0830    0.4050   -1.6960 C.2     1  UNL1        0.0000
     11  C          6.9530   -0.5720   -2.0900 C.2     1  UNL1        0.0000
     12  C          8.2910   -0.4760   -2.4060 C.2     1  UNL1        0.0000
@<TRIPOS>BOND
     1    12    11    2
     2    12    10    1
     3    11     9    1
     4    10     8    2
     5     9     7    2
     6     8     7    1
     7     7     6    1
     8     1     6    1
     9     1     2    1
    10     2     4    1
    11     2     3    2
    12     4     5    1
