@<TRIPOS>MOLECULE
/home/cewinharhar/GITHUB/reincatalyze/data/processed/docking_pred/2023-Apr-25-1630_maxeplen5_maxtrainstep200_exh32_gamma099_lrac3e-4_lrcr1e-3/cdc825ac9d1cfd0e1f917a20457d8153cb4f8d56_ligand_2.pdbqt
 12 12 0 0 0
SMALL
GASTEIGER

@<TRIPOS>ATOM
      1  C          5.0090    1.8130    0.7310 C.3     1  UNL1        0.1270
      2  C          4.4910    1.1060    1.9260 C.2     1  UNL1        0.3030
      3  O          5.1480    0.2010    2.4630 O.2     1  UNL1       -0.2520
      4  O          3.2620    1.4600    2.4490 O.3     1  UNL1       -0.4810
      5  H          2.7580    2.2870    2.1410 H       1  UNL1        0.2960
      6  C          6.5170    1.8300    0.7380 C.3     1  UNL1        0.0470
      7  C          7.1040    1.0250   -0.3500 C.2     1  UNL1       -0.0470
      8  C          6.4120    0.0920   -1.0790 C.2     1  UNL1        0.0040
      9  C          8.4310    1.2260   -0.6470 C.2     1  UNL1        0.0040
     10  C          7.0430   -0.6190   -2.0820 C.2     1  UNL1        0.0000
     11  C          9.0720    0.5340   -1.6330 C.2     1  UNL1        0.0000
     12  C          8.3770   -0.4040   -2.3660 C.2     1  UNL1        0.0000
@<TRIPOS>BOND
     1    12    10    2
     2    12    11    1
     3    10     8    1
     4    11     9    2
     5     8     7    2
     6     9     7    1
     7     7     6    1
     8     1     6    1
     9     1     2    1
    10     2     4    1
    11     2     3    2
    12     5     4    1
