@<TRIPOS>MOLECULE
/home/cewinharhar/GITHUB/reincatalyze/data/processed/docking_pred/2023-Apr-25-1630_maxeplen5_maxtrainstep200_exh32_gamma099_lrac3e-4_lrcr1e-3/d17de8b65df071edc80e577bc10846f04a34e0dd_ligand_2.pdbqt
 12 12 0 0 0
SMALL
GASTEIGER

@<TRIPOS>ATOM
      1  C          7.3060   -1.3860   -2.0130 C.3     1  UNL1        0.1270
      2  C          8.7240   -1.3700   -2.4410 C.2     1  UNL1        0.3030
      3  O          9.1770   -2.2660   -3.1710 O.2     1  UNL1       -0.2520
      4  O          9.5530   -0.3470   -2.0220 O.3     1  UNL1       -0.4810
      5  H          9.9020    0.3650   -2.6580 H       1  UNL1        0.2960
      6  C          7.2060   -1.4270   -0.5080 C.3     1  UNL1        0.0470
      7  C          6.4150   -0.3110    0.0440 C.2     1  UNL1       -0.0470
      8  C          5.8980   -0.2860    1.3140 C.2     1  UNL1        0.0040
      9  C          6.1830    0.7710   -0.7710 C.2     1  UNL1        0.0040
     10  C          5.1660    0.8020    1.7490 C.2     1  UNL1        0.0000
     11  C          5.4630    1.8540   -0.3610 C.2     1  UNL1        0.0000
     12  C          4.9440    1.8790    0.9160 C.2     1  UNL1        0.0000
@<TRIPOS>BOND
     1     3     2    2
     2     5     4    1
     3     2     4    1
     4     2     1    1
     5     1     6    1
     6     9    11    1
     7     9     7    2
     8     6     7    1
     9    11    12    2
    10     7     8    1
    11    12    10    1
    12     8    10    2
