@<TRIPOS>MOLECULE
/home/cewinharhar/GITHUB/reincatalyze/data/processed/docking_pred/2023-Apr-25-1630_maxeplen5_maxtrainstep200_exh32_gamma099_lrac3e-4_lrcr1e-3/d17de8b65df071edc80e577bc10846f04a34e0dd_ligand_2.pdbqt
 12 12 0 0 0
SMALL
GASTEIGER

@<TRIPOS>ATOM
      1  C          5.0540    1.7260    0.7180 C.3     1  UNL1        0.1270
      2  C          4.5940    1.0280    1.9410 C.2     1  UNL1        0.3030
      3  O          5.3060    0.1730    2.4900 O.2     1  UNL1       -0.2520
      4  O          3.3570    1.3320    2.4760 O.3     1  UNL1       -0.4810
      5  H          3.2060    2.1430    3.0690 H       1  UNL1        0.2960
      6  C          6.5560    1.8640    0.7190 C.3     1  UNL1        0.0470
      7  C          7.2030    1.0810   -0.3510 C.2     1  UNL1       -0.0470
      8  C          8.5270    1.1880   -0.6930 C.2     1  UNL1        0.0040
      9  C          6.4240    0.1890   -1.0490 C.2     1  UNL1        0.0040
     10  C          9.0510    0.4160   -1.7110 C.2     1  UNL1        0.0000
     11  C          6.9210   -0.5820   -2.0570 C.2     1  UNL1        0.0000
     12  C          8.2520   -0.4750   -2.4010 C.2     1  UNL1        0.0000
@<TRIPOS>BOND
     1    12    11    2
     2    12    10    1
     3    11     9    1
     4    10     8    2
     5     9     7    2
     6     8     7    1
     7     7     6    1
     8     1     6    1
     9     1     2    1
    10     2     4    1
    11     2     3    2
    12     4     5    1
