@<TRIPOS>MOLECULE
/home/cewinharhar/GITHUB/reincatalyze/data/processed/docking_pred/2023-Apr-25-1630_maxeplen5_maxtrainstep200_exh32_gamma099_lrac3e-4_lrcr1e-3/d17de8b65df071edc80e577bc10846f04a34e0dd_ligand_2.pdbqt
 12 12 0 0 0
SMALL
GASTEIGER

@<TRIPOS>ATOM
      1  C          7.3370   -1.2390   -2.2510 C.3     1  UNL1        0.1270
      2  C          8.7900   -1.3410   -2.5290 C.2     1  UNL1        0.3030
      3  O          9.5830   -0.4980   -2.0810 O.2     1  UNL1       -0.2520
      4  O          9.2650   -2.3870   -3.2960 O.3     1  UNL1       -0.4810
      5  H          9.0510   -3.3570   -3.0850 H       1  UNL1        0.2960
      6  C          7.0680   -1.4000   -0.7750 C.3     1  UNL1        0.0470
      7  C          6.3540   -0.2470   -0.1940 C.2     1  UNL1       -0.0470
      8  C          6.0930    0.9180   -0.8680 C.2     1  UNL1        0.0040
      9  C          5.9280   -0.3520    1.1080 C.2     1  UNL1        0.0040
     10  C          5.4180    1.9500   -0.2440 C.2     1  UNL1        0.0000
     11  C          5.2610    0.6540    1.7420 C.2     1  UNL1        0.0000
     12  C          4.9970    1.8260    1.0650 C.2     1  UNL1        0.0000
@<TRIPOS>BOND
     1     4     5    1
     2     4     2    1
     3     2     1    1
     4     2     3    2
     5     1     6    1
     6     8    10    1
     7     8     7    2
     8     6     7    1
     9    10    12    2
    10     7     9    1
    11    12    11    1
    12     9    11    2
