MODEL 1
REMARK VINA RESULT:      -7.3      0.000      0.000
REMARK SMILES O=C(O)CCc1ccccc1
REMARK SMILES IDX 4 1 2 2 1 3 3 4 5 6 6 7 7 8 11 9 8 10 10 11 9 12
REMARK H PARENT 3 5
REMARK Flexibility Score: inf
ROOT
ATOM      1  C   UNL     1       8.410  -0.659  -2.112  1.00  0.00     0.127 C 
ENDROOT
BRANCH   1   2
ATOM      2  C   UNL     1       8.472  -1.916  -2.894  1.00  0.00     0.303 C 
ATOM      3  O   UNL     1       9.555  -2.489  -3.090  1.00  0.00    -0.252 OA
BRANCH   2   4
ATOM      4  O   UNL     1       7.310  -2.455  -3.412  1.00  0.00    -0.481 OA
ATOM      5  H   UNL     1       7.279  -2.906  -4.322  1.00  0.00     0.296 HD
ENDBRANCH   2   4
ENDBRANCH   1   2
BRANCH   1   6
ATOM      6  C   UNL     1       7.012  -0.093  -2.128  1.00  0.00     0.047 C 
BRANCH   6   7
ATOM      7  C   UNL     1       6.454   0.094  -0.775  1.00  0.00    -0.047 A 
ATOM      8  C   UNL     1       5.816   1.232  -0.353  1.00  0.00     0.004 A 
ATOM      9  C   UNL     1       6.587  -0.943   0.118  1.00  0.00     0.004 A 
ATOM     10  C   UNL     1       5.325   1.322   0.935  1.00  0.00     0.000 A 
ATOM     11  C   UNL     1       6.110  -0.875   1.394  1.00  0.00     0.000 A 
ATOM     12  C   UNL     1       5.467   0.269   1.818  1.00  0.00     0.000 A 
ENDBRANCH   6   7
ENDBRANCH   1   6
TORSDOF 4
ENDMDL
MODEL 2
REMARK VINA RESULT:      -7.3      0.094      1.428
REMARK SMILES O=C(O)CCc1ccccc1
REMARK SMILES IDX 4 1 2 2 1 3 3 4 5 6 6 7 7 8 11 9 8 10 10 11 9 12
REMARK H PARENT 3 5
REMARK Flexibility Score: inf
ROOT
ATOM      1  C   UNL     1       8.429  -0.591  -2.210  1.00  0.00     0.127 C 
ENDROOT
BRANCH   1   2
ATOM      2  C   UNL     1       8.488  -1.896  -2.911  1.00  0.00     0.303 C 
ATOM      3  O   UNL     1       9.565  -2.496  -3.047  1.00  0.00    -0.252 OA
BRANCH   2   4
ATOM      4  O   UNL     1       7.329  -2.450  -3.420  1.00  0.00    -0.481 OA
ATOM      5  H   UNL     1       7.231  -3.448  -3.585  1.00  0.00     0.296 HD
ENDBRANCH   2   4
ENDBRANCH   1   2
BRANCH   1   6
ATOM      6  C   UNL     1       7.011  -0.079  -2.162  1.00  0.00     0.047 C 
BRANCH   6   7
ATOM      7  C   UNL     1       6.488   0.030  -0.787  1.00  0.00    -0.047 A 
ATOM      8  C   UNL     1       6.602  -0.953   0.163  1.00  0.00     0.004 A 
ATOM      9  C   UNL     1       5.842   1.193  -0.441  1.00  0.00     0.004 A 
ATOM     10  C   UNL     1       6.080  -0.767   1.428  1.00  0.00     0.000 A 
ATOM     11  C   UNL     1       5.320   1.396   0.803  1.00  0.00     0.000 A 
ATOM     12  C   UNL     1       5.436   0.409   1.758  1.00  0.00     0.000 A 
ENDBRANCH   6   7
ENDBRANCH   1   6
TORSDOF 4
ENDMDL
MODEL 3
REMARK VINA RESULT:      -6.9      0.996      1.516
REMARK SMILES O=C(O)CCc1ccccc1
REMARK SMILES IDX 4 1 2 2 1 3 3 4 5 6 6 7 7 8 11 9 8 10 10 11 9 12
REMARK H PARENT 3 5
REMARK Flexibility Score: inf
ROOT
ATOM      1  C   UNL     1       7.337  -1.239  -2.251  1.00  0.00     0.127 C 
ENDROOT
BRANCH   1   2
ATOM      2  C   UNL     1       8.790  -1.341  -2.529  1.00  0.00     0.303 C 
ATOM      3  O   UNL     1       9.583  -0.498  -2.081  1.00  0.00    -0.252 OA
BRANCH   2   4
ATOM      4  O   UNL     1       9.265  -2.387  -3.296  1.00  0.00    -0.481 OA
ATOM      5  H   UNL     1       9.051  -3.357  -3.085  1.00  0.00     0.296 HD
ENDBRANCH   2   4
ENDBRANCH   1   2
BRANCH   1   6
ATOM      6  C   UNL     1       7.068  -1.400  -0.775  1.00  0.00     0.047 C 
BRANCH   6   7
ATOM      7  C   UNL     1       6.354  -0.247  -0.194  1.00  0.00    -0.047 A 
ATOM      8  C   UNL     1       6.093   0.918  -0.868  1.00  0.00     0.004 A 
ATOM      9  C   UNL     1       5.928  -0.352   1.108  1.00  0.00     0.004 A 
ATOM     10  C   UNL     1       5.418   1.950  -0.244  1.00  0.00     0.000 A 
ATOM     11  C   UNL     1       5.261   0.654   1.742  1.00  0.00     0.000 A 
ATOM     12  C   UNL     1       4.997   1.826   1.065  1.00  0.00     0.000 A 
ENDBRANCH   6   7
ENDBRANCH   1   6
TORSDOF 4
ENDMDL
MODEL 4
REMARK VINA RESULT:      -6.8      1.043      1.995
REMARK SMILES O=C(O)CCc1ccccc1
REMARK SMILES IDX 4 1 2 2 1 3 3 4 5 6 6 7 7 8 11 9 8 10 10 11 9 12
REMARK H PARENT 3 5
REMARK Flexibility Score: inf
ROOT
ATOM      1  C   UNL     1       7.306  -1.386  -2.013  1.00  0.00     0.127 C 
ENDROOT
BRANCH   1   2
ATOM      2  C   UNL     1       8.724  -1.370  -2.441  1.00  0.00     0.303 C 
ATOM      3  O   UNL     1       9.177  -2.266  -3.171  1.00  0.00    -0.252 OA
BRANCH   2   4
ATOM      4  O   UNL     1       9.553  -0.347  -2.022  1.00  0.00    -0.481 OA
ATOM      5  H   UNL     1       9.902   0.365  -2.658  1.00  0.00     0.296 HD
ENDBRANCH   2   4
ENDBRANCH   1   2
BRANCH   1   6
ATOM      6  C   UNL     1       7.206  -1.427  -0.508  1.00  0.00     0.047 C 
BRANCH   6   7
ATOM      7  C   UNL     1       6.415  -0.311   0.044  1.00  0.00    -0.047 A 
ATOM      8  C   UNL     1       5.898  -0.286   1.314  1.00  0.00     0.004 A 
ATOM      9  C   UNL     1       6.183   0.771  -0.771  1.00  0.00     0.004 A 
ATOM     10  C   UNL     1       5.166   0.802   1.749  1.00  0.00     0.000 A 
ATOM     11  C   UNL     1       5.463   1.854  -0.361  1.00  0.00     0.000 A 
ATOM     12  C   UNL     1       4.944   1.879   0.916  1.00  0.00     0.000 A 
ENDBRANCH   6   7
ENDBRANCH   1   6
TORSDOF 4
ENDMDL
MODEL 5
REMARK VINA RESULT:      -6.7      3.347      5.022
REMARK SMILES O=C(O)CCc1ccccc1
REMARK SMILES IDX 4 1 2 2 1 3 3 4 5 6 6 7 7 8 11 9 8 10 10 11 9 12
REMARK H PARENT 3 5
REMARK Flexibility Score: inf
ROOT
ATOM      1  C   UNL     1       5.054   1.726   0.718  1.00  0.00     0.127 C 
ENDROOT
BRANCH   1   2
ATOM      2  C   UNL     1       4.594   1.028   1.941  1.00  0.00     0.303 C 
ATOM      3  O   UNL     1       5.306   0.173   2.490  1.00  0.00    -0.252 OA
BRANCH   2   4
ATOM      4  O   UNL     1       3.357   1.332   2.476  1.00  0.00    -0.481 OA
ATOM      5  H   UNL     1       3.206   2.143   3.069  1.00  0.00     0.296 HD
ENDBRANCH   2   4
ENDBRANCH   1   2
BRANCH   1   6
ATOM      6  C   UNL     1       6.556   1.864   0.719  1.00  0.00     0.047 C 
BRANCH   6   7
ATOM      7  C   UNL     1       7.203   1.081  -0.351  1.00  0.00    -0.047 A 
ATOM      8  C   UNL     1       8.527   1.188  -0.693  1.00  0.00     0.004 A 
ATOM      9  C   UNL     1       6.424   0.189  -1.049  1.00  0.00     0.004 A 
ATOM     10  C   UNL     1       9.051   0.416  -1.711  1.00  0.00     0.000 A 
ATOM     11  C   UNL     1       6.921  -0.582  -2.057  1.00  0.00     0.000 A 
ATOM     12  C   UNL     1       8.252  -0.475  -2.401  1.00  0.00     0.000 A 
ENDBRANCH   6   7
ENDBRANCH   1   6
TORSDOF 4
ENDMDL
