@<TRIPOS>MOLECULE
/home/cewinharhar/GITHUB/reincatalyze/data/processed/docking_pred/2023-Apr-25-1630_maxeplen5_maxtrainstep200_exh32_gamma099_lrac3e-4_lrcr1e-3/d18fc177cce43baae8a65556dd45e7572e61ad5e_ligand_2.pdbqt
 12 12 0 0 0
SMALL
GASTEIGER

@<TRIPOS>ATOM
      1  C          8.3960   -0.6830   -2.0690 C.3     1  UNL1        0.1270
      2  C          8.3660   -1.9210   -2.8840 C.2     1  UNL1        0.3030
      3  O          7.2880   -2.4140   -3.2510 O.2     1  UNL1       -0.2520
      4  O          9.5530   -2.5320   -3.2390 O.3     1  UNL1       -0.4810
      5  H         10.3060   -2.0300   -3.7010 H       1  UNL1        0.2960
      6  C          7.0550    0.0070   -2.1050 C.3     1  UNL1        0.0470
      7  C          6.4630    0.1790   -0.7640 C.2     1  UNL1       -0.0470
      8  C          5.7910    1.3010   -0.3550 C.2     1  UNL1        0.0040
      9  C          6.6000   -0.8570    0.1300 C.2     1  UNL1        0.0040
     10  C          5.2690    1.3770    0.9220 C.2     1  UNL1        0.0000
     11  C          6.0930   -0.8020    1.3940 C.2     1  UNL1        0.0000
     12  C          5.4150    0.3270    1.8060 C.2     1  UNL1        0.0000
@<TRIPOS>BOND
     1     5     4    1
     2     3     2    2
     3     4     2    1
     4     2     1    1
     5     6     1    1
     6     6     7    1
     7     7     8    2
     8     7     9    1
     9     8    10    1
    10     9    11    2
    11    10    12    2
    12    11    12    1
