@<TRIPOS>MOLECULE
/home/cewinharhar/GITHUB/reincatalyze/data/processed/docking_pred/2023-Apr-25-1630_maxeplen5_maxtrainstep200_exh32_gamma099_lrac3e-4_lrcr1e-3/d18fc177cce43baae8a65556dd45e7572e61ad5e_ligand_2.pdbqt
 12 12 0 0 0
SMALL
GASTEIGER

@<TRIPOS>ATOM
      1  C          5.0030    1.7890    0.7260 C.3     1  UNL1        0.1270
      2  C          4.4900    1.0960    1.9320 C.2     1  UNL1        0.3030
      3  O          5.1500    0.1970    2.4770 O.2     1  UNL1       -0.2520
      4  O          3.2620    1.4530    2.4540 O.3     1  UNL1       -0.4810
      5  H          3.1690    1.9220    3.3510 H       1  UNL1        0.2960
      6  C          6.5110    1.8180    0.7330 C.3     1  UNL1        0.0470
      7  C          7.1040    1.0160   -0.3550 C.2     1  UNL1       -0.0470
      8  C          6.4180    0.0810   -1.0870 C.2     1  UNL1        0.0040
      9  C          8.4310    1.2230   -0.6480 C.2     1  UNL1        0.0040
     10  C          7.0540   -0.6260   -2.0890 C.2     1  UNL1        0.0000
     11  C          9.0770    0.5350   -1.6330 C.2     1  UNL1        0.0000
     12  C          8.3870   -0.4040   -2.3690 C.2     1  UNL1        0.0000
@<TRIPOS>BOND
     1    12    10    2
     2    12    11    1
     3    10     8    1
     4    11     9    2
     5     8     7    2
     6     9     7    1
     7     7     6    1
     8     1     6    1
     9     1     2    1
    10     2     4    1
    11     2     3    2
    12     4     5    1
