@<TRIPOS>MOLECULE
/home/cewinharhar/GITHUB/reincatalyze/data/processed/docking_pred/2023-Apr-25-1630_maxeplen5_maxtrainstep200_exh32_gamma099_lrac3e-4_lrcr1e-3/d18fc177cce43baae8a65556dd45e7572e61ad5e_ligand_2.pdbqt
 12 12 0 0 0
SMALL
GASTEIGER

@<TRIPOS>ATOM
      1  C          8.2690    0.2480   -2.1780 C.3     1  UNL1        0.1270
      2  C          9.4010    0.3560   -1.2280 C.2     1  UNL1        0.3030
      3  O          9.4700   -0.3850   -0.2360 O.2     1  UNL1       -0.2520
      4  O         10.3910    1.2940   -1.4500 O.3     1  UNL1       -0.4810
      5  H         10.3540    2.2270   -1.0500 H       1  UNL1        0.2960
      6  C          7.1380   -0.5420   -1.5680 C.3     1  UNL1        0.0470
      7  C          6.3590    0.2380   -0.5870 C.2     1  UNL1       -0.0470
      8  C          6.1220   -0.1600    0.7030 C.2     1  UNL1        0.0040
      9  C          5.8380    1.4410   -1.0000 C.2     1  UNL1        0.0040
     10  C          5.3790    0.6340    1.5550 C.2     1  UNL1        0.0000
     11  C          5.1010    2.2400   -0.1760 C.2     1  UNL1        0.0000
     12  C          4.8630    1.8400    1.1220 C.2     1  UNL1        0.0000
@<TRIPOS>BOND
     1     1     6    1
     2     1     2    1
     3     6     7    1
     4     4     2    1
     5     4     5    1
     6     2     3    2
     7     9     7    2
     8     9    11    1
     9     7     8    1
    10    11    12    2
    11     8    10    2
    12    12    10    1
