@<TRIPOS>MOLECULE
/home/cewinharhar/GITHUB/reincatalyze/data/processed/docking_pred/2023-Apr-25-1630_maxeplen5_maxtrainstep200_exh32_gamma099_lrac3e-4_lrcr1e-3/d18fc177cce43baae8a65556dd45e7572e61ad5e_ligand_2.pdbqt
 12 12 0 0 0
SMALL
GASTEIGER

@<TRIPOS>ATOM
      1  C          8.4260   -0.5610   -2.2810 C.3     1  UNL1        0.1270
      2  C          8.4880   -1.8860   -2.9410 C.2     1  UNL1        0.3030
      3  O          9.5670   -2.4880   -3.0560 O.2     1  UNL1       -0.2520
      4  O          7.3310   -2.4580   -3.4340 O.3     1  UNL1       -0.4810
      5  H          6.9630   -2.2320   -4.3530 H       1  UNL1        0.2960
      6  C          7.0000   -0.0750   -2.2010 C.3     1  UNL1        0.0470
      7  C          6.5000    0.0060   -0.8150 C.2     1  UNL1       -0.0470
      8  C          6.6250   -0.9980    0.1110 C.2     1  UNL1        0.0040
      9  C          5.8660    1.1650   -0.4340 C.2     1  UNL1        0.0040
     10  C          6.1250   -0.8360    1.3880 C.2     1  UNL1        0.0000
     11  C          5.3660    1.3440    0.8220 C.2     1  UNL1        0.0000
     12  C          5.4920    0.3350    1.7540 C.2     1  UNL1        0.0000
@<TRIPOS>BOND
     1     5     4    1
     2     4     2    1
     3     3     2    2
     4     2     1    1
     5     1     6    1
     6     6     7    1
     7     7     9    2
     8     7     8    1
     9     9    11    1
    10     8    10    2
    11    11    12    2
    12    10    12    1
