MODEL 1
REMARK VINA RESULT:      -7.3      0.000      0.000
REMARK SMILES O=C(O)CCc1ccccc1
REMARK SMILES IDX 4 1 2 2 1 3 3 4 5 6 6 7 7 8 11 9 8 10 10 11 9 12
REMARK H PARENT 3 5
REMARK Flexibility Score: inf
ROOT
ATOM      1  C   UNL     1       8.426  -0.561  -2.281  1.00  0.00     0.127 C 
ENDROOT
BRANCH   1   2
ATOM      2  C   UNL     1       8.488  -1.886  -2.941  1.00  0.00     0.303 C 
ATOM      3  O   UNL     1       9.567  -2.488  -3.056  1.00  0.00    -0.252 OA
BRANCH   2   4
ATOM      4  O   UNL     1       7.331  -2.458  -3.434  1.00  0.00    -0.481 OA
ATOM      5  H   UNL     1       6.963  -2.232  -4.353  1.00  0.00     0.296 HD
ENDBRANCH   2   4
ENDBRANCH   1   2
BRANCH   1   6
ATOM      6  C   UNL     1       7.000  -0.075  -2.201  1.00  0.00     0.047 C 
BRANCH   6   7
ATOM      7  C   UNL     1       6.500   0.006  -0.815  1.00  0.00    -0.047 A 
ATOM      8  C   UNL     1       6.625  -0.998   0.111  1.00  0.00     0.004 A 
ATOM      9  C   UNL     1       5.866   1.165  -0.434  1.00  0.00     0.004 A 
ATOM     10  C   UNL     1       6.125  -0.836   1.388  1.00  0.00     0.000 A 
ATOM     11  C   UNL     1       5.366   1.344   0.822  1.00  0.00     0.000 A 
ATOM     12  C   UNL     1       5.492   0.335   1.754  1.00  0.00     0.000 A 
ENDBRANCH   6   7
ENDBRANCH   1   6
TORSDOF 4
ENDMDL
MODEL 2
REMARK VINA RESULT:      -7.3      0.162      1.727
REMARK SMILES O=C(O)CCc1ccccc1
REMARK SMILES IDX 4 1 2 2 1 3 3 4 5 6 6 7 7 8 11 9 8 10 10 11 9 12
REMARK H PARENT 3 5
REMARK Flexibility Score: inf
ROOT
ATOM      1  C   UNL     1       8.396  -0.683  -2.069  1.00  0.00     0.127 C 
ENDROOT
BRANCH   1   2
ATOM      2  C   UNL     1       8.366  -1.921  -2.884  1.00  0.00     0.303 C 
ATOM      3  O   UNL     1       7.288  -2.414  -3.251  1.00  0.00    -0.252 OA
BRANCH   2   4
ATOM      4  O   UNL     1       9.553  -2.532  -3.239  1.00  0.00    -0.481 OA
ATOM      5  H   UNL     1      10.306  -2.030  -3.701  1.00  0.00     0.296 HD
ENDBRANCH   2   4
ENDBRANCH   1   2
BRANCH   1   6
ATOM      6  C   UNL     1       7.055   0.007  -2.105  1.00  0.00     0.047 C 
BRANCH   6   7
ATOM      7  C   UNL     1       6.463   0.179  -0.764  1.00  0.00    -0.047 A 
ATOM      8  C   UNL     1       5.791   1.301  -0.355  1.00  0.00     0.004 A 
ATOM      9  C   UNL     1       6.600  -0.857   0.130  1.00  0.00     0.004 A 
ATOM     10  C   UNL     1       5.269   1.377   0.922  1.00  0.00     0.000 A 
ATOM     11  C   UNL     1       6.093  -0.802   1.394  1.00  0.00     0.000 A 
ATOM     12  C   UNL     1       5.415   0.327   1.806  1.00  0.00     0.000 A 
ENDBRANCH   6   7
ENDBRANCH   1   6
TORSDOF 4
ENDMDL
MODEL 3
REMARK VINA RESULT:      -6.8      3.385      5.058
REMARK SMILES O=C(O)CCc1ccccc1
REMARK SMILES IDX 4 1 2 2 1 3 3 4 5 6 6 7 7 8 11 9 8 10 10 11 9 12
REMARK H PARENT 3 5
REMARK Flexibility Score: inf
ROOT
ATOM      1  C   UNL     1       5.003   1.789   0.726  1.00  0.00     0.127 C 
ENDROOT
BRANCH   1   2
ATOM      2  C   UNL     1       4.490   1.096   1.932  1.00  0.00     0.303 C 
ATOM      3  O   UNL     1       5.150   0.197   2.477  1.00  0.00    -0.252 OA
BRANCH   2   4
ATOM      4  O   UNL     1       3.262   1.453   2.454  1.00  0.00    -0.481 OA
ATOM      5  H   UNL     1       3.169   1.922   3.351  1.00  0.00     0.296 HD
ENDBRANCH   2   4
ENDBRANCH   1   2
BRANCH   1   6
ATOM      6  C   UNL     1       6.511   1.818   0.733  1.00  0.00     0.047 C 
BRANCH   6   7
ATOM      7  C   UNL     1       7.104   1.016  -0.355  1.00  0.00    -0.047 A 
ATOM      8  C   UNL     1       6.418   0.081  -1.087  1.00  0.00     0.004 A 
ATOM      9  C   UNL     1       8.431   1.223  -0.648  1.00  0.00     0.004 A 
ATOM     10  C   UNL     1       7.054  -0.626  -2.089  1.00  0.00     0.000 A 
ATOM     11  C   UNL     1       9.077   0.535  -1.633  1.00  0.00     0.000 A 
ATOM     12  C   UNL     1       8.387  -0.404  -2.369  1.00  0.00     0.000 A 
ENDBRANCH   6   7
ENDBRANCH   1   6
TORSDOF 4
ENDMDL
MODEL 4
REMARK VINA RESULT:      -6.7      1.942      2.324
REMARK SMILES O=C(O)CCc1ccccc1
REMARK SMILES IDX 4 1 2 2 1 3 3 4 5 6 6 7 7 8 11 9 8 10 10 11 9 12
REMARK H PARENT 3 5
REMARK Flexibility Score: inf
ROOT
ATOM      1  C   UNL     1       8.269   0.248  -2.178  1.00  0.00     0.127 C 
ENDROOT
BRANCH   1   2
ATOM      2  C   UNL     1       9.401   0.356  -1.228  1.00  0.00     0.303 C 
ATOM      3  O   UNL     1       9.470  -0.385  -0.236  1.00  0.00    -0.252 OA
BRANCH   2   4
ATOM      4  O   UNL     1      10.391   1.294  -1.450  1.00  0.00    -0.481 OA
ATOM      5  H   UNL     1      10.354   2.227  -1.050  1.00  0.00     0.296 HD
ENDBRANCH   2   4
ENDBRANCH   1   2
BRANCH   1   6
ATOM      6  C   UNL     1       7.138  -0.542  -1.568  1.00  0.00     0.047 C 
BRANCH   6   7
ATOM      7  C   UNL     1       6.359   0.238  -0.587  1.00  0.00    -0.047 A 
ATOM      8  C   UNL     1       6.122  -0.160   0.703  1.00  0.00     0.004 A 
ATOM      9  C   UNL     1       5.838   1.441  -1.000  1.00  0.00     0.004 A 
ATOM     10  C   UNL     1       5.379   0.634   1.555  1.00  0.00     0.000 A 
ATOM     11  C   UNL     1       5.101   2.240  -0.176  1.00  0.00     0.000 A 
ATOM     12  C   UNL     1       4.863   1.840   1.122  1.00  0.00     0.000 A 
ENDBRANCH   6   7
ENDBRANCH   1   6
TORSDOF 4
ENDMDL
MODEL 5
REMARK VINA RESULT:      -6.6      2.018      2.789
REMARK SMILES O=C(O)CCc1ccccc1
REMARK SMILES IDX 4 1 2 2 1 3 3 4 5 6 6 7 7 8 11 9 8 10 10 11 9 12
REMARK H PARENT 3 5
REMARK Flexibility Score: inf
ROOT
ATOM      1  C   UNL     1       7.933  -2.251   0.818  1.00  0.00     0.127 C 
ENDROOT
BRANCH   1   2
ATOM      2  C   UNL     1       8.774  -3.389   0.378  1.00  0.00     0.303 C 
ATOM      3  O   UNL     1       9.648  -3.859   1.123  1.00  0.00    -0.252 OA
BRANCH   2   4
ATOM      4  O   UNL     1       8.582  -3.933  -0.877  1.00  0.00    -0.481 OA
ATOM      5  H   UNL     1       9.302  -3.914  -1.594  1.00  0.00     0.296 HD
ENDBRANCH   2   4
ENDBRANCH   1   2
BRANCH   1   6
ATOM      6  C   UNL     1       7.467  -1.446  -0.369  1.00  0.00     0.047 C 
BRANCH   6   7
ATOM      7  C   UNL     1       6.602  -0.312   0.012  1.00  0.00    -0.047 A 
ATOM      8  C   UNL     1       6.279   0.727  -0.823  1.00  0.00     0.004 A 
ATOM      9  C   UNL     1       6.091  -0.302   1.288  1.00  0.00     0.004 A 
ATOM     10  C   UNL     1       5.462   1.749  -0.382  1.00  0.00     0.000 A 
ATOM     11  C   UNL     1       5.283   0.698   1.743  1.00  0.00     0.000 A 
ATOM     12  C   UNL     1       4.957   1.743   0.904  1.00  0.00     0.000 A 
ENDBRANCH   6   7
ENDBRANCH   1   6
TORSDOF 4
ENDMDL
