@<TRIPOS>MOLECULE
/home/cewinharhar/GITHUB/reincatalyze/data/processed/docking_pred/2023-Apr-25-1630_maxeplen5_maxtrainstep200_exh32_gamma099_lrac3e-4_lrcr1e-3/d18fc177cce43baae8a65556dd45e7572e61ad5e_ligand_2.pdbqt
 12 12 0 0 0
SMALL
GASTEIGER

@<TRIPOS>ATOM
      1  C          7.9330   -2.2510    0.8180 C.3     1  UNL1        0.1270
      2  C          8.7740   -3.3890    0.3780 C.2     1  UNL1        0.3030
      3  O          9.6480   -3.8590    1.1230 O.2     1  UNL1       -0.2520
      4  O          8.5820   -3.9330   -0.8770 O.3     1  UNL1       -0.4810
      5  H          9.3020   -3.9140   -1.5940 H       1  UNL1        0.2960
      6  C          7.4670   -1.4460   -0.3690 C.3     1  UNL1        0.0470
      7  C          6.6020   -0.3120    0.0120 C.2     1  UNL1       -0.0470
      8  C          6.2790    0.7270   -0.8230 C.2     1  UNL1        0.0040
      9  C          6.0910   -0.3020    1.2880 C.2     1  UNL1        0.0040
     10  C          5.4620    1.7490   -0.3820 C.2     1  UNL1        0.0000
     11  C          5.2830    0.6980    1.7430 C.2     1  UNL1        0.0000
     12  C          4.9570    1.7430    0.9040 C.2     1  UNL1        0.0000
@<TRIPOS>BOND
     1     5     4    1
     2     4     2    1
     3     8    10    1
     4     8     7    2
     5    10    12    2
     6     6     7    1
     7     6     1    1
     8     7     9    1
     9     2     1    1
    10     2     3    2
    11    12    11    1
    12     9    11    2
