@<TRIPOS>MOLECULE
/home/cewinharhar/GITHUB/reincatalyze/data/processed/docking_pred/2023-Apr-25-1630_maxeplen5_maxtrainstep200_exh32_gamma099_lrac3e-4_lrcr1e-3/d27e6afc186b75c76b7fe435f4b9560b42cd14a2_ligand_2.pdbqt
 12 12 0 0 0
SMALL
GASTEIGER

@<TRIPOS>ATOM
      1  C          8.3960   -0.6250   -2.1500 C.3     1  UNL1        0.1270
      2  C          8.3640   -1.9040   -2.8980 C.2     1  UNL1        0.3030
      3  O          7.2860   -2.4110   -3.2440 O.2     1  UNL1       -0.2520
      4  O          9.5500   -2.5400   -3.2130 O.3     1  UNL1       -0.4810
      5  H          9.6550   -3.5490   -3.1650 H       1  UNL1        0.2960
      6  C          7.0200   -0.0100   -2.0940 C.3     1  UNL1        0.0470
      7  C          6.4800    0.0600   -0.7220 C.2     1  UNL1       -0.0470
      8  C          6.5940   -0.9440    0.2040 C.2     1  UNL1        0.0040
      9  C          5.8200    1.2090   -0.3550 C.2     1  UNL1        0.0040
     10  C          6.0560   -0.7930    1.4680 C.2     1  UNL1        0.0000
     11  C          5.2820    1.3770    0.8860 C.2     1  UNL1        0.0000
     12  C          5.3960    0.3680    1.8180 C.2     1  UNL1        0.0000
@<TRIPOS>BOND
     1     3     2    2
     2     4     5    1
     3     4     2    1
     4     2     1    1
     5     1     6    1
     6     6     7    1
     7     7     9    2
     8     7     8    1
     9     9    11    1
    10     8    10    2
    11    11    12    2
    12    10    12    1
