@<TRIPOS>MOLECULE
/home/cewinharhar/GITHUB/reincatalyze/data/processed/docking_pred/2023-Apr-25-1630_maxeplen5_maxtrainstep200_exh32_gamma099_lrac3e-4_lrcr1e-3/d27e6afc186b75c76b7fe435f4b9560b42cd14a2_ligand_2.pdbqt
 12 12 0 0 0
SMALL
GASTEIGER

@<TRIPOS>ATOM
      1  C          5.3850    2.9590    0.1490 C.3     1  UNL1        0.1270
      2  C          6.2580    3.9170    0.8680 C.2     1  UNL1        0.3030
      3  O          6.9060    4.7740    0.2490 O.2     1  UNL1       -0.2520
      4  O          6.3510    3.8540    2.2450 O.3     1  UNL1       -0.4810
      5  H          6.6050    4.6590    2.8100 H       1  UNL1        0.2960
      6  C          5.2810    1.6610    0.9100 C.3     1  UNL1        0.0470
      7  C          6.0200    0.5590    0.2650 C.2     1  UNL1       -0.0470
      8  C          6.4600   -0.5630    0.9190 C.2     1  UNL1        0.0040
      9  C          6.2830    0.6700   -1.0800 C.2     1  UNL1        0.0040
     10  C          7.1470   -1.5470    0.2350 C.2     1  UNL1        0.0000
     11  C          6.9600   -0.2900   -1.7730 C.2     1  UNL1        0.0000
     12  C          7.4010   -1.4190   -1.1160 C.2     1  UNL1        0.0000
@<TRIPOS>BOND
     1    11    12    2
     2    11     9    1
     3    12    10    1
     4     9     7    2
     5     1     2    1
     6     1     6    1
     7    10     8    2
     8     3     2    2
     9     7     6    1
    10     7     8    1
    11     2     4    1
    12     4     5    1
