@<TRIPOS>MOLECULE
/home/cewinharhar/GITHUB/reincatalyze/data/processed/docking_pred/2023-Apr-25-1630_maxeplen5_maxtrainstep200_exh32_gamma099_lrac3e-4_lrcr1e-3/d27e6afc186b75c76b7fe435f4b9560b42cd14a2_ligand_2.pdbqt
 12 12 0 0 0
SMALL
GASTEIGER

@<TRIPOS>ATOM
      1  C          8.4130   -0.6360   -2.1520 C.3     1  UNL1        0.1270
      2  C          8.4730   -1.9130   -2.9020 C.2     1  UNL1        0.3030
      3  O          9.5540   -2.4970   -3.0770 O.2     1  UNL1       -0.2520
      4  O          7.3120   -2.4600   -3.4130 O.3     1  UNL1       -0.4810
      5  H          6.3910   -2.1770   -3.0910 H       1  UNL1        0.2960
      6  C          7.0100   -0.0820   -2.1600 C.3     1  UNL1        0.0470
      7  C          6.4620    0.1070   -0.8040 C.2     1  UNL1       -0.0470
      8  C          5.8280    1.2470   -0.3800 C.2     1  UNL1        0.0040
      9  C          6.5990   -0.9290    0.0890 C.2     1  UNL1        0.0040
     10  C          5.3450    1.3390    0.9110 C.2     1  UNL1        0.0000
     11  C          6.1290   -0.8580    1.3680 C.2     1  UNL1        0.0000
     12  C          5.4920    0.2870    1.7940 C.2     1  UNL1        0.0000
@<TRIPOS>BOND
     1     4     5    1
     2     4     2    1
     3     3     2    2
     4     2     1    1
     5     6     1    1
     6     6     7    1
     7     7     8    2
     8     7     9    1
     9     8    10    1
    10     9    11    2
    11    10    12    2
    12    11    12    1
