@<TRIPOS>MOLECULE
/home/cewinharhar/GITHUB/reincatalyze/data/processed/docking_pred/2023-Apr-25-1630_maxeplen5_maxtrainstep200_exh32_gamma099_lrac3e-4_lrcr1e-3/d27e6afc186b75c76b7fe435f4b9560b42cd14a2_ligand_2.pdbqt
 12 12 0 0 0
SMALL
GASTEIGER

@<TRIPOS>ATOM
      1  C          5.0390    1.6690    0.7700 C.3     1  UNL1        0.1270
      2  C          4.5720    0.9420    1.9740 C.2     1  UNL1        0.3030
      3  O          5.2620    0.0440    2.4810 O.2     1  UNL1       -0.2520
      4  O          3.3540    1.2690    2.5390 O.3     1  UNL1       -0.4810
      5  H          2.5490    0.6510    2.4890 H       1  UNL1        0.2960
      6  C          6.5410    1.8100    0.7840 C.3     1  UNL1        0.0470
      7  C          7.1960    1.0650   -0.3080 C.2     1  UNL1       -0.0470
      8  C          8.5170    1.2010   -0.6510 C.2     1  UNL1        0.0040
      9  C          6.4280    0.1790   -1.0250 C.2     1  UNL1        0.0040
     10  C          9.0480    0.4620   -1.6910 C.2     1  UNL1        0.0000
     11  C          6.9330   -0.5590   -2.0550 C.2     1  UNL1        0.0000
     12  C          8.2610   -0.4230   -2.4000 C.2     1  UNL1        0.0000
@<TRIPOS>BOND
     1    12    11    2
     2    12    10    1
     3    11     9    1
     4    10     8    2
     5     9     7    2
     6     8     7    1
     7     7     6    1
     8     1     6    1
     9     1     2    1
    10     2     3    2
    11     2     4    1
    12     5     4    1
