@<TRIPOS>MOLECULE
/home/cewinharhar/GITHUB/reincatalyze/data/processed/docking_pred/2023-Apr-25-1630_maxeplen5_maxtrainstep200_exh32_gamma099_lrac3e-4_lrcr1e-3/d27e6afc186b75c76b7fe435f4b9560b42cd14a2_ligand_2.pdbqt
 12 12 0 0 0
SMALL
GASTEIGER

@<TRIPOS>ATOM
      1  C          8.2850    0.2070   -2.1590 C.3     1  UNL1        0.1270
      2  C          9.4160    0.3490   -1.2120 C.2     1  UNL1        0.3030
      3  O          9.4950   -0.3720   -0.2050 O.2     1  UNL1       -0.2520
      4  O         10.3930    1.2950   -1.4530 O.3     1  UNL1       -0.4810
      5  H         11.3330    1.0440   -1.7470 H       1  UNL1        0.2960
      6  C          7.1670   -0.5900   -1.5350 C.3     1  UNL1        0.0470
      7  C          6.3830    0.1910   -0.5590 C.2     1  UNL1       -0.0470
      8  C          6.1410   -0.2050    0.7310 C.2     1  UNL1        0.0040
      9  C          5.8620    1.3930   -0.9770 C.2     1  UNL1        0.0040
     10  C          5.3940    0.5910    1.5780 C.2     1  UNL1        0.0000
     11  C          5.1210    2.1930   -0.1570 C.2     1  UNL1        0.0000
     12  C          4.8790    1.7950    1.1410 C.2     1  UNL1        0.0000
@<TRIPOS>BOND
     1     1     6    1
     2     1     2    1
     3     5     4    1
     4     6     7    1
     5     4     2    1
     6     2     3    2
     7     9     7    2
     8     9    11    1
     9     7     8    1
    10    11    12    2
    11     8    10    2
    12    12    10    1
