MODEL 1
REMARK VINA RESULT:      -7.3      0.000      0.000
REMARK SMILES O=C(O)CCc1ccccc1
REMARK SMILES IDX 4 1 2 2 1 3 3 4 5 6 6 7 7 8 11 9 8 10 10 11 9 12
REMARK H PARENT 3 5
REMARK Flexibility Score: inf
ROOT
ATOM      1  C   UNL     1       8.440  -0.624  -2.203  1.00  0.00     0.127 C 
ENDROOT
BRANCH   1   2
ATOM      2  C   UNL     1       8.486  -1.919  -2.923  1.00  0.00     0.303 C 
ATOM      3  O   UNL     1       9.560  -2.520  -3.081  1.00  0.00    -0.252 OA
BRANCH   2   4
ATOM      4  O   UNL     1       7.319  -2.462  -3.424  1.00  0.00    -0.481 OA
ATOM      5  H   UNL     1       6.685  -1.934  -4.017  1.00  0.00     0.296 HD
ENDBRANCH   2   4
ENDBRANCH   1   2
BRANCH   1   6
ATOM      6  C   UNL     1       7.032  -0.087  -2.167  1.00  0.00     0.047 C 
BRANCH   6   7
ATOM      7  C   UNL     1       6.498   0.031  -0.797  1.00  0.00    -0.047 A 
ATOM      8  C   UNL     1       6.601  -0.947   0.159  1.00  0.00     0.004 A 
ATOM      9  C   UNL     1       5.855   1.199  -0.462  1.00  0.00     0.004 A 
ATOM     10  C   UNL     1       6.070  -0.751   1.419  1.00  0.00     0.000 A 
ATOM     11  C   UNL     1       5.324   1.412   0.776  1.00  0.00     0.000 A 
ATOM     12  C   UNL     1       5.428   0.429   1.737  1.00  0.00     0.000 A 
ENDBRANCH   6   7
ENDBRANCH   1   6
TORSDOF 4
ENDMDL
MODEL 2
REMARK VINA RESULT:      -7.3      0.106      1.429
REMARK SMILES O=C(O)CCc1ccccc1
REMARK SMILES IDX 4 1 2 2 1 3 3 4 5 6 6 7 7 8 11 9 8 10 10 11 9 12
REMARK H PARENT 3 5
REMARK Flexibility Score: inf
ROOT
ATOM      1  C   UNL     1       8.406  -0.685  -2.074  1.00  0.00     0.127 C 
ENDROOT
BRANCH   1   2
ATOM      2  C   UNL     1       8.456  -1.924  -2.885  1.00  0.00     0.303 C 
ATOM      3  O   UNL     1       9.532  -2.506  -3.090  1.00  0.00    -0.252 OA
BRANCH   2   4
ATOM      4  O   UNL     1       7.290  -2.437  -3.419  1.00  0.00    -0.481 OA
ATOM      5  H   UNL     1       6.412  -2.438  -2.908  1.00  0.00     0.296 HD
ENDBRANCH   2   4
ENDBRANCH   1   2
BRANCH   1   6
ATOM      6  C   UNL     1       7.022  -0.086  -2.105  1.00  0.00     0.047 C 
BRANCH   6   7
ATOM      7  C   UNL     1       6.452   0.108  -0.758  1.00  0.00    -0.047 A 
ATOM      8  C   UNL     1       5.808   1.247  -0.349  1.00  0.00     0.004 A 
ATOM      9  C   UNL     1       6.579  -0.923   0.142  1.00  0.00     0.004 A 
ATOM     10  C   UNL     1       5.305   1.343   0.934  1.00  0.00     0.000 A 
ATOM     11  C   UNL     1       6.090  -0.848   1.413  1.00  0.00     0.000 A 
ATOM     12  C   UNL     1       5.442   0.297   1.824  1.00  0.00     0.000 A 
ENDBRANCH   6   7
ENDBRANCH   1   6
TORSDOF 4
ENDMDL
MODEL 3
REMARK VINA RESULT:      -7.1      0.636      1.496
REMARK SMILES O=C(O)CCc1ccccc1
REMARK SMILES IDX 4 1 2 2 1 3 3 4 5 6 6 7 7 8 11 9 8 10 10 11 9 12
REMARK H PARENT 3 5
REMARK Flexibility Score: inf
ROOT
ATOM      1  C   UNL     1       8.225  -0.948  -1.824  1.00  0.00     0.127 C 
ENDROOT
BRANCH   1   2
ATOM      2  C   UNL     1       8.286  -1.997  -2.868  1.00  0.00     0.303 C 
ATOM      3  O   UNL     1       7.249  -2.443  -3.382  1.00  0.00    -0.252 OA
BRANCH   2   4
ATOM      4  O   UNL     1       9.513  -2.487  -3.273  1.00  0.00    -0.481 OA
ATOM      5  H   UNL     1       9.659  -2.893  -4.193  1.00  0.00     0.296 HD
ENDBRANCH   2   4
ENDBRANCH   1   2
BRANCH   1   6
ATOM      6  C   UNL     1       7.425  -1.425  -0.638  1.00  0.00     0.047 C 
BRANCH   6   7
ATOM      7  C   UNL     1       6.582  -0.365  -0.052  1.00  0.00    -0.047 A 
ATOM      8  C   UNL     1       6.085  -0.392   1.226  1.00  0.00     0.004 A 
ATOM      9  C   UNL     1       6.277   0.716  -0.843  1.00  0.00     0.004 A 
ATOM     10  C   UNL     1       5.301   0.645   1.693  1.00  0.00     0.000 A 
ATOM     11  C   UNL     1       5.504   1.750  -0.401  1.00  0.00     0.000 A 
ATOM     12  C   UNL     1       5.006   1.724   0.884  1.00  0.00     0.000 A 
ENDBRANCH   6   7
ENDBRANCH   1   6
TORSDOF 4
ENDMDL
MODEL 4
REMARK VINA RESULT:      -6.8      3.380      5.069
REMARK SMILES O=C(O)CCc1ccccc1
REMARK SMILES IDX 4 1 2 2 1 3 3 4 5 6 6 7 7 8 11 9 8 10 10 11 9 12
REMARK H PARENT 3 5
REMARK Flexibility Score: inf
ROOT
ATOM      1  C   UNL     1       5.001   1.772   0.722  1.00  0.00     0.127 C 
ENDROOT
BRANCH   1   2
ATOM      2  C   UNL     1       4.481   1.095   1.933  1.00  0.00     0.303 C 
ATOM      3  O   UNL     1       5.132   0.196   2.487  1.00  0.00    -0.252 OA
BRANCH   2   4
ATOM      4  O   UNL     1       3.256   1.469   2.451  1.00  0.00    -0.481 OA
ATOM      5  H   UNL     1       2.912   2.423   2.398  1.00  0.00     0.296 HD
ENDBRANCH   2   4
ENDBRANCH   1   2
BRANCH   1   6
ATOM      6  C   UNL     1       6.509   1.798   0.735  1.00  0.00     0.047 C 
BRANCH   6   7
ATOM      7  C   UNL     1       7.106   1.001  -0.353  1.00  0.00    -0.047 A 
ATOM      8  C   UNL     1       6.427   0.056  -1.080  1.00  0.00     0.004 A 
ATOM      9  C   UNL     1       8.429   1.222  -0.653  1.00  0.00     0.004 A 
ATOM     10  C   UNL     1       7.067  -0.646  -2.083  1.00  0.00     0.000 A 
ATOM     11  C   UNL     1       9.078   0.539  -1.639  1.00  0.00     0.000 A 
ATOM     12  C   UNL     1       8.396  -0.410  -2.370  1.00  0.00     0.000 A 
ENDBRANCH   6   7
ENDBRANCH   1   6
TORSDOF 4
ENDMDL
MODEL 5
REMARK VINA RESULT:      -6.7      3.844      5.000
REMARK SMILES O=C(O)CCc1ccccc1
REMARK SMILES IDX 4 1 2 2 1 3 3 4 5 6 6 7 7 8 11 9 8 10 10 11 9 12
REMARK H PARENT 3 5
REMARK Flexibility Score: inf
ROOT
ATOM      1  C   UNL     1       5.435   2.910   0.029  1.00  0.00     0.127 C 
ENDROOT
BRANCH   1   2
ATOM      2  C   UNL     1       6.254   3.864   0.814  1.00  0.00     0.303 C 
ATOM      3  O   UNL     1       6.887   4.771   0.251  1.00  0.00    -0.252 OA
BRANCH   2   4
ATOM      4  O   UNL     1       6.315   3.740   2.188  1.00  0.00    -0.481 OA
ATOM      5  H   UNL     1       5.780   4.339   2.812  1.00  0.00     0.296 HD
ENDBRANCH   2   4
ENDBRANCH   1   2
BRANCH   1   6
ATOM      6  C   UNL     1       4.889   1.822   0.919  1.00  0.00     0.047 C 
BRANCH   6   7
ATOM      7  C   UNL     1       5.717   0.601   0.905  1.00  0.00    -0.047 A 
ATOM      8  C   UNL     1       6.454   0.181  -0.172  1.00  0.00     0.004 A 
ATOM      9  C   UNL     1       5.746  -0.162   2.048  1.00  0.00     0.004 A 
ATOM     10  C   UNL     1       7.201  -0.979  -0.098  1.00  0.00     0.000 A 
ATOM     11  C   UNL     1       6.477  -1.310   2.141  1.00  0.00     0.000 A 
ATOM     12  C   UNL     1       7.219  -1.732   1.059  1.00  0.00     0.000 A 
ENDBRANCH   6   7
ENDBRANCH   1   6
TORSDOF 4
ENDMDL
