@<TRIPOS>MOLECULE
/home/cewinharhar/GITHUB/reincatalyze/data/processed/docking_pred/2023-Apr-25-1630_maxeplen5_maxtrainstep200_exh32_gamma099_lrac3e-4_lrcr1e-3/d29de17412cd01c0ee6022e9d720ef028927a1a9_ligand_2.pdbqt
 12 12 0 0 0
SMALL
GASTEIGER

@<TRIPOS>ATOM
      1  C          8.4400   -0.6240   -2.2030 C.3     1  UNL1        0.1270
      2  C          8.4860   -1.9190   -2.9230 C.2     1  UNL1        0.3030
      3  O          9.5600   -2.5200   -3.0810 O.2     1  UNL1       -0.2520
      4  O          7.3190   -2.4620   -3.4240 O.3     1  UNL1       -0.4810
      5  H          6.6850   -1.9340   -4.0170 H       1  UNL1        0.2960
      6  C          7.0320   -0.0870   -2.1670 C.3     1  UNL1        0.0470
      7  C          6.4980    0.0310   -0.7970 C.2     1  UNL1       -0.0470
      8  C          6.6010   -0.9470    0.1590 C.2     1  UNL1        0.0040
      9  C          5.8550    1.1990   -0.4620 C.2     1  UNL1        0.0040
     10  C          6.0700   -0.7510    1.4190 C.2     1  UNL1        0.0000
     11  C          5.3240    1.4120    0.7760 C.2     1  UNL1        0.0000
     12  C          5.4280    0.4290    1.7370 C.2     1  UNL1        0.0000
@<TRIPOS>BOND
     1     5     4    1
     2     4     2    1
     3     3     2    2
     4     2     1    1
     5     1     6    1
     6     6     7    1
     7     7     9    2
     8     7     8    1
     9     9    11    1
    10     8    10    2
    11    11    12    2
    12    10    12    1
