@<TRIPOS>MOLECULE
/home/cewinharhar/GITHUB/reincatalyze/data/processed/docking_pred/2023-Apr-25-1630_maxeplen5_maxtrainstep200_exh32_gamma099_lrac3e-4_lrcr1e-3/d29de17412cd01c0ee6022e9d720ef028927a1a9_ligand_2.pdbqt
 12 12 0 0 0
SMALL
GASTEIGER

@<TRIPOS>ATOM
      1  C          5.0010    1.7720    0.7220 C.3     1  UNL1        0.1270
      2  C          4.4810    1.0950    1.9330 C.2     1  UNL1        0.3030
      3  O          5.1320    0.1960    2.4870 O.2     1  UNL1       -0.2520
      4  O          3.2560    1.4690    2.4510 O.3     1  UNL1       -0.4810
      5  H          2.9120    2.4230    2.3980 H       1  UNL1        0.2960
      6  C          6.5090    1.7980    0.7350 C.3     1  UNL1        0.0470
      7  C          7.1060    1.0010   -0.3530 C.2     1  UNL1       -0.0470
      8  C          6.4270    0.0560   -1.0800 C.2     1  UNL1        0.0040
      9  C          8.4290    1.2220   -0.6530 C.2     1  UNL1        0.0040
     10  C          7.0670   -0.6460   -2.0830 C.2     1  UNL1        0.0000
     11  C          9.0780    0.5390   -1.6390 C.2     1  UNL1        0.0000
     12  C          8.3960   -0.4100   -2.3700 C.2     1  UNL1        0.0000
@<TRIPOS>BOND
     1    12    10    2
     2    12    11    1
     3    10     8    1
     4    11     9    2
     5     8     7    2
     6     9     7    1
     7     7     6    1
     8     1     6    1
     9     1     2    1
    10     2     4    1
    11     2     3    2
    12     5     4    1
