@<TRIPOS>MOLECULE
/home/cewinharhar/GITHUB/reincatalyze/data/processed/docking_pred/2023-Apr-25-1630_maxeplen5_maxtrainstep200_exh32_gamma099_lrac3e-4_lrcr1e-3/d29de17412cd01c0ee6022e9d720ef028927a1a9_ligand_2.pdbqt
 12 12 0 0 0
SMALL
GASTEIGER

@<TRIPOS>ATOM
      1  C          8.4060   -0.6850   -2.0740 C.3     1  UNL1        0.1270
      2  C          8.4560   -1.9240   -2.8850 C.2     1  UNL1        0.3030
      3  O          9.5320   -2.5060   -3.0900 O.2     1  UNL1       -0.2520
      4  O          7.2900   -2.4370   -3.4190 O.3     1  UNL1       -0.4810
      5  H          6.4120   -2.4380   -2.9080 H       1  UNL1        0.2960
      6  C          7.0220   -0.0860   -2.1050 C.3     1  UNL1        0.0470
      7  C          6.4520    0.1080   -0.7580 C.2     1  UNL1       -0.0470
      8  C          5.8080    1.2470   -0.3490 C.2     1  UNL1        0.0040
      9  C          6.5790   -0.9230    0.1420 C.2     1  UNL1        0.0040
     10  C          5.3050    1.3430    0.9340 C.2     1  UNL1        0.0000
     11  C          6.0900   -0.8480    1.4130 C.2     1  UNL1        0.0000
     12  C          5.4420    0.2970    1.8240 C.2     1  UNL1        0.0000
@<TRIPOS>BOND
     1     4     5    1
     2     4     2    1
     3     3     2    2
     4     2     1    1
     5     6     1    1
     6     6     7    1
     7     7     8    2
     8     7     9    1
     9     8    10    1
    10     9    11    2
    11    10    12    2
    12    11    12    1
