@<TRIPOS>MOLECULE
/home/cewinharhar/GITHUB/reincatalyze/data/processed/docking_pred/2023-Apr-25-1630_maxeplen5_maxtrainstep200_exh32_gamma099_lrac3e-4_lrcr1e-3/d29de17412cd01c0ee6022e9d720ef028927a1a9_ligand_2.pdbqt
 12 12 0 0 0
SMALL
GASTEIGER

@<TRIPOS>ATOM
      1  C          8.2250   -0.9480   -1.8240 C.3     1  UNL1        0.1270
      2  C          8.2860   -1.9970   -2.8680 C.2     1  UNL1        0.3030
      3  O          7.2490   -2.4430   -3.3820 O.2     1  UNL1       -0.2520
      4  O          9.5130   -2.4870   -3.2730 O.3     1  UNL1       -0.4810
      5  H          9.6590   -2.8930   -4.1930 H       1  UNL1        0.2960
      6  C          7.4250   -1.4250   -0.6380 C.3     1  UNL1        0.0470
      7  C          6.5820   -0.3650   -0.0520 C.2     1  UNL1       -0.0470
      8  C          6.0850   -0.3920    1.2260 C.2     1  UNL1        0.0040
      9  C          6.2770    0.7160   -0.8430 C.2     1  UNL1        0.0040
     10  C          5.3010    0.6450    1.6930 C.2     1  UNL1        0.0000
     11  C          5.5040    1.7500   -0.4010 C.2     1  UNL1        0.0000
     12  C          5.0060    1.7240    0.8840 C.2     1  UNL1        0.0000
@<TRIPOS>BOND
     1     5     4    1
     2     3     2    2
     3     4     2    1
     4     2     1    1
     5     1     6    1
     6     9    11    1
     7     9     7    2
     8     6     7    1
     9    11    12    2
    10     7     8    1
    11    12    10    1
    12     8    10    2
