@<TRIPOS>MOLECULE
/home/cewinharhar/GITHUB/reincatalyze/data/processed/docking_pred/2023-Apr-25-1630_maxeplen5_maxtrainstep200_exh32_gamma099_lrac3e-4_lrcr1e-3/d29de17412cd01c0ee6022e9d720ef028927a1a9_ligand_2.pdbqt
 12 12 0 0 0
SMALL
GASTEIGER

@<TRIPOS>ATOM
      1  C          5.4350    2.9100    0.0290 C.3     1  UNL1        0.1270
      2  C          6.2540    3.8640    0.8140 C.2     1  UNL1        0.3030
      3  O          6.8870    4.7710    0.2510 O.2     1  UNL1       -0.2520
      4  O          6.3150    3.7400    2.1880 O.3     1  UNL1       -0.4810
      5  H          5.7800    4.3390    2.8120 H       1  UNL1        0.2960
      6  C          4.8890    1.8220    0.9190 C.3     1  UNL1        0.0470
      7  C          5.7170    0.6010    0.9050 C.2     1  UNL1       -0.0470
      8  C          6.4540    0.1810   -0.1720 C.2     1  UNL1        0.0040
      9  C          5.7460   -0.1620    2.0480 C.2     1  UNL1        0.0040
     10  C          7.2010   -0.9790   -0.0980 C.2     1  UNL1        0.0000
     11  C          6.4770   -1.3100    2.1410 C.2     1  UNL1        0.0000
     12  C          7.2190   -1.7320    1.0590 C.2     1  UNL1        0.0000
@<TRIPOS>BOND
     1     8    10    1
     2     8     7    2
     3    10    12    2
     4     1     2    1
     5     1     6    1
     6     3     2    2
     7     2     4    1
     8     7     6    1
     9     7     9    1
    10    12    11    1
    11     9    11    2
    12     4     5    1
