@<TRIPOS>MOLECULE
/home/cewinharhar/GITHUB/reincatalyze/data/processed/docking_pred/2023-Apr-25-1630_maxeplen5_maxtrainstep200_exh32_gamma099_lrac3e-4_lrcr1e-3/d32515ef85c53a65d829162c3cbbbf13c46f52f9_ligand_2.pdbqt
 12 12 0 0 0
SMALL
GASTEIGER

@<TRIPOS>ATOM
      1  C          8.3160   -0.9550   -1.8580 C.3     1  UNL1        0.1270
      2  C          8.4310   -2.0520   -2.8480 C.2     1  UNL1        0.3030
      3  O          9.5290   -2.5760   -3.0910 O.2     1  UNL1       -0.2520
      4  O          7.3010   -2.4960   -3.5090 O.3     1  UNL1       -0.4810
      5  H          6.5130   -1.8860   -3.7070 H       1  UNL1        0.2960
      6  C          7.4960   -1.3960   -0.6710 C.3     1  UNL1        0.0470
      7  C          6.6280   -0.3250   -0.1450 C.2     1  UNL1       -0.0470
      8  C          6.2610    0.7900   -0.8550 C.2     1  UNL1        0.0040
      9  C          6.1620   -0.4560    1.1410 C.2     1  UNL1        0.0040
     10  C          5.4440    1.7450   -0.2820 C.2     1  UNL1        0.0000
     11  C          5.3560    0.4760    1.7250 C.2     1  UNL1        0.0000
     12  C          4.9850    1.5960    1.0110 C.2     1  UNL1        0.0000
@<TRIPOS>BOND
     1     5     4    1
     2     4     2    1
     3     3     2    2
     4     2     1    1
     5     1     6    1
     6     8    10    1
     7     8     7    2
     8     6     7    1
     9    10    12    2
    10     7     9    1
    11    12    11    1
    12     9    11    2
