@<TRIPOS>MOLECULE
/home/cewinharhar/GITHUB/reincatalyze/data/processed/docking_pred/2023-Apr-25-1630_maxeplen5_maxtrainstep200_exh32_gamma099_lrac3e-4_lrcr1e-3/d32515ef85c53a65d829162c3cbbbf13c46f52f9_ligand_2.pdbqt
 12 12 0 0 0
SMALL
GASTEIGER

@<TRIPOS>ATOM
      1  C          8.4230   -0.6080   -2.2120 C.3     1  UNL1        0.1270
      2  C          8.4810   -1.9090   -2.9190 C.2     1  UNL1        0.3030
      3  O          9.5570   -2.5120   -3.0520 O.2     1  UNL1       -0.2520
      4  O          7.3230   -2.4570   -3.4360 O.3     1  UNL1       -0.4810
      5  H          6.5320   -2.7100   -2.8500 H       1  UNL1        0.2960
      6  C          7.0070   -0.0900   -2.1700 C.3     1  UNL1        0.0470
      7  C          6.4840    0.0350   -0.7960 C.2     1  UNL1       -0.0470
      8  C          6.5970   -0.9370    0.1650 C.2     1  UNL1        0.0040
      9  C          5.8400    1.2030   -0.4630 C.2     1  UNL1        0.0040
     10  C          6.0750   -0.7350    1.4280 C.2     1  UNL1        0.0000
     11  C          5.3180    1.4220    0.7780 C.2     1  UNL1        0.0000
     12  C          5.4330    0.4450    1.7440 C.2     1  UNL1        0.0000
@<TRIPOS>BOND
     1     4     2    1
     2     4     5    1
     3     3     2    2
     4     2     1    1
     5     1     6    1
     6     6     7    1
     7     7     9    2
     8     7     8    1
     9     9    11    1
    10     8    10    2
    11    11    12    2
    12    10    12    1
