@<TRIPOS>MOLECULE
/home/cewinharhar/GITHUB/reincatalyze/data/processed/docking_pred/2023-Apr-25-1630_maxeplen5_maxtrainstep200_exh32_gamma099_lrac3e-4_lrcr1e-3/d32515ef85c53a65d829162c3cbbbf13c46f52f9_ligand_2.pdbqt
 12 12 0 0 0
SMALL
GASTEIGER

@<TRIPOS>ATOM
      1  C          5.0370    1.7310    0.7190 C.3     1  UNL1        0.1270
      2  C          4.5880    1.0270    1.9430 C.2     1  UNL1        0.3030
      3  O          5.3080    0.1740    2.4860 O.2     1  UNL1       -0.2520
      4  O          3.3530    1.3230    2.4860 O.3     1  UNL1       -0.4810
      5  H          2.9680    2.2630    2.4800 H       1  UNL1        0.2960
      6  C          6.5380    1.8870    0.7170 C.3     1  UNL1        0.0470
      7  C          7.1930    1.1090   -0.3510 C.2     1  UNL1       -0.0470
      8  C          8.5250    1.1980   -0.6640 C.2     1  UNL1        0.0040
      9  C          6.4130    0.2420   -1.0780 C.2     1  UNL1        0.0040
     10  C          9.0560    0.4310   -1.6840 C.2     1  UNL1        0.0000
     11  C          6.9170   -0.5230   -2.0880 C.2     1  UNL1        0.0000
     12  C          8.2560   -0.4350   -2.4030 C.2     1  UNL1        0.0000
@<TRIPOS>BOND
     1    12    11    2
     2    12    10    1
     3    11     9    1
     4    10     8    2
     5     9     7    2
     6     8     7    1
     7     7     6    1
     8     6     1    1
     9     1     2    1
    10     2     3    2
    11     2     4    1
    12     5     4    1
