MODEL 1
REMARK VINA RESULT:      -7.4      0.000      0.000
REMARK SMILES O=C(O)CCc1ccccc1
REMARK SMILES IDX 4 1 2 2 1 3 3 4 5 6 6 7 7 8 11 9 8 10 10 11 9 12
REMARK H PARENT 3 5
REMARK Flexibility Score: inf
ROOT
ATOM      1  C   UNL     1       8.423  -0.608  -2.212  1.00  0.00     0.127 C 
ENDROOT
BRANCH   1   2
ATOM      2  C   UNL     1       8.481  -1.909  -2.919  1.00  0.00     0.303 C 
ATOM      3  O   UNL     1       9.557  -2.512  -3.052  1.00  0.00    -0.252 OA
BRANCH   2   4
ATOM      4  O   UNL     1       7.323  -2.457  -3.436  1.00  0.00    -0.481 OA
ATOM      5  H   UNL     1       6.532  -2.710  -2.850  1.00  0.00     0.296 HD
ENDBRANCH   2   4
ENDBRANCH   1   2
BRANCH   1   6
ATOM      6  C   UNL     1       7.007  -0.090  -2.170  1.00  0.00     0.047 C 
BRANCH   6   7
ATOM      7  C   UNL     1       6.484   0.035  -0.796  1.00  0.00    -0.047 A 
ATOM      8  C   UNL     1       6.597  -0.937   0.165  1.00  0.00     0.004 A 
ATOM      9  C   UNL     1       5.840   1.203  -0.463  1.00  0.00     0.004 A 
ATOM     10  C   UNL     1       6.075  -0.735   1.428  1.00  0.00     0.000 A 
ATOM     11  C   UNL     1       5.318   1.422   0.778  1.00  0.00     0.000 A 
ATOM     12  C   UNL     1       5.433   0.445   1.744  1.00  0.00     0.000 A 
ENDBRANCH   6   7
ENDBRANCH   1   6
TORSDOF 4
ENDMDL
MODEL 2
REMARK VINA RESULT:      -7.3      0.152      1.725
REMARK SMILES O=C(O)CCc1ccccc1
REMARK SMILES IDX 4 1 2 2 1 3 3 4 5 6 6 7 7 8 11 9 8 10 10 11 9 12
REMARK H PARENT 3 5
REMARK Flexibility Score: inf
ROOT
ATOM      1  C   UNL     1       8.399  -0.707  -2.037  1.00  0.00     0.127 C 
ENDROOT
BRANCH   1   2
ATOM      2  C   UNL     1       8.370  -1.929  -2.875  1.00  0.00     0.303 C 
ATOM      3  O   UNL     1       7.292  -2.418  -3.247  1.00  0.00    -0.252 OA
BRANCH   2   4
ATOM      4  O   UNL     1       9.557  -2.530  -3.248  1.00  0.00    -0.481 OA
ATOM      5  H   UNL     1       9.880  -3.398  -2.830  1.00  0.00     0.296 HD
ENDBRANCH   2   4
ENDBRANCH   1   2
BRANCH   1   6
ATOM      6  C   UNL     1       7.069   0.002  -2.086  1.00  0.00     0.047 C 
BRANCH   6   7
ATOM      7  C   UNL     1       6.463   0.177  -0.752  1.00  0.00    -0.047 A 
ATOM      8  C   UNL     1       5.780   1.297  -0.355  1.00  0.00     0.004 A 
ATOM      9  C   UNL     1       6.597  -0.854   0.149  1.00  0.00     0.004 A 
ATOM     10  C   UNL     1       5.246   1.376   0.917  1.00  0.00     0.000 A 
ATOM     11  C   UNL     1       6.078  -0.795   1.408  1.00  0.00     0.000 A 
ATOM     12  C   UNL     1       5.390   0.331   1.808  1.00  0.00     0.000 A 
ENDBRANCH   6   7
ENDBRANCH   1   6
TORSDOF 4
ENDMDL
MODEL 3
REMARK VINA RESULT:      -7.2      0.658      1.594
REMARK SMILES O=C(O)CCc1ccccc1
REMARK SMILES IDX 4 1 2 2 1 3 3 4 5 6 6 7 7 8 11 9 8 10 10 11 9 12
REMARK H PARENT 3 5
REMARK Flexibility Score: inf
ROOT
ATOM      1  C   UNL     1       8.316  -0.955  -1.858  1.00  0.00     0.127 C 
ENDROOT
BRANCH   1   2
ATOM      2  C   UNL     1       8.431  -2.052  -2.848  1.00  0.00     0.303 C 
ATOM      3  O   UNL     1       9.529  -2.576  -3.091  1.00  0.00    -0.252 OA
BRANCH   2   4
ATOM      4  O   UNL     1       7.301  -2.496  -3.509  1.00  0.00    -0.481 OA
ATOM      5  H   UNL     1       6.513  -1.886  -3.707  1.00  0.00     0.296 HD
ENDBRANCH   2   4
ENDBRANCH   1   2
BRANCH   1   6
ATOM      6  C   UNL     1       7.496  -1.396  -0.671  1.00  0.00     0.047 C 
BRANCH   6   7
ATOM      7  C   UNL     1       6.628  -0.325  -0.145  1.00  0.00    -0.047 A 
ATOM      8  C   UNL     1       6.261   0.790  -0.855  1.00  0.00     0.004 A 
ATOM      9  C   UNL     1       6.162  -0.456   1.141  1.00  0.00     0.004 A 
ATOM     10  C   UNL     1       5.444   1.745  -0.282  1.00  0.00     0.000 A 
ATOM     11  C   UNL     1       5.356   0.476   1.725  1.00  0.00     0.000 A 
ATOM     12  C   UNL     1       4.985   1.596   1.011  1.00  0.00     0.000 A 
ENDBRANCH   6   7
ENDBRANCH   1   6
TORSDOF 4
ENDMDL
MODEL 4
REMARK VINA RESULT:      -6.8      3.354      5.039
REMARK SMILES O=C(O)CCc1ccccc1
REMARK SMILES IDX 4 1 2 2 1 3 3 4 5 6 6 7 7 8 11 9 8 10 10 11 9 12
REMARK H PARENT 3 5
REMARK Flexibility Score: inf
ROOT
ATOM      1  C   UNL     1       5.037   1.731   0.719  1.00  0.00     0.127 C 
ENDROOT
BRANCH   1   2
ATOM      2  C   UNL     1       4.588   1.027   1.943  1.00  0.00     0.303 C 
ATOM      3  O   UNL     1       5.308   0.174   2.486  1.00  0.00    -0.252 OA
BRANCH   2   4
ATOM      4  O   UNL     1       3.353   1.323   2.486  1.00  0.00    -0.481 OA
ATOM      5  H   UNL     1       2.968   2.263   2.480  1.00  0.00     0.296 HD
ENDBRANCH   2   4
ENDBRANCH   1   2
BRANCH   1   6
ATOM      6  C   UNL     1       6.538   1.887   0.717  1.00  0.00     0.047 C 
BRANCH   6   7
ATOM      7  C   UNL     1       7.193   1.109  -0.351  1.00  0.00    -0.047 A 
ATOM      8  C   UNL     1       8.525   1.198  -0.664  1.00  0.00     0.004 A 
ATOM      9  C   UNL     1       6.413   0.242  -1.078  1.00  0.00     0.004 A 
ATOM     10  C   UNL     1       9.056   0.431  -1.684  1.00  0.00     0.000 A 
ATOM     11  C   UNL     1       6.917  -0.523  -2.088  1.00  0.00     0.000 A 
ATOM     12  C   UNL     1       8.256  -0.435  -2.403  1.00  0.00     0.000 A 
ENDBRANCH   6   7
ENDBRANCH   1   6
TORSDOF 4
ENDMDL
MODEL 5
REMARK VINA RESULT:      -6.7      3.830      4.998
REMARK SMILES O=C(O)CCc1ccccc1
REMARK SMILES IDX 4 1 2 2 1 3 3 4 5 6 6 7 7 8 11 9 8 10 10 11 9 12
REMARK H PARENT 3 5
REMARK Flexibility Score: inf
ROOT
ATOM      1  C   UNL     1       5.537   2.902   0.000  1.00  0.00     0.127 C 
ENDROOT
BRANCH   1   2
ATOM      2  C   UNL     1       6.284   3.910   0.790  1.00  0.00     0.303 C 
ATOM      3  O   UNL     1       6.973   4.775   0.227  1.00  0.00    -0.252 OA
BRANCH   2   4
ATOM      4  O   UNL     1       6.212   3.886   2.169  1.00  0.00    -0.481 OA
ATOM      5  H   UNL     1       5.988   4.713   2.716  1.00  0.00     0.296 HD
ENDBRANCH   2   4
ENDBRANCH   1   2
BRANCH   1   6
ATOM      6  C   UNL     1       4.961   1.841   0.904  1.00  0.00     0.047 C 
BRANCH   6   7
ATOM      7  C   UNL     1       5.747   0.592   0.894  1.00  0.00    -0.047 A 
ATOM      8  C   UNL     1       6.435   0.122  -0.194  1.00  0.00     0.004 A 
ATOM      9  C   UNL     1       5.787  -0.144   2.054  1.00  0.00     0.004 A 
ATOM     10  C   UNL     1       7.146  -1.060  -0.114  1.00  0.00     0.000 A 
ATOM     11  C   UNL     1       6.481  -1.314   2.154  1.00  0.00     0.000 A 
ATOM     12  C   UNL     1       7.174  -1.787   1.060  1.00  0.00     0.000 A 
ENDBRANCH   6   7
ENDBRANCH   1   6
TORSDOF 4
ENDMDL
