@<TRIPOS>MOLECULE
/home/cewinharhar/GITHUB/reincatalyze/data/processed/docking_pred/2023-Apr-25-1630_maxeplen5_maxtrainstep200_exh32_gamma099_lrac3e-4_lrcr1e-3/d32515ef85c53a65d829162c3cbbbf13c46f52f9_ligand_2.pdbqt
 12 12 0 0 0
SMALL
GASTEIGER

@<TRIPOS>ATOM
      1  C          8.3990   -0.7070   -2.0370 C.3     1  UNL1        0.1270
      2  C          8.3700   -1.9290   -2.8750 C.2     1  UNL1        0.3030
      3  O          7.2920   -2.4180   -3.2470 O.2     1  UNL1       -0.2520
      4  O          9.5570   -2.5300   -3.2480 O.3     1  UNL1       -0.4810
      5  H          9.8800   -3.3980   -2.8300 H       1  UNL1        0.2960
      6  C          7.0690    0.0020   -2.0860 C.3     1  UNL1        0.0470
      7  C          6.4630    0.1770   -0.7520 C.2     1  UNL1       -0.0470
      8  C          5.7800    1.2970   -0.3550 C.2     1  UNL1        0.0040
      9  C          6.5970   -0.8540    0.1490 C.2     1  UNL1        0.0040
     10  C          5.2460    1.3760    0.9170 C.2     1  UNL1        0.0000
     11  C          6.0780   -0.7950    1.4080 C.2     1  UNL1        0.0000
     12  C          5.3900    0.3310    1.8080 C.2     1  UNL1        0.0000
@<TRIPOS>BOND
     1     4     2    1
     2     4     5    1
     3     3     2    2
     4     2     1    1
     5     6     1    1
     6     6     7    1
     7     7     8    2
     8     7     9    1
     9     8    10    1
    10     9    11    2
    11    10    12    2
    12    11    12    1
