@<TRIPOS>MOLECULE
/home/cewinharhar/GITHUB/reincatalyze/data/processed/docking_pred/2023-Apr-25-1630_maxeplen5_maxtrainstep200_exh32_gamma099_lrac3e-4_lrcr1e-3/d32515ef85c53a65d829162c3cbbbf13c46f52f9_ligand_2.pdbqt
 12 12 0 0 0
SMALL
GASTEIGER

@<TRIPOS>ATOM
      1  C          5.5370    2.9020    0.0000 C.3     1  UNL1        0.1270
      2  C          6.2840    3.9100    0.7900 C.2     1  UNL1        0.3030
      3  O          6.9730    4.7750    0.2270 O.2     1  UNL1       -0.2520
      4  O          6.2120    3.8860    2.1690 O.3     1  UNL1       -0.4810
      5  H          5.9880    4.7130    2.7160 H       1  UNL1        0.2960
      6  C          4.9610    1.8410    0.9040 C.3     1  UNL1        0.0470
      7  C          5.7470    0.5920    0.8940 C.2     1  UNL1       -0.0470
      8  C          6.4350    0.1220   -0.1940 C.2     1  UNL1        0.0040
      9  C          5.7870   -0.1440    2.0540 C.2     1  UNL1        0.0040
     10  C          7.1460   -1.0600   -0.1140 C.2     1  UNL1        0.0000
     11  C          6.4810   -1.3140    2.1540 C.2     1  UNL1        0.0000
     12  C          7.1740   -1.7870    1.0600 C.2     1  UNL1        0.0000
@<TRIPOS>BOND
     1     8    10    1
     2     8     7    2
     3    10    12    2
     4     1     2    1
     5     1     6    1
     6     3     2    2
     7     2     4    1
     8     7     6    1
     9     7     9    1
    10    12    11    1
    11     9    11    2
    12     4     5    1
