@<TRIPOS>MOLECULE
/home/cewinharhar/GITHUB/reincatalyze/data/processed/docking_pred/2023-Apr-25-1630_maxeplen5_maxtrainstep200_exh32_gamma099_lrac3e-4_lrcr1e-3/d4292dbdc665c4d20b6271b363b9823f318ec372_ligand_2.pdbqt
 12 12 0 0 0
SMALL
GASTEIGER

@<TRIPOS>ATOM
      1  C          8.2760   -0.9600   -1.8180 C.3     1  UNL1        0.1270
      2  C          8.3010   -2.0180   -2.8560 C.2     1  UNL1        0.3030
      3  O          7.2490   -2.4310   -3.3680 O.2     1  UNL1       -0.2520
      4  O          9.5110   -2.5500   -3.2580 O.3     1  UNL1       -0.4810
      5  H          9.6050   -3.1130   -4.0990 H       1  UNL1        0.2960
      6  C          7.5440   -1.4410   -0.5900 C.3     1  UNL1        0.0470
      7  C          6.6590   -0.4120   -0.0110 C.2     1  UNL1       -0.0470
      8  C          6.1400   -0.4640    1.2570 C.2     1  UNL1        0.0040
      9  C          6.3350    0.6660   -0.8000 C.2     1  UNL1        0.0040
     10  C          5.3170    0.5450    1.7170 C.2     1  UNL1        0.0000
     11  C          5.5240    1.6730   -0.3650 C.2     1  UNL1        0.0000
     12  C          5.0030    1.6210    0.9110 C.2     1  UNL1        0.0000
@<TRIPOS>BOND
     1     5     4    1
     2     3     2    2
     3     4     2    1
     4     2     1    1
     5     1     6    1
     6     9    11    1
     7     9     7    2
     8     6     7    1
     9    11    12    2
    10     7     8    1
    11    12    10    1
    12     8    10    2
