@<TRIPOS>MOLECULE
/home/cewinharhar/GITHUB/reincatalyze/data/processed/docking_pred/2023-Apr-25-1630_maxeplen5_maxtrainstep200_exh32_gamma099_lrac3e-4_lrcr1e-3/d4292dbdc665c4d20b6271b363b9823f318ec372_ligand_2.pdbqt
 12 12 0 0 0
SMALL
GASTEIGER

@<TRIPOS>ATOM
      1  C          5.0020    1.7950    0.7310 C.3     1  UNL1        0.1270
      2  C          4.4860    1.0960    1.9320 C.2     1  UNL1        0.3030
      3  O          5.1430    0.1930    2.4730 O.2     1  UNL1       -0.2520
      4  O          3.2590    1.4540    2.4550 O.3     1  UNL1       -0.4810
      5  H          2.6130    0.7710    2.8420 H       1  UNL1        0.2960
      6  C          6.5110    1.8160    0.7380 C.3     1  UNL1        0.0470
      7  C          7.0990    1.0140   -0.3520 C.2     1  UNL1       -0.0470
      8  C          6.4100    0.0760   -1.0790 C.2     1  UNL1        0.0040
      9  C          8.4240    1.2230   -0.6540 C.2     1  UNL1        0.0040
     10  C          7.0420   -0.6310   -2.0840 C.2     1  UNL1        0.0000
     11  C          9.0660    0.5340   -1.6410 C.2     1  UNL1        0.0000
     12  C          8.3740   -0.4070   -2.3720 C.2     1  UNL1        0.0000
@<TRIPOS>BOND
     1    12    10    2
     2    12    11    1
     3    10     8    1
     4    11     9    2
     5     8     7    2
     6     9     7    1
     7     7     6    1
     8     1     6    1
     9     1     2    1
    10     2     4    1
    11     2     3    2
    12     4     5    1
