MODEL 1
REMARK VINA RESULT:      -7.3      0.000      0.000
REMARK SMILES O=C(O)CCc1ccccc1
REMARK SMILES IDX 4 1 2 2 1 3 3 4 5 6 6 7 7 8 11 9 8 10 10 11 9 12
REMARK H PARENT 3 5
REMARK Flexibility Score: inf
ROOT
ATOM      1  C   UNL     1       8.428  -0.565  -2.261  1.00  0.00     0.127 C 
ENDROOT
BRANCH   1   2
ATOM      2  C   UNL     1       8.477  -1.890  -2.924  1.00  0.00     0.303 C 
ATOM      3  O   UNL     1       9.551  -2.499  -3.047  1.00  0.00    -0.252 OA
BRANCH   2   4
ATOM      4  O   UNL     1       7.313  -2.454  -3.409  1.00  0.00    -0.481 OA
ATOM      5  H   UNL     1       7.318  -3.208  -4.090  1.00  0.00     0.296 HD
ENDBRANCH   2   4
ENDBRANCH   1   2
BRANCH   1   6
ATOM      6  C   UNL     1       7.008  -0.061  -2.189  1.00  0.00     0.047 C 
BRANCH   6   7
ATOM      7  C   UNL     1       6.501   0.023  -0.806  1.00  0.00    -0.047 A 
ATOM      8  C   UNL     1       6.614  -0.981   0.121  1.00  0.00     0.004 A 
ATOM      9  C   UNL     1       5.873   1.187  -0.428  1.00  0.00     0.004 A 
ATOM     10  C   UNL     1       6.108  -0.816   1.396  1.00  0.00     0.000 A 
ATOM     11  C   UNL     1       5.367   1.369   0.825  1.00  0.00     0.000 A 
ATOM     12  C   UNL     1       5.481   0.360   1.758  1.00  0.00     0.000 A 
ENDBRANCH   6   7
ENDBRANCH   1   6
TORSDOF 4
ENDMDL
MODEL 2
REMARK VINA RESULT:      -7.2      0.138      1.725
REMARK SMILES O=C(O)CCc1ccccc1
REMARK SMILES IDX 4 1 2 2 1 3 3 4 5 6 6 7 7 8 11 9 8 10 10 11 9 12
REMARK H PARENT 3 5
REMARK Flexibility Score: inf
ROOT
ATOM      1  C   UNL     1       8.388  -0.652  -2.107  1.00  0.00     0.127 C 
ENDROOT
BRANCH   1   2
ATOM      2  C   UNL     1       8.366  -1.908  -2.894  1.00  0.00     0.303 C 
ATOM      3  O   UNL     1       7.292  -2.418  -3.247  1.00  0.00    -0.252 OA
BRANCH   2   4
ATOM      4  O   UNL     1       9.557  -2.519  -3.237  1.00  0.00    -0.481 OA
ATOM      5  H   UNL     1       9.627  -3.519  -3.403  1.00  0.00     0.296 HD
ENDBRANCH   2   4
ENDBRANCH   1   2
BRANCH   1   6
ATOM      6  C   UNL     1       7.031   0.006  -2.122  1.00  0.00     0.047 C 
BRANCH   6   7
ATOM      7  C   UNL     1       6.458   0.168  -0.772  1.00  0.00    -0.047 A 
ATOM      8  C   UNL     1       5.790   1.288  -0.346  1.00  0.00     0.004 A 
ATOM      9  C   UNL     1       6.608  -0.873   0.113  1.00  0.00     0.004 A 
ATOM     10  C   UNL     1       5.287   1.355   0.939  1.00  0.00     0.000 A 
ATOM     11  C   UNL     1       6.118  -0.827   1.385  1.00  0.00     0.000 A 
ATOM     12  C   UNL     1       5.446   0.298   1.813  1.00  0.00     0.000 A 
ENDBRANCH   6   7
ENDBRANCH   1   6
TORSDOF 4
ENDMDL
MODEL 3
REMARK VINA RESULT:      -7.1      0.900      1.782
REMARK SMILES O=C(O)CCc1ccccc1
REMARK SMILES IDX 4 1 2 2 1 3 3 4 5 6 6 7 7 8 11 9 8 10 10 11 9 12
REMARK H PARENT 3 5
REMARK Flexibility Score: inf
ROOT
ATOM      1  C   UNL     1       7.269  -1.233  -2.191  1.00  0.00     0.127 C 
ENDROOT
BRANCH   1   2
ATOM      2  C   UNL     1       8.719  -1.334  -2.481  1.00  0.00     0.303 C 
ATOM      3  O   UNL     1       9.519  -0.510  -2.013  1.00  0.00    -0.252 OA
BRANCH   2   4
ATOM      4  O   UNL     1       9.185  -2.359  -3.282  1.00  0.00    -0.481 OA
ATOM      5  H   UNL     1       8.991  -3.336  -3.083  1.00  0.00     0.296 HD
ENDBRANCH   2   4
ENDBRANCH   1   2
BRANCH   1   6
ATOM      6  C   UNL     1       6.870   0.206  -1.980  1.00  0.00     0.047 C 
BRANCH   6   7
ATOM      7  C   UNL     1       6.253   0.441  -0.660  1.00  0.00    -0.047 A 
ATOM      8  C   UNL     1       5.549   1.570  -0.328  1.00  0.00     0.004 A 
ATOM      9  C   UNL     1       6.399  -0.537   0.294  1.00  0.00     0.004 A 
ATOM     10  C   UNL     1       5.005   1.707   0.935  1.00  0.00     0.000 A 
ATOM     11  C   UNL     1       5.870  -0.420   1.546  1.00  0.00     0.000 A 
ATOM     12  C   UNL     1       5.161   0.714   1.881  1.00  0.00     0.000 A 
ENDBRANCH   6   7
ENDBRANCH   1   6
TORSDOF 4
ENDMDL
MODEL 4
REMARK VINA RESULT:      -7.0      0.646      1.518
REMARK SMILES O=C(O)CCc1ccccc1
REMARK SMILES IDX 4 1 2 2 1 3 3 4 5 6 6 7 7 8 11 9 8 10 10 11 9 12
REMARK H PARENT 3 5
REMARK Flexibility Score: inf
ROOT
ATOM      1  C   UNL     1       8.276  -0.960  -1.818  1.00  0.00     0.127 C 
ENDROOT
BRANCH   1   2
ATOM      2  C   UNL     1       8.301  -2.018  -2.856  1.00  0.00     0.303 C 
ATOM      3  O   UNL     1       7.249  -2.431  -3.368  1.00  0.00    -0.252 OA
BRANCH   2   4
ATOM      4  O   UNL     1       9.511  -2.550  -3.258  1.00  0.00    -0.481 OA
ATOM      5  H   UNL     1       9.605  -3.113  -4.099  1.00  0.00     0.296 HD
ENDBRANCH   2   4
ENDBRANCH   1   2
BRANCH   1   6
ATOM      6  C   UNL     1       7.544  -1.441  -0.590  1.00  0.00     0.047 C 
BRANCH   6   7
ATOM      7  C   UNL     1       6.659  -0.412  -0.011  1.00  0.00    -0.047 A 
ATOM      8  C   UNL     1       6.140  -0.464   1.257  1.00  0.00     0.004 A 
ATOM      9  C   UNL     1       6.335   0.666  -0.800  1.00  0.00     0.004 A 
ATOM     10  C   UNL     1       5.317   0.545   1.717  1.00  0.00     0.000 A 
ATOM     11  C   UNL     1       5.524   1.673  -0.365  1.00  0.00     0.000 A 
ATOM     12  C   UNL     1       5.003   1.621   0.911  1.00  0.00     0.000 A 
ENDBRANCH   6   7
ENDBRANCH   1   6
TORSDOF 4
ENDMDL
MODEL 5
REMARK VINA RESULT:      -6.7      3.371      5.049
REMARK SMILES O=C(O)CCc1ccccc1
REMARK SMILES IDX 4 1 2 2 1 3 3 4 5 6 6 7 7 8 11 9 8 10 10 11 9 12
REMARK H PARENT 3 5
REMARK Flexibility Score: inf
ROOT
ATOM      1  C   UNL     1       5.002   1.795   0.731  1.00  0.00     0.127 C 
ENDROOT
BRANCH   1   2
ATOM      2  C   UNL     1       4.486   1.096   1.932  1.00  0.00     0.303 C 
ATOM      3  O   UNL     1       5.143   0.193   2.473  1.00  0.00    -0.252 OA
BRANCH   2   4
ATOM      4  O   UNL     1       3.259   1.454   2.455  1.00  0.00    -0.481 OA
ATOM      5  H   UNL     1       2.613   0.771   2.842  1.00  0.00     0.296 HD
ENDBRANCH   2   4
ENDBRANCH   1   2
BRANCH   1   6
ATOM      6  C   UNL     1       6.511   1.816   0.738  1.00  0.00     0.047 C 
BRANCH   6   7
ATOM      7  C   UNL     1       7.099   1.014  -0.352  1.00  0.00    -0.047 A 
ATOM      8  C   UNL     1       6.410   0.076  -1.079  1.00  0.00     0.004 A 
ATOM      9  C   UNL     1       8.424   1.223  -0.654  1.00  0.00     0.004 A 
ATOM     10  C   UNL     1       7.042  -0.631  -2.084  1.00  0.00     0.000 A 
ATOM     11  C   UNL     1       9.066   0.534  -1.641  1.00  0.00     0.000 A 
ATOM     12  C   UNL     1       8.374  -0.407  -2.372  1.00  0.00     0.000 A 
ENDBRANCH   6   7
ENDBRANCH   1   6
TORSDOF 4
ENDMDL
