@<TRIPOS>MOLECULE
/home/cewinharhar/GITHUB/reincatalyze/data/processed/docking_pred/2023-Apr-25-1630_maxeplen5_maxtrainstep200_exh32_gamma099_lrac3e-4_lrcr1e-3/d4292dbdc665c4d20b6271b363b9823f318ec372_ligand_2.pdbqt
 12 12 0 0 0
SMALL
GASTEIGER

@<TRIPOS>ATOM
      1  C          7.2690   -1.2330   -2.1910 C.3     1  UNL1        0.1270
      2  C          8.7190   -1.3340   -2.4810 C.2     1  UNL1        0.3030
      3  O          9.5190   -0.5100   -2.0130 O.2     1  UNL1       -0.2520
      4  O          9.1850   -2.3590   -3.2820 O.3     1  UNL1       -0.4810
      5  H          8.9910   -3.3360   -3.0830 H       1  UNL1        0.2960
      6  C          6.8700    0.2060   -1.9800 C.3     1  UNL1        0.0470
      7  C          6.2530    0.4410   -0.6600 C.2     1  UNL1       -0.0470
      8  C          5.5490    1.5700   -0.3280 C.2     1  UNL1        0.0040
      9  C          6.3990   -0.5370    0.2940 C.2     1  UNL1        0.0040
     10  C          5.0050    1.7070    0.9350 C.2     1  UNL1        0.0000
     11  C          5.8700   -0.4200    1.5460 C.2     1  UNL1        0.0000
     12  C          5.1610    0.7140    1.8810 C.2     1  UNL1        0.0000
@<TRIPOS>BOND
     1     4     5    1
     2     4     2    1
     3     2     1    1
     4     2     3    2
     5     1     6    1
     6     6     7    1
     7     7     8    2
     8     7     9    1
     9     8    10    1
    10     9    11    2
    11    10    12    2
    12    11    12    1
