@<TRIPOS>MOLECULE
/home/cewinharhar/GITHUB/reincatalyze/data/processed/docking_pred/2023-Apr-25-1630_maxeplen5_maxtrainstep200_exh32_gamma099_lrac3e-4_lrcr1e-3/d4292dbdc665c4d20b6271b363b9823f318ec372_ligand_2.pdbqt
 12 12 0 0 0
SMALL
GASTEIGER

@<TRIPOS>ATOM
      1  C          8.3880   -0.6520   -2.1070 C.3     1  UNL1        0.1270
      2  C          8.3660   -1.9080   -2.8940 C.2     1  UNL1        0.3030
      3  O          7.2920   -2.4180   -3.2470 O.2     1  UNL1       -0.2520
      4  O          9.5570   -2.5190   -3.2370 O.3     1  UNL1       -0.4810
      5  H          9.6270   -3.5190   -3.4030 H       1  UNL1        0.2960
      6  C          7.0310    0.0060   -2.1220 C.3     1  UNL1        0.0470
      7  C          6.4580    0.1680   -0.7720 C.2     1  UNL1       -0.0470
      8  C          5.7900    1.2880   -0.3460 C.2     1  UNL1        0.0040
      9  C          6.6080   -0.8730    0.1130 C.2     1  UNL1        0.0040
     10  C          5.2870    1.3550    0.9390 C.2     1  UNL1        0.0000
     11  C          6.1180   -0.8270    1.3850 C.2     1  UNL1        0.0000
     12  C          5.4460    0.2980    1.8130 C.2     1  UNL1        0.0000
@<TRIPOS>BOND
     1     5     4    1
     2     3     2    2
     3     4     2    1
     4     2     1    1
     5     6     1    1
     6     6     7    1
     7     7     8    2
     8     7     9    1
     9     8    10    1
    10     9    11    2
    11    10    12    2
    12    11    12    1
