@<TRIPOS>MOLECULE
/home/cewinharhar/GITHUB/reincatalyze/data/processed/docking_pred/2023-Apr-25-1630_maxeplen5_maxtrainstep200_exh32_gamma099_lrac3e-4_lrcr1e-3/d4292dbdc665c4d20b6271b363b9823f318ec372_ligand_2.pdbqt
 12 12 0 0 0
SMALL
GASTEIGER

@<TRIPOS>ATOM
      1  C          8.4280   -0.5650   -2.2610 C.3     1  UNL1        0.1270
      2  C          8.4770   -1.8900   -2.9240 C.2     1  UNL1        0.3030
      3  O          9.5510   -2.4990   -3.0470 O.2     1  UNL1       -0.2520
      4  O          7.3130   -2.4540   -3.4090 O.3     1  UNL1       -0.4810
      5  H          7.3180   -3.2080   -4.0900 H       1  UNL1        0.2960
      6  C          7.0080   -0.0610   -2.1890 C.3     1  UNL1        0.0470
      7  C          6.5010    0.0230   -0.8060 C.2     1  UNL1       -0.0470
      8  C          6.6140   -0.9810    0.1210 C.2     1  UNL1        0.0040
      9  C          5.8730    1.1870   -0.4280 C.2     1  UNL1        0.0040
     10  C          6.1080   -0.8160    1.3960 C.2     1  UNL1        0.0000
     11  C          5.3670    1.3690    0.8250 C.2     1  UNL1        0.0000
     12  C          5.4810    0.3600    1.7580 C.2     1  UNL1        0.0000
@<TRIPOS>BOND
     1     5     4    1
     2     4     2    1
     3     3     2    2
     4     2     1    1
     5     1     6    1
     6     6     7    1
     7     7     9    2
     8     7     8    1
     9     9    11    1
    10     8    10    2
    11    11    12    2
    12    10    12    1
