@<TRIPOS>MOLECULE
/home/cewinharhar/GITHUB/reincatalyze/data/processed/docking_pred/2023-Apr-25-1630_maxeplen5_maxtrainstep200_exh32_gamma099_lrac3e-4_lrcr1e-3/d475abeaf77d1f7cad9c775310647ad941a1fd31_ligand_2.pdbqt
 12 12 0 0 0
SMALL
GASTEIGER

@<TRIPOS>ATOM
      1  C          8.3800   -0.6790   -2.0740 C.3     1  UNL1        0.1270
      2  C          8.3610   -1.9160   -2.8890 C.2     1  UNL1        0.3030
      3  O          7.2870   -2.4190   -3.2560 O.2     1  UNL1       -0.2520
      4  O          9.5530   -2.5170   -3.2450 O.3     1  UNL1       -0.4810
      5  H          9.6030   -3.4840   -3.5540 H       1  UNL1        0.2960
      6  C          7.0270   -0.0110   -2.0930 C.3     1  UNL1        0.0470
      7  C          6.4510    0.1520   -0.7440 C.2     1  UNL1       -0.0470
      8  C          5.7890    1.2750   -0.3180 C.2     1  UNL1        0.0040
      9  C          6.5910   -0.8920    0.1390 C.2     1  UNL1        0.0040
     10  C          5.2820    1.3430    0.9650 C.2     1  UNL1        0.0000
     11  C          6.0970   -0.8450    1.4100 C.2     1  UNL1        0.0000
     12  C          5.4310    0.2840    1.8380 C.2     1  UNL1        0.0000
@<TRIPOS>BOND
     1     5     4    1
     2     3     2    2
     3     4     2    1
     4     2     1    1
     5     6     1    1
     6     6     7    1
     7     7     8    2
     8     7     9    1
     9     8    10    1
    10     9    11    2
    11    10    12    2
    12    11    12    1
