MODEL 1
REMARK VINA RESULT:      -7.4      0.000      0.000
REMARK SMILES O=C(O)CCc1ccccc1
REMARK SMILES IDX 4 1 2 2 1 3 3 4 5 6 6 7 7 8 11 9 8 10 10 11 9 12
REMARK H PARENT 3 5
REMARK Flexibility Score: inf
ROOT
ATOM      1  C   UNL     1       8.430  -0.639  -2.160  1.00  0.00     0.127 C 
ENDROOT
BRANCH   1   2
ATOM      2  C   UNL     1       8.479  -1.919  -2.905  1.00  0.00     0.303 C 
ATOM      3  O   UNL     1       9.554  -2.517  -3.070  1.00  0.00    -0.252 OA
BRANCH   2   4
ATOM      4  O   UNL     1       7.314  -2.452  -3.423  1.00  0.00    -0.481 OA
ATOM      5  H   UNL     1       6.927  -2.151  -4.313  1.00  0.00     0.296 HD
ENDBRANCH   2   4
ENDBRANCH   1   2
BRANCH   1   6
ATOM      6  C   UNL     1       7.027  -0.085  -2.149  1.00  0.00     0.047 C 
BRANCH   6   7
ATOM      7  C   UNL     1       6.477   0.056  -0.787  1.00  0.00    -0.047 A 
ATOM      8  C   UNL     1       6.559  -0.911   0.182  1.00  0.00     0.004 A 
ATOM      9  C   UNL     1       5.842   1.234  -0.475  1.00  0.00     0.004 A 
ATOM     10  C   UNL     1       6.014  -0.694   1.433  1.00  0.00     0.000 A 
ATOM     11  C   UNL     1       5.297   1.467   0.753  1.00  0.00     0.000 A 
ATOM     12  C   UNL     1       5.380   0.496   1.728  1.00  0.00     0.000 A 
ENDBRANCH   6   7
ENDBRANCH   1   6
TORSDOF 4
ENDMDL
MODEL 2
REMARK VINA RESULT:      -7.3      0.162      1.725
REMARK SMILES O=C(O)CCc1ccccc1
REMARK SMILES IDX 4 1 2 2 1 3 3 4 5 6 6 7 7 8 11 9 8 10 10 11 9 12
REMARK H PARENT 3 5
REMARK Flexibility Score: inf
ROOT
ATOM      1  C   UNL     1       8.380  -0.679  -2.074  1.00  0.00     0.127 C 
ENDROOT
BRANCH   1   2
ATOM      2  C   UNL     1       8.361  -1.916  -2.889  1.00  0.00     0.303 C 
ATOM      3  O   UNL     1       7.287  -2.419  -3.256  1.00  0.00    -0.252 OA
BRANCH   2   4
ATOM      4  O   UNL     1       9.553  -2.517  -3.245  1.00  0.00    -0.481 OA
ATOM      5  H   UNL     1       9.603  -3.484  -3.554  1.00  0.00     0.296 HD
ENDBRANCH   2   4
ENDBRANCH   1   2
BRANCH   1   6
ATOM      6  C   UNL     1       7.027  -0.011  -2.093  1.00  0.00     0.047 C 
BRANCH   6   7
ATOM      7  C   UNL     1       6.451   0.152  -0.744  1.00  0.00    -0.047 A 
ATOM      8  C   UNL     1       5.789   1.275  -0.318  1.00  0.00     0.004 A 
ATOM      9  C   UNL     1       6.591  -0.892   0.139  1.00  0.00     0.004 A 
ATOM     10  C   UNL     1       5.282   1.343   0.965  1.00  0.00     0.000 A 
ATOM     11  C   UNL     1       6.097  -0.845   1.410  1.00  0.00     0.000 A 
ATOM     12  C   UNL     1       5.431   0.284   1.838  1.00  0.00     0.000 A 
ENDBRANCH   6   7
ENDBRANCH   1   6
TORSDOF 4
ENDMDL
MODEL 3
REMARK VINA RESULT:      -6.8      3.365      5.060
REMARK SMILES O=C(O)CCc1ccccc1
REMARK SMILES IDX 4 1 2 2 1 3 3 4 5 6 6 7 7 8 11 9 8 10 10 11 9 12
REMARK H PARENT 3 5
REMARK Flexibility Score: inf
ROOT
ATOM      1  C   UNL     1       5.000   1.789   0.643  1.00  0.00     0.127 C 
ENDROOT
BRANCH   1   2
ATOM      2  C   UNL     1       4.529   1.129   1.884  1.00  0.00     0.303 C 
ATOM      3  O   UNL     1       5.226   0.274   2.453  1.00  0.00    -0.252 OA
BRANCH   2   4
ATOM      4  O   UNL     1       3.299   1.470   2.414  1.00  0.00    -0.481 OA
ATOM      5  H   UNL     1       2.428   1.287   1.925  1.00  0.00     0.296 HD
ENDBRANCH   2   4
ENDBRANCH   1   2
BRANCH   1   6
ATOM      6  C   UNL     1       6.499   1.953   0.666  1.00  0.00     0.047 C 
BRANCH   6   7
ATOM      7  C   UNL     1       7.178   1.156  -0.373  1.00  0.00    -0.047 A 
ATOM      8  C   UNL     1       8.524   1.212  -0.634  1.00  0.00     0.004 A 
ATOM      9  C   UNL     1       6.407   0.304  -1.128  1.00  0.00     0.004 A 
ATOM     10  C   UNL     1       9.076   0.429  -1.629  1.00  0.00     0.000 A 
ATOM     11  C   UNL     1       6.933  -0.477  -2.115  1.00  0.00     0.000 A 
ATOM     12  C   UNL     1       8.286  -0.421  -2.376  1.00  0.00     0.000 A 
ENDBRANCH   6   7
ENDBRANCH   1   6
TORSDOF 4
ENDMDL
MODEL 4
REMARK VINA RESULT:      -6.7      3.832      4.989
REMARK SMILES O=C(O)CCc1ccccc1
REMARK SMILES IDX 4 1 2 2 1 3 3 4 5 6 6 7 7 8 11 9 8 10 10 11 9 12
REMARK H PARENT 3 5
REMARK Flexibility Score: inf
ROOT
ATOM      1  C   UNL     1       5.542   2.957  -0.051  1.00  0.00     0.127 C 
ENDROOT
BRANCH   1   2
ATOM      2  C   UNL     1       6.295   3.922   0.785  1.00  0.00     0.303 C 
ATOM      3  O   UNL     1       7.032   4.773   0.263  1.00  0.00    -0.252 OA
BRANCH   2   4
ATOM      4  O   UNL     1       6.175   3.873   2.160  1.00  0.00    -0.481 OA
ATOM      5  H   UNL     1       6.211   2.999   2.678  1.00  0.00     0.296 HD
ENDBRANCH   2   4
ENDBRANCH   1   2
BRANCH   1   6
ATOM      6  C   UNL     1       4.906   1.894   0.810  1.00  0.00     0.047 C 
BRANCH   6   7
ATOM      7  C   UNL     1       5.689   0.644   0.848  1.00  0.00    -0.047 A 
ATOM      8  C   UNL     1       6.357   0.118  -0.229  1.00  0.00     0.004 A 
ATOM      9  C   UNL     1       5.748  -0.036   2.042  1.00  0.00     0.004 A 
ATOM     10  C   UNL     1       7.066  -1.061  -0.104  1.00  0.00     0.000 A 
ATOM     11  C   UNL     1       6.442  -1.201   2.185  1.00  0.00     0.000 A 
ATOM     12  C   UNL     1       7.115  -1.729   1.104  1.00  0.00     0.000 A 
ENDBRANCH   6   7
ENDBRANCH   1   6
TORSDOF 4
ENDMDL
MODEL 5
REMARK VINA RESULT:      -6.7      1.927      2.260
REMARK SMILES O=C(O)CCc1ccccc1
REMARK SMILES IDX 4 1 2 2 1 3 3 4 5 6 6 7 7 8 11 9 8 10 10 11 9 12
REMARK H PARENT 3 5
REMARK Flexibility Score: inf
ROOT
ATOM      1  C   UNL     1       8.227   0.254  -2.139  1.00  0.00     0.127 C 
ENDROOT
BRANCH   1   2
ATOM      2  C   UNL     1       9.373   0.356  -1.205  1.00  0.00     0.303 C 
ATOM      3  O   UNL     1       9.461  -0.397  -0.223  1.00  0.00    -0.252 OA
BRANCH   2   4
ATOM      4  O   UNL     1      10.354   1.302  -1.430  1.00  0.00    -0.481 OA
ATOM      5  H   UNL     1      11.300   1.050  -1.702  1.00  0.00     0.296 HD
ENDBRANCH   2   4
ENDBRANCH   1   2
BRANCH   1   6
ATOM      6  C   UNL     1       7.118  -0.569  -1.530  1.00  0.00     0.047 C 
BRANCH   6   7
ATOM      7  C   UNL     1       6.353   0.170  -0.508  1.00  0.00    -0.047 A 
ATOM      8  C   UNL     1       6.120  -0.289   0.763  1.00  0.00     0.004 A 
ATOM      9  C   UNL     1       5.840   1.397  -0.858  1.00  0.00     0.004 A 
ATOM     10  C   UNL     1       5.390   0.470   1.657  1.00  0.00     0.000 A 
ATOM     11  C   UNL     1       5.117   2.161   0.009  1.00  0.00     0.000 A 
ATOM     12  C   UNL     1       4.883   1.700   1.288  1.00  0.00     0.000 A 
ENDBRANCH   6   7
ENDBRANCH   1   6
TORSDOF 4
ENDMDL
