@<TRIPOS>MOLECULE
/home/cewinharhar/GITHUB/reincatalyze/data/processed/docking_pred/2023-Apr-25-1630_maxeplen5_maxtrainstep200_exh32_gamma099_lrac3e-4_lrcr1e-3/d475abeaf77d1f7cad9c775310647ad941a1fd31_ligand_2.pdbqt
 12 12 0 0 0
SMALL
GASTEIGER

@<TRIPOS>ATOM
      1  C          5.0000    1.7890    0.6430 C.3     1  UNL1        0.1270
      2  C          4.5290    1.1290    1.8840 C.2     1  UNL1        0.3030
      3  O          5.2260    0.2740    2.4530 O.2     1  UNL1       -0.2520
      4  O          3.2990    1.4700    2.4140 O.3     1  UNL1       -0.4810
      5  H          2.4280    1.2870    1.9250 H       1  UNL1        0.2960
      6  C          6.4990    1.9530    0.6660 C.3     1  UNL1        0.0470
      7  C          7.1780    1.1560   -0.3730 C.2     1  UNL1       -0.0470
      8  C          8.5240    1.2120   -0.6340 C.2     1  UNL1        0.0040
      9  C          6.4070    0.3040   -1.1280 C.2     1  UNL1        0.0040
     10  C          9.0760    0.4290   -1.6290 C.2     1  UNL1        0.0000
     11  C          6.9330   -0.4770   -2.1150 C.2     1  UNL1        0.0000
     12  C          8.2860   -0.4210   -2.3760 C.2     1  UNL1        0.0000
@<TRIPOS>BOND
     1    12    11    2
     2    12    10    1
     3    11     9    1
     4    10     8    2
     5     9     7    2
     6     8     7    1
     7     7     6    1
     8     1     6    1
     9     1     2    1
    10     2     4    1
    11     2     3    2
    12     5     4    1
