@<TRIPOS>MOLECULE
/home/cewinharhar/GITHUB/reincatalyze/data/processed/docking_pred/2023-Apr-25-1630_maxeplen5_maxtrainstep200_exh32_gamma099_lrac3e-4_lrcr1e-3/d475abeaf77d1f7cad9c775310647ad941a1fd31_ligand_2.pdbqt
 12 12 0 0 0
SMALL
GASTEIGER

@<TRIPOS>ATOM
      1  C          8.2270    0.2540   -2.1390 C.3     1  UNL1        0.1270
      2  C          9.3730    0.3560   -1.2050 C.2     1  UNL1        0.3030
      3  O          9.4610   -0.3970   -0.2230 O.2     1  UNL1       -0.2520
      4  O         10.3540    1.3020   -1.4300 O.3     1  UNL1       -0.4810
      5  H         11.3000    1.0500   -1.7020 H       1  UNL1        0.2960
      6  C          7.1180   -0.5690   -1.5300 C.3     1  UNL1        0.0470
      7  C          6.3530    0.1700   -0.5080 C.2     1  UNL1       -0.0470
      8  C          6.1200   -0.2890    0.7630 C.2     1  UNL1        0.0040
      9  C          5.8400    1.3970   -0.8580 C.2     1  UNL1        0.0040
     10  C          5.3900    0.4700    1.6570 C.2     1  UNL1        0.0000
     11  C          5.1170    2.1610    0.0090 C.2     1  UNL1        0.0000
     12  C          4.8830    1.7000    1.2880 C.2     1  UNL1        0.0000
@<TRIPOS>BOND
     1     1     6    1
     2     1     2    1
     3     5     4    1
     4     6     7    1
     5     4     2    1
     6     2     3    2
     7     9     7    2
     8     9    11    1
     9     7     8    1
    10    11    12    2
    11     8    10    2
    12    12    10    1
