@<TRIPOS>MOLECULE
/home/cewinharhar/GITHUB/reincatalyze/data/processed/docking_pred/2023-Apr-25-1630_maxeplen5_maxtrainstep200_exh32_gamma099_lrac3e-4_lrcr1e-3/d475abeaf77d1f7cad9c775310647ad941a1fd31_ligand_2.pdbqt
 12 12 0 0 0
SMALL
GASTEIGER

@<TRIPOS>ATOM
      1  C          8.4300   -0.6390   -2.1600 C.3     1  UNL1        0.1270
      2  C          8.4790   -1.9190   -2.9050 C.2     1  UNL1        0.3030
      3  O          9.5540   -2.5170   -3.0700 O.2     1  UNL1       -0.2520
      4  O          7.3140   -2.4520   -3.4230 O.3     1  UNL1       -0.4810
      5  H          6.9270   -2.1510   -4.3130 H       1  UNL1        0.2960
      6  C          7.0270   -0.0850   -2.1490 C.3     1  UNL1        0.0470
      7  C          6.4770    0.0560   -0.7870 C.2     1  UNL1       -0.0470
      8  C          6.5590   -0.9110    0.1820 C.2     1  UNL1        0.0040
      9  C          5.8420    1.2340   -0.4750 C.2     1  UNL1        0.0040
     10  C          6.0140   -0.6940    1.4330 C.2     1  UNL1        0.0000
     11  C          5.2970    1.4670    0.7530 C.2     1  UNL1        0.0000
     12  C          5.3800    0.4960    1.7280 C.2     1  UNL1        0.0000
@<TRIPOS>BOND
     1     5     4    1
     2     4     2    1
     3     3     2    2
     4     2     1    1
     5     1     6    1
     6     6     7    1
     7     7     9    2
     8     7     8    1
     9     9    11    1
    10     8    10    2
    11    11    12    2
    12    10    12    1
