@<TRIPOS>MOLECULE
/home/cewinharhar/GITHUB/reincatalyze/data/processed/docking_pred/2023-Apr-25-1630_maxeplen5_maxtrainstep200_exh32_gamma099_lrac3e-4_lrcr1e-3/d475abeaf77d1f7cad9c775310647ad941a1fd31_ligand_2.pdbqt
 12 12 0 0 0
SMALL
GASTEIGER

@<TRIPOS>ATOM
      1  C          5.5420    2.9570   -0.0510 C.3     1  UNL1        0.1270
      2  C          6.2950    3.9220    0.7850 C.2     1  UNL1        0.3030
      3  O          7.0320    4.7730    0.2630 O.2     1  UNL1       -0.2520
      4  O          6.1750    3.8730    2.1600 O.3     1  UNL1       -0.4810
      5  H          6.2110    2.9990    2.6780 H       1  UNL1        0.2960
      6  C          4.9060    1.8940    0.8100 C.3     1  UNL1        0.0470
      7  C          5.6890    0.6440    0.8480 C.2     1  UNL1       -0.0470
      8  C          6.3570    0.1180   -0.2290 C.2     1  UNL1        0.0040
      9  C          5.7480   -0.0360    2.0420 C.2     1  UNL1        0.0040
     10  C          7.0660   -1.0610   -0.1040 C.2     1  UNL1        0.0000
     11  C          6.4420   -1.2010    2.1850 C.2     1  UNL1        0.0000
     12  C          7.1150   -1.7290    1.1040 C.2     1  UNL1        0.0000
@<TRIPOS>BOND
     1     8    10    1
     2     8     7    2
     3    10    12    2
     4     1     2    1
     5     1     6    1
     6     3     2    2
     7     2     4    1
     8     6     7    1
     9     7     9    1
    10    12    11    1
    11     9    11    2
    12     4     5    1
