@<TRIPOS>MOLECULE
/home/cewinharhar/GITHUB/reincatalyze/data/processed/docking_pred/2023-Apr-25-1630_maxeplen5_maxtrainstep200_exh32_gamma099_lrac3e-4_lrcr1e-3/d68da6ca94917019a71bc3feefe4e6b6d631e6ad_ligand_2.pdbqt
 12 12 0 0 0
SMALL
GASTEIGER

@<TRIPOS>ATOM
      1  C          7.2640   -1.2330   -2.3690 C.3     1  UNL1        0.1270
      2  C          8.7290   -1.3790   -2.5370 C.2     1  UNL1        0.3030
      3  O          9.5100   -0.5420   -2.0590 O.2     1  UNL1       -0.2520
      4  O          9.2310   -2.4600   -3.2360 O.3     1  UNL1       -0.4810
      5  H          9.7180   -2.3560   -4.1210 H       1  UNL1        0.2960
      6  C          6.9160    0.1740   -1.9490 C.3     1  UNL1        0.0470
      7  C          6.3390    0.2400   -0.5930 C.2     1  UNL1       -0.0470
      8  C          5.6480    1.3170   -0.1000 C.2     1  UNL1        0.0040
      9  C          6.5100   -0.8500    0.2260 C.2     1  UNL1        0.0040
     10  C          5.1410    1.2940    1.1850 C.2     1  UNL1        0.0000
     11  C          6.0180   -0.8930    1.4980 C.2     1  UNL1        0.0000
     12  C          5.3230    0.1890    1.9930 C.2     1  UNL1        0.0000
@<TRIPOS>BOND
     1     5     4    1
     2     4     2    1
     3     2     1    1
     4     2     3    2
     5     1     6    1
     6     6     7    1
     7     7     8    2
     8     7     9    1
     9     8    10    1
    10     9    11    2
    11    10    12    2
    12    11    12    1
