@<TRIPOS>MOLECULE
/home/cewinharhar/GITHUB/reincatalyze/data/processed/docking_pred/2023-Apr-25-1630_maxeplen5_maxtrainstep200_exh32_gamma099_lrac3e-4_lrcr1e-3/d68da6ca94917019a71bc3feefe4e6b6d631e6ad_ligand_2.pdbqt
 12 12 0 0 0
SMALL
GASTEIGER

@<TRIPOS>ATOM
      1  C          5.0440    1.7250    0.6890 C.3     1  UNL1        0.1270
      2  C          4.5980    1.0430    1.9270 C.2     1  UNL1        0.3030
      3  O          5.3220    0.2040    2.4860 O.2     1  UNL1       -0.2520
      4  O          3.3610    1.3430    2.4640 O.3     1  UNL1       -0.4810
      5  H          2.8800    2.2160    2.2650 H       1  UNL1        0.2960
      6  C          6.5430    1.8910    0.6860 C.3     1  UNL1        0.0470
      7  C          7.2040    1.1020   -0.3710 C.2     1  UNL1       -0.0470
      8  C          8.5370    1.1870   -0.6780 C.2     1  UNL1        0.0040
      9  C          6.4270    0.2270   -1.0930 C.2     1  UNL1        0.0040
     10  C          9.0730    0.4100   -1.6870 C.2     1  UNL1        0.0000
     11  C          6.9360   -0.5490   -2.0930 C.2     1  UNL1        0.0000
     12  C          8.2770   -0.4640   -2.4010 C.2     1  UNL1        0.0000
@<TRIPOS>BOND
     1    12    11    2
     2    12    10    1
     3    11     9    1
     4    10     8    2
     5     9     7    2
     6     8     7    1
     7     7     6    1
     8     6     1    1
     9     1     2    1
    10     2     4    1
    11     2     3    2
    12     5     4    1
