@<TRIPOS>MOLECULE
/home/cewinharhar/GITHUB/reincatalyze/data/processed/docking_pred/2023-Apr-25-1630_maxeplen5_maxtrainstep200_exh32_gamma099_lrac3e-4_lrcr1e-3/d68da6ca94917019a71bc3feefe4e6b6d631e6ad_ligand_2.pdbqt
 12 12 0 0 0
SMALL
GASTEIGER

@<TRIPOS>ATOM
      1  C          7.2790   -1.2170   -2.3660 C.3     1  UNL1        0.1270
      2  C          8.7410   -1.3720   -2.5530 C.2     1  UNL1        0.3030
      3  O          9.5330   -0.5360   -2.0900 O.2     1  UNL1       -0.2520
      4  O          9.2280   -2.4590   -3.2520 O.3     1  UNL1       -0.4810
      5  H          9.4820   -2.4040   -4.2350 H       1  UNL1        0.2960
      6  C          6.9470    0.1850   -1.9180 C.3     1  UNL1        0.0470
      7  C          6.3630    0.2300   -0.5640 C.2     1  UNL1       -0.0470
      8  C          6.4760   -0.7780    0.3600 C.2     1  UNL1        0.0040
      9  C          5.6600    1.3570   -0.2100 C.2     1  UNL1        0.0040
     10  C          5.8940   -0.6510    1.6070 C.2     1  UNL1        0.0000
     11  C          5.0790    1.5020    1.0150 C.2     1  UNL1        0.0000
     12  C          5.1920    0.4890    1.9440 C.2     1  UNL1        0.0000
@<TRIPOS>BOND
     1     5     4    1
     2     4     2    1
     3     2     1    1
     4     2     3    2
     5     1     6    1
     6     6     7    1
     7     7     9    2
     8     7     8    1
     9     9    11    1
    10     8    10    2
    11    11    12    2
    12    10    12    1
