@<TRIPOS>MOLECULE
/home/cewinharhar/GITHUB/reincatalyze/data/processed/docking_pred/2023-Apr-25-1630_maxeplen5_maxtrainstep200_exh32_gamma099_lrac3e-4_lrcr1e-3/d98db6e7330c4682e6208573911aa9edae27e8f4_ligand_2.pdbqt
 12 12 0 0 0
SMALL
GASTEIGER

@<TRIPOS>ATOM
      1  C          8.4400   -0.7420   -2.0100 C.3     1  UNL1        0.1270
      2  C          8.4750   -1.9580   -2.8570 C.2     1  UNL1        0.3030
      3  O          9.5460   -2.5390   -3.0910 O.2     1  UNL1       -0.2520
      4  O          7.3000   -2.4500   -3.3920 O.3     1  UNL1       -0.4810
      5  H          7.2900   -3.1380   -4.1400 H       1  UNL1        0.2960
      6  C          7.0870   -0.0810   -2.0860 C.3     1  UNL1        0.0470
      7  C          6.4750    0.1260   -0.7600 C.2     1  UNL1       -0.0470
      8  C          5.7990    1.2600   -0.3900 C.2     1  UNL1        0.0040
      9  C          6.5950   -0.8870    0.1620 C.2     1  UNL1        0.0040
     10  C          5.2570    1.3690    0.8770 C.2     1  UNL1        0.0000
     11  C          6.0690   -0.7980    1.4170 C.2     1  UNL1        0.0000
     12  C          5.3880    0.3410    1.7890 C.2     1  UNL1        0.0000
@<TRIPOS>BOND
     1     5     4    1
     2     4     2    1
     3     3     2    2
     4     2     1    1
     5     6     1    1
     6     6     7    1
     7     7     8    2
     8     7     9    1
     9     8    10    1
    10     9    11    2
    11    10    12    2
    12    11    12    1
