MODEL 1
REMARK VINA RESULT:      -7.4      0.000      0.000
REMARK SMILES O=C(O)CCc1ccccc1
REMARK SMILES IDX 4 1 2 2 1 3 3 4 5 6 6 7 7 8 11 9 8 10 10 11 9 12
REMARK H PARENT 3 5
REMARK Flexibility Score: inf
ROOT
ATOM      1  C   UNL     1       8.440  -0.742  -2.010  1.00  0.00     0.127 C 
ENDROOT
BRANCH   1   2
ATOM      2  C   UNL     1       8.475  -1.958  -2.857  1.00  0.00     0.303 C 
ATOM      3  O   UNL     1       9.546  -2.539  -3.091  1.00  0.00    -0.252 OA
BRANCH   2   4
ATOM      4  O   UNL     1       7.300  -2.450  -3.392  1.00  0.00    -0.481 OA
ATOM      5  H   UNL     1       7.290  -3.138  -4.140  1.00  0.00     0.296 HD
ENDBRANCH   2   4
ENDBRANCH   1   2
BRANCH   1   6
ATOM      6  C   UNL     1       7.087  -0.081  -2.086  1.00  0.00     0.047 C 
BRANCH   6   7
ATOM      7  C   UNL     1       6.475   0.126  -0.760  1.00  0.00    -0.047 A 
ATOM      8  C   UNL     1       5.799   1.260  -0.390  1.00  0.00     0.004 A 
ATOM      9  C   UNL     1       6.595  -0.887   0.162  1.00  0.00     0.004 A 
ATOM     10  C   UNL     1       5.257   1.369   0.877  1.00  0.00     0.000 A 
ATOM     11  C   UNL     1       6.069  -0.798   1.417  1.00  0.00     0.000 A 
ATOM     12  C   UNL     1       5.388   0.341   1.789  1.00  0.00     0.000 A 
ENDBRANCH   6   7
ENDBRANCH   1   6
TORSDOF 4
ENDMDL
MODEL 2
REMARK VINA RESULT:      -7.3      0.090      1.428
REMARK SMILES O=C(O)CCc1ccccc1
REMARK SMILES IDX 4 1 2 2 1 3 3 4 5 6 6 7 7 8 11 9 8 10 10 11 9 12
REMARK H PARENT 3 5
REMARK Flexibility Score: inf
ROOT
ATOM      1  C   UNL     1       8.461  -0.708  -2.068  1.00  0.00     0.127 C 
ENDROOT
BRANCH   1   2
ATOM      2  C   UNL     1       8.504  -1.943  -2.886  1.00  0.00     0.303 C 
ATOM      3  O   UNL     1       9.578  -2.526  -3.101  1.00  0.00    -0.252 OA
BRANCH   2   4
ATOM      4  O   UNL     1       7.334  -2.452  -3.416  1.00  0.00    -0.481 OA
ATOM      5  H   UNL     1       7.298  -3.348  -3.893  1.00  0.00     0.296 HD
ENDBRANCH   2   4
ENDBRANCH   1   2
BRANCH   1   6
ATOM      6  C   UNL     1       7.077  -0.110  -2.084  1.00  0.00     0.047 C 
BRANCH   6   7
ATOM      7  C   UNL     1       6.499   0.032  -0.733  1.00  0.00    -0.047 A 
ATOM      8  C   UNL     1       6.580  -0.925   0.246  1.00  0.00     0.004 A 
ATOM      9  C   UNL     1       5.836   1.201  -0.444  1.00  0.00     0.004 A 
ATOM     10  C   UNL     1       6.008  -0.708   1.484  1.00  0.00     0.000 A 
ATOM     11  C   UNL     1       5.264   1.434   0.772  1.00  0.00     0.000 A 
ATOM     12  C   UNL     1       5.346   0.473   1.757  1.00  0.00     0.000 A 
ENDBRANCH   6   7
ENDBRANCH   1   6
TORSDOF 4
ENDMDL
MODEL 3
REMARK VINA RESULT:      -6.8      3.370      5.064
REMARK SMILES O=C(O)CCc1ccccc1
REMARK SMILES IDX 4 1 2 2 1 3 3 4 5 6 6 7 7 8 11 9 8 10 10 11 9 12
REMARK H PARENT 3 5
REMARK Flexibility Score: inf
ROOT
ATOM      1  C   UNL     1       5.010   1.776   0.731  1.00  0.00     0.127 C 
ENDROOT
BRANCH   1   2
ATOM      2  C   UNL     1       4.488   1.087   1.935  1.00  0.00     0.303 C 
ATOM      3  O   UNL     1       5.140   0.184   2.483  1.00  0.00    -0.252 OA
BRANCH   2   4
ATOM      4  O   UNL     1       3.262   1.455   2.454  1.00  0.00    -0.481 OA
ATOM      5  H   UNL     1       2.972   2.426   2.527  1.00  0.00     0.296 HD
ENDBRANCH   2   4
ENDBRANCH   1   2
BRANCH   1   6
ATOM      6  C   UNL     1       6.515   1.863   0.780  1.00  0.00     0.047 C 
BRANCH   6   7
ATOM      7  C   UNL     1       7.168   1.116  -0.312  1.00  0.00    -0.047 A 
ATOM      8  C   UNL     1       8.494   1.232  -0.641  1.00  0.00     0.004 A 
ATOM      9  C   UNL     1       6.391   0.251  -1.045  1.00  0.00     0.004 A 
ATOM     10  C   UNL     1       9.022   0.494  -1.683  1.00  0.00     0.000 A 
ATOM     11  C   UNL     1       6.893  -0.486  -2.077  1.00  0.00     0.000 A 
ATOM     12  C   UNL     1       8.227  -0.371  -2.408  1.00  0.00     0.000 A 
ENDBRANCH   6   7
ENDBRANCH   1   6
TORSDOF 4
ENDMDL
MODEL 4
REMARK VINA RESULT:      -6.8      3.355      5.071
REMARK SMILES O=C(O)CCc1ccccc1
REMARK SMILES IDX 4 1 2 2 1 3 3 4 5 6 6 7 7 8 11 9 8 10 10 11 9 12
REMARK H PARENT 3 5
REMARK Flexibility Score: inf
ROOT
ATOM      1  C   UNL     1       5.022   1.788   0.709  1.00  0.00     0.127 C 
ENDROOT
BRANCH   1   2
ATOM      2  C   UNL     1       4.519   1.103   1.923  1.00  0.00     0.303 C 
ATOM      3  O   UNL     1       5.195   0.225   2.483  1.00  0.00    -0.252 OA
BRANCH   2   4
ATOM      4  O   UNL     1       3.284   1.446   2.438  1.00  0.00    -0.481 OA
ATOM      5  H   UNL     1       3.099   1.472   3.437  1.00  0.00     0.296 HD
ENDBRANCH   2   4
ENDBRANCH   1   2
BRANCH   1   6
ATOM      6  C   UNL     1       6.530   1.819   0.704  1.00  0.00     0.047 C 
BRANCH   6   7
ATOM      7  C   UNL     1       7.116   0.987  -0.364  1.00  0.00    -0.047 A 
ATOM      8  C   UNL     1       6.424   0.037  -1.070  1.00  0.00     0.004 A 
ATOM      9  C   UNL     1       8.443   1.180  -0.666  1.00  0.00     0.004 A 
ATOM     10  C   UNL     1       7.054  -0.699  -2.055  1.00  0.00     0.000 A 
ATOM     11  C   UNL     1       9.084   0.463  -1.634  1.00  0.00     0.000 A 
ATOM     12  C   UNL     1       8.388  -0.491  -2.344  1.00  0.00     0.000 A 
ENDBRANCH   6   7
ENDBRANCH   1   6
TORSDOF 4
ENDMDL
MODEL 5
REMARK VINA RESULT:      -6.7      3.828      4.946
REMARK SMILES O=C(O)CCc1ccccc1
REMARK SMILES IDX 4 1 2 2 1 3 3 4 5 6 6 7 7 8 11 9 8 10 10 11 9 12
REMARK H PARENT 3 5
REMARK Flexibility Score: inf
ROOT
ATOM      1  C   UNL     1       5.475   2.923   0.028  1.00  0.00     0.127 C 
ENDROOT
BRANCH   1   2
ATOM      2  C   UNL     1       6.267   3.897   0.816  1.00  0.00     0.303 C 
ATOM      3  O   UNL     1       6.937   4.775   0.251  1.00  0.00    -0.252 OA
BRANCH   2   4
ATOM      4  O   UNL     1       6.260   3.825   2.196  1.00  0.00    -0.481 OA
ATOM      5  H   UNL     1       5.680   4.433   2.768  1.00  0.00     0.296 HD
ENDBRANCH   2   4
ENDBRANCH   1   2
BRANCH   1   6
ATOM      6  C   UNL     1       4.905   1.854   0.926  1.00  0.00     0.047 C 
BRANCH   6   7
ATOM      7  C   UNL     1       5.700   0.611   0.914  1.00  0.00    -0.047 A 
ATOM      8  C   UNL     1       6.391   0.147  -0.176  1.00  0.00     0.004 A 
ATOM      9  C   UNL     1       5.748  -0.126   2.073  1.00  0.00     0.004 A 
ATOM     10  C   UNL     1       7.111  -1.029  -0.099  1.00  0.00     0.000 A 
ATOM     11  C   UNL     1       6.452  -1.290   2.170  1.00  0.00     0.000 A 
ATOM     12  C   UNL     1       7.147  -1.756   1.074  1.00  0.00     0.000 A 
ENDBRANCH   6   7
ENDBRANCH   1   6
TORSDOF 4
ENDMDL
