@<TRIPOS>MOLECULE
/home/cewinharhar/GITHUB/reincatalyze/data/processed/docking_pred/2023-Apr-25-1630_maxeplen5_maxtrainstep200_exh32_gamma099_lrac3e-4_lrcr1e-3/d98db6e7330c4682e6208573911aa9edae27e8f4_ligand_2.pdbqt
 12 12 0 0 0
SMALL
GASTEIGER

@<TRIPOS>ATOM
      1  C          5.0220    1.7880    0.7090 C.3     1  UNL1        0.1270
      2  C          4.5190    1.1030    1.9230 C.2     1  UNL1        0.3030
      3  O          5.1950    0.2250    2.4830 O.2     1  UNL1       -0.2520
      4  O          3.2840    1.4460    2.4380 O.3     1  UNL1       -0.4810
      5  H          3.0990    1.4720    3.4370 H       1  UNL1        0.2960
      6  C          6.5300    1.8190    0.7040 C.3     1  UNL1        0.0470
      7  C          7.1160    0.9870   -0.3640 C.2     1  UNL1       -0.0470
      8  C          6.4240    0.0370   -1.0700 C.2     1  UNL1        0.0040
      9  C          8.4430    1.1800   -0.6660 C.2     1  UNL1        0.0040
     10  C          7.0540   -0.6990   -2.0550 C.2     1  UNL1        0.0000
     11  C          9.0840    0.4630   -1.6340 C.2     1  UNL1        0.0000
     12  C          8.3880   -0.4910   -2.3440 C.2     1  UNL1        0.0000
@<TRIPOS>BOND
     1    12    10    2
     2    12    11    1
     3    10     8    1
     4    11     9    2
     5     8     7    2
     6     9     7    1
     7     7     6    1
     8     6     1    1
     9     1     2    1
    10     2     4    1
    11     2     3    2
    12     4     5    1
