@<TRIPOS>MOLECULE
/home/cewinharhar/GITHUB/reincatalyze/data/processed/docking_pred/2023-Apr-25-1630_maxeplen5_maxtrainstep200_exh32_gamma099_lrac3e-4_lrcr1e-3/d98db6e7330c4682e6208573911aa9edae27e8f4_ligand_2.pdbqt
 12 12 0 0 0
SMALL
GASTEIGER

@<TRIPOS>ATOM
      1  C          5.0100    1.7760    0.7310 C.3     1  UNL1        0.1270
      2  C          4.4880    1.0870    1.9350 C.2     1  UNL1        0.3030
      3  O          5.1400    0.1840    2.4830 O.2     1  UNL1       -0.2520
      4  O          3.2620    1.4550    2.4540 O.3     1  UNL1       -0.4810
      5  H          2.9720    2.4260    2.5270 H       1  UNL1        0.2960
      6  C          6.5150    1.8630    0.7800 C.3     1  UNL1        0.0470
      7  C          7.1680    1.1160   -0.3120 C.2     1  UNL1       -0.0470
      8  C          8.4940    1.2320   -0.6410 C.2     1  UNL1        0.0040
      9  C          6.3910    0.2510   -1.0450 C.2     1  UNL1        0.0040
     10  C          9.0220    0.4940   -1.6830 C.2     1  UNL1        0.0000
     11  C          6.8930   -0.4860   -2.0770 C.2     1  UNL1        0.0000
     12  C          8.2270   -0.3710   -2.4080 C.2     1  UNL1        0.0000
@<TRIPOS>BOND
     1    12    11    2
     2    12    10    1
     3    11     9    1
     4    10     8    2
     5     9     7    2
     6     8     7    1
     7     7     6    1
     8     1     6    1
     9     1     2    1
    10     2     4    1
    11     2     3    2
    12     4     5    1
