@<TRIPOS>MOLECULE
/home/cewinharhar/GITHUB/reincatalyze/data/processed/docking_pred/2023-Apr-25-1630_maxeplen5_maxtrainstep200_exh32_gamma099_lrac3e-4_lrcr1e-3/d98db6e7330c4682e6208573911aa9edae27e8f4_ligand_2.pdbqt
 12 12 0 0 0
SMALL
GASTEIGER

@<TRIPOS>ATOM
      1  C          8.4610   -0.7080   -2.0680 C.3     1  UNL1        0.1270
      2  C          8.5040   -1.9430   -2.8860 C.2     1  UNL1        0.3030
      3  O          9.5780   -2.5260   -3.1010 O.2     1  UNL1       -0.2520
      4  O          7.3340   -2.4520   -3.4160 O.3     1  UNL1       -0.4810
      5  H          7.2980   -3.3480   -3.8930 H       1  UNL1        0.2960
      6  C          7.0770   -0.1100   -2.0840 C.3     1  UNL1        0.0470
      7  C          6.4990    0.0320   -0.7330 C.2     1  UNL1       -0.0470
      8  C          6.5800   -0.9250    0.2460 C.2     1  UNL1        0.0040
      9  C          5.8360    1.2010   -0.4440 C.2     1  UNL1        0.0040
     10  C          6.0080   -0.7080    1.4840 C.2     1  UNL1        0.0000
     11  C          5.2640    1.4340    0.7720 C.2     1  UNL1        0.0000
     12  C          5.3460    0.4730    1.7570 C.2     1  UNL1        0.0000
@<TRIPOS>BOND
     1     5     4    1
     2     4     2    1
     3     3     2    2
     4     2     1    1
     5     6     1    1
     6     6     7    1
     7     7     9    2
     8     7     8    1
     9     9    11    1
    10     8    10    2
    11    11    12    2
    12    10    12    1
