@<TRIPOS>MOLECULE
/home/cewinharhar/GITHUB/reincatalyze/data/processed/docking_pred/2023-Apr-25-1630_maxeplen5_maxtrainstep200_exh32_gamma099_lrac3e-4_lrcr1e-3/d98db6e7330c4682e6208573911aa9edae27e8f4_ligand_2.pdbqt
 12 12 0 0 0
SMALL
GASTEIGER

@<TRIPOS>ATOM
      1  C          5.4750    2.9230    0.0280 C.3     1  UNL1        0.1270
      2  C          6.2670    3.8970    0.8160 C.2     1  UNL1        0.3030
      3  O          6.9370    4.7750    0.2510 O.2     1  UNL1       -0.2520
      4  O          6.2600    3.8250    2.1960 O.3     1  UNL1       -0.4810
      5  H          5.6800    4.4330    2.7680 H       1  UNL1        0.2960
      6  C          4.9050    1.8540    0.9260 C.3     1  UNL1        0.0470
      7  C          5.7000    0.6110    0.9140 C.2     1  UNL1       -0.0470
      8  C          6.3910    0.1470   -0.1760 C.2     1  UNL1        0.0040
      9  C          5.7480   -0.1260    2.0730 C.2     1  UNL1        0.0040
     10  C          7.1110   -1.0290   -0.0990 C.2     1  UNL1        0.0000
     11  C          6.4520   -1.2900    2.1700 C.2     1  UNL1        0.0000
     12  C          7.1470   -1.7560    1.0740 C.2     1  UNL1        0.0000
@<TRIPOS>BOND
     1     8    10    1
     2     8     7    2
     3    10    12    2
     4     1     2    1
     5     1     6    1
     6     3     2    2
     7     2     4    1
     8     7     6    1
     9     7     9    1
    10    12    11    1
    11     9    11    2
    12     4     5    1
