@<TRIPOS>MOLECULE
/home/cewinharhar/GITHUB/reincatalyze/data/processed/docking_pred/2023-Apr-25-1630_maxeplen5_maxtrainstep200_exh32_gamma099_lrac3e-4_lrcr1e-3/da55d276f49f8aea3f2b333b6115ea57fe53d1b0_ligand_2.pdbqt
 12 12 0 0 0
SMALL
GASTEIGER

@<TRIPOS>ATOM
      1  C          8.4070   -0.8700   -1.8420 C.3     1  UNL1        0.1270
      2  C          8.3660   -1.9800   -2.8230 C.2     1  UNL1        0.3030
      3  O          7.2840   -2.4120   -3.2500 O.2     1  UNL1       -0.2520
      4  O          9.5480   -2.5420   -3.2670 O.3     1  UNL1       -0.4810
      5  H         10.0100   -2.2340   -4.1180 H       1  UNL1        0.2960
      6  C          7.1560   -0.0320   -1.9380 C.3     1  UNL1        0.0470
      7  C          6.4890    0.1520   -0.6350 C.2     1  UNL1       -0.0470
      8  C          6.5020   -0.7730    0.3770 C.2     1  UNL1        0.0040
      9  C          5.8090    1.3290   -0.4280 C.2     1  UNL1        0.0040
     10  C          5.8480   -0.5170    1.5660 C.2     1  UNL1        0.0000
     11  C          5.1560    1.6010    0.7380 C.2     1  UNL1        0.0000
     12  C          5.1700    0.6710    1.7560 C.2     1  UNL1        0.0000
@<TRIPOS>BOND
     1     5     4    1
     2     4     2    1
     3     3     2    2
     4     2     1    1
     5     6     1    1
     6     6     7    1
     7     7     9    2
     8     7     8    1
     9     9    11    1
    10     8    10    2
    11    11    12    2
    12    10    12    1
