@<TRIPOS>MOLECULE
/home/cewinharhar/GITHUB/reincatalyze/data/processed/docking_pred/2023-Apr-25-1630_maxeplen5_maxtrainstep200_exh32_gamma099_lrac3e-4_lrcr1e-3/da55d276f49f8aea3f2b333b6115ea57fe53d1b0_ligand_2.pdbqt
 12 12 0 0 0
SMALL
GASTEIGER

@<TRIPOS>ATOM
      1  C          8.4450   -0.5680   -2.2380 C.3     1  UNL1        0.1270
      2  C          8.4750   -1.8770   -2.9330 C.2     1  UNL1        0.3030
      3  O          9.5430   -2.4910   -3.0850 O.2     1  UNL1       -0.2520
      4  O          7.3010   -2.4190   -3.4180 O.3     1  UNL1       -0.4810
      5  H          7.2030   -2.7310   -4.3800 H       1  UNL1        0.2960
      6  C          7.0340   -0.0430   -2.1580 C.3     1  UNL1        0.0470
      7  C          6.5210    0.0110   -0.7750 C.2     1  UNL1       -0.0470
      8  C          6.6230   -1.0170    0.1270 C.2     1  UNL1        0.0040
      9  C          5.9010    1.1690   -0.3700 C.2     1  UNL1        0.0040
     10  C          6.1130   -0.8800    1.4030 C.2     1  UNL1        0.0000
     11  C          5.3910    1.3240    0.8850 C.2     1  UNL1        0.0000
     12  C          5.4940    0.2910    1.7920 C.2     1  UNL1        0.0000
@<TRIPOS>BOND
     1     5     4    1
     2     4     2    1
     3     3     2    2
     4     2     1    1
     5     1     6    1
     6     6     7    1
     7     7     9    2
     8     7     8    1
     9     9    11    1
    10     8    10    2
    11    11    12    2
    12    10    12    1
