@<TRIPOS>MOLECULE
/home/cewinharhar/GITHUB/reincatalyze/data/processed/docking_pred/2023-Apr-25-1630_maxeplen5_maxtrainstep200_exh32_gamma099_lrac3e-4_lrcr1e-3/da55d276f49f8aea3f2b333b6115ea57fe53d1b0_ligand_2.pdbqt
 12 12 0 0 0
SMALL
GASTEIGER

@<TRIPOS>ATOM
      1  C          7.9110   -0.7520   -2.1430 C.3     1  UNL1        0.1270
      2  C          8.2100   -1.9350   -2.9840 C.2     1  UNL1        0.3030
      3  O          9.3660   -2.3760   -3.0730 O.2     1  UNL1       -0.2520
      4  O          7.1880   -2.5540   -3.6780 O.3     1  UNL1       -0.4810
      5  H          7.1020   -2.4910   -4.6890 H       1  UNL1        0.2960
      6  C          7.4710   -1.1790   -0.7640 C.3     1  UNL1        0.0470
      7  C          6.5790   -0.1980   -0.1180 C.2     1  UNL1       -0.0470
      8  C          6.1010   -0.3150    1.1620 C.2     1  UNL1        0.0040
      9  C          6.2040    0.9020   -0.8520 C.2     1  UNL1        0.0040
     10  C          5.2670    0.6530    1.6870 C.2     1  UNL1        0.0000
     11  C          5.3810    1.8680   -0.3520 C.2     1  UNL1        0.0000
     12  C          4.9010    1.7510    0.9350 C.2     1  UNL1        0.0000
@<TRIPOS>BOND
     1     5     4    1
     2     4     2    1
     3     3     2    2
     4     2     1    1
     5     1     6    1
     6     9    11    1
     7     9     7    2
     8     6     7    1
     9    11    12    2
    10     7     8    1
    11    12    10    1
    12     8    10    2
