MODEL 1
REMARK VINA RESULT:      -7.3      0.000      0.000
REMARK SMILES O=C(O)CCc1ccccc1
REMARK SMILES IDX 4 1 2 2 1 3 3 4 5 6 6 7 7 8 11 9 8 10 10 11 9 12
REMARK H PARENT 3 5
REMARK Flexibility Score: inf
ROOT
ATOM      1  C   UNL     1       8.408  -0.702  -2.050  1.00  0.00     0.127 C 
ENDROOT
BRANCH   1   2
ATOM      2  C   UNL     1       8.458  -1.936  -2.870  1.00  0.00     0.303 C 
ATOM      3  O   UNL     1       9.534  -2.518  -3.077  1.00  0.00    -0.252 OA
BRANCH   2   4
ATOM      4  O   UNL     1       7.292  -2.444  -3.411  1.00  0.00    -0.481 OA
ATOM      5  H   UNL     1       7.002  -2.241  -4.363  1.00  0.00     0.296 HD
ENDBRANCH   2   4
ENDBRANCH   1   2
BRANCH   1   6
ATOM      6  C   UNL     1       7.026  -0.098  -2.086  1.00  0.00     0.047 C 
BRANCH   6   7
ATOM      7  C   UNL     1       6.451   0.097  -0.741  1.00  0.00    -0.047 A 
ATOM      8  C   UNL     1       5.804   1.236  -0.336  1.00  0.00     0.004 A 
ATOM      9  C   UNL     1       6.577  -0.932   0.161  1.00  0.00     0.004 A 
ATOM     10  C   UNL     1       5.296   1.334   0.945  1.00  0.00     0.000 A 
ATOM     11  C   UNL     1       6.083  -0.856   1.430  1.00  0.00     0.000 A 
ATOM     12  C   UNL     1       5.432   0.289   1.838  1.00  0.00     0.000 A 
ENDBRANCH   6   7
ENDBRANCH   1   6
TORSDOF 4
ENDMDL
MODEL 2
REMARK VINA RESULT:      -7.3      0.110      1.431
REMARK SMILES O=C(O)CCc1ccccc1
REMARK SMILES IDX 4 1 2 2 1 3 3 4 5 6 6 7 7 8 11 9 8 10 10 11 9 12
REMARK H PARENT 3 5
REMARK Flexibility Score: inf
ROOT
ATOM      1  C   UNL     1       8.445  -0.568  -2.238  1.00  0.00     0.127 C 
ENDROOT
BRANCH   1   2
ATOM      2  C   UNL     1       8.475  -1.877  -2.933  1.00  0.00     0.303 C 
ATOM      3  O   UNL     1       9.543  -2.491  -3.085  1.00  0.00    -0.252 OA
BRANCH   2   4
ATOM      4  O   UNL     1       7.301  -2.419  -3.418  1.00  0.00    -0.481 OA
ATOM      5  H   UNL     1       7.203  -2.731  -4.380  1.00  0.00     0.296 HD
ENDBRANCH   2   4
ENDBRANCH   1   2
BRANCH   1   6
ATOM      6  C   UNL     1       7.034  -0.043  -2.158  1.00  0.00     0.047 C 
BRANCH   6   7
ATOM      7  C   UNL     1       6.521   0.011  -0.775  1.00  0.00    -0.047 A 
ATOM      8  C   UNL     1       6.623  -1.017   0.127  1.00  0.00     0.004 A 
ATOM      9  C   UNL     1       5.901   1.169  -0.370  1.00  0.00     0.004 A 
ATOM     10  C   UNL     1       6.113  -0.880   1.403  1.00  0.00     0.000 A 
ATOM     11  C   UNL     1       5.391   1.324   0.885  1.00  0.00     0.000 A 
ATOM     12  C   UNL     1       5.494   0.291   1.792  1.00  0.00     0.000 A 
ENDBRANCH   6   7
ENDBRANCH   1   6
TORSDOF 4
ENDMDL
MODEL 3
REMARK VINA RESULT:      -7.2      0.277      1.736
REMARK SMILES O=C(O)CCc1ccccc1
REMARK SMILES IDX 4 1 2 2 1 3 3 4 5 6 6 7 7 8 11 9 8 10 10 11 9 12
REMARK H PARENT 3 5
REMARK Flexibility Score: inf
ROOT
ATOM      1  C   UNL     1       8.407  -0.870  -1.842  1.00  0.00     0.127 C 
ENDROOT
BRANCH   1   2
ATOM      2  C   UNL     1       8.366  -1.980  -2.823  1.00  0.00     0.303 C 
ATOM      3  O   UNL     1       7.284  -2.412  -3.250  1.00  0.00    -0.252 OA
BRANCH   2   4
ATOM      4  O   UNL     1       9.548  -2.542  -3.267  1.00  0.00    -0.481 OA
ATOM      5  H   UNL     1      10.010  -2.234  -4.118  1.00  0.00     0.296 HD
ENDBRANCH   2   4
ENDBRANCH   1   2
BRANCH   1   6
ATOM      6  C   UNL     1       7.156  -0.032  -1.938  1.00  0.00     0.047 C 
BRANCH   6   7
ATOM      7  C   UNL     1       6.489   0.152  -0.635  1.00  0.00    -0.047 A 
ATOM      8  C   UNL     1       6.502  -0.773   0.377  1.00  0.00     0.004 A 
ATOM      9  C   UNL     1       5.809   1.329  -0.428  1.00  0.00     0.004 A 
ATOM     10  C   UNL     1       5.848  -0.517   1.566  1.00  0.00     0.000 A 
ATOM     11  C   UNL     1       5.156   1.601   0.738  1.00  0.00     0.000 A 
ATOM     12  C   UNL     1       5.170   0.671   1.756  1.00  0.00     0.000 A 
ENDBRANCH   6   7
ENDBRANCH   1   6
TORSDOF 4
ENDMDL
MODEL 4
REMARK VINA RESULT:      -7.1      0.652      1.615
REMARK SMILES O=C(O)CCc1ccccc1
REMARK SMILES IDX 4 1 2 2 1 3 3 4 5 6 6 7 7 8 11 9 8 10 10 11 9 12
REMARK H PARENT 3 5
REMARK Flexibility Score: inf
ROOT
ATOM      1  C   UNL     1       7.911  -0.752  -2.143  1.00  0.00     0.127 C 
ENDROOT
BRANCH   1   2
ATOM      2  C   UNL     1       8.210  -1.935  -2.984  1.00  0.00     0.303 C 
ATOM      3  O   UNL     1       9.366  -2.376  -3.073  1.00  0.00    -0.252 OA
BRANCH   2   4
ATOM      4  O   UNL     1       7.188  -2.554  -3.678  1.00  0.00    -0.481 OA
ATOM      5  H   UNL     1       7.102  -2.491  -4.689  1.00  0.00     0.296 HD
ENDBRANCH   2   4
ENDBRANCH   1   2
BRANCH   1   6
ATOM      6  C   UNL     1       7.471  -1.179  -0.764  1.00  0.00     0.047 C 
BRANCH   6   7
ATOM      7  C   UNL     1       6.579  -0.198  -0.118  1.00  0.00    -0.047 A 
ATOM      8  C   UNL     1       6.101  -0.315   1.162  1.00  0.00     0.004 A 
ATOM      9  C   UNL     1       6.204   0.902  -0.852  1.00  0.00     0.004 A 
ATOM     10  C   UNL     1       5.267   0.653   1.687  1.00  0.00     0.000 A 
ATOM     11  C   UNL     1       5.381   1.868  -0.352  1.00  0.00     0.000 A 
ATOM     12  C   UNL     1       4.901   1.751   0.935  1.00  0.00     0.000 A 
ENDBRANCH   6   7
ENDBRANCH   1   6
TORSDOF 4
ENDMDL
MODEL 5
REMARK VINA RESULT:      -6.8      3.374      5.087
REMARK SMILES O=C(O)CCc1ccccc1
REMARK SMILES IDX 4 1 2 2 1 3 3 4 5 6 6 7 7 8 11 9 8 10 10 11 9 12
REMARK H PARENT 3 5
REMARK Flexibility Score: inf
ROOT
ATOM      1  C   UNL     1       4.993   1.781   0.733  1.00  0.00     0.127 C 
ENDROOT
BRANCH   1   2
ATOM      2  C   UNL     1       4.482   1.088   1.939  1.00  0.00     0.303 C 
ATOM      3  O   UNL     1       5.143   0.189   2.483  1.00  0.00    -0.252 OA
BRANCH   2   4
ATOM      4  O   UNL     1       3.256   1.447   2.465  1.00  0.00    -0.481 OA
ATOM      5  H   UNL     1       2.876   2.384   2.365  1.00  0.00     0.296 HD
ENDBRANCH   2   4
ENDBRANCH   1   2
BRANCH   1   6
ATOM      6  C   UNL     1       6.501   1.815   0.740  1.00  0.00     0.047 C 
BRANCH   6   7
ATOM      7  C   UNL     1       7.097   1.020  -0.351  1.00  0.00    -0.047 A 
ATOM      8  C   UNL     1       6.411   0.093  -1.094  1.00  0.00     0.004 A 
ATOM      9  C   UNL     1       8.426   1.223  -0.635  1.00  0.00     0.004 A 
ATOM     10  C   UNL     1       7.050  -0.609  -2.098  1.00  0.00     0.000 A 
ATOM     11  C   UNL     1       9.075   0.541  -1.621  1.00  0.00     0.000 A 
ATOM     12  C   UNL     1       8.387  -0.390  -2.369  1.00  0.00     0.000 A 
ENDBRANCH   6   7
ENDBRANCH   1   6
TORSDOF 4
ENDMDL
