@<TRIPOS>MOLECULE
/home/cewinharhar/GITHUB/reincatalyze/data/processed/docking_pred/2023-Apr-25-1630_maxeplen5_maxtrainstep200_exh32_gamma099_lrac3e-4_lrcr1e-3/da55d276f49f8aea3f2b333b6115ea57fe53d1b0_ligand_2.pdbqt
 12 12 0 0 0
SMALL
GASTEIGER

@<TRIPOS>ATOM
      1  C          8.4080   -0.7020   -2.0500 C.3     1  UNL1        0.1270
      2  C          8.4580   -1.9360   -2.8700 C.2     1  UNL1        0.3030
      3  O          9.5340   -2.5180   -3.0770 O.2     1  UNL1       -0.2520
      4  O          7.2920   -2.4440   -3.4110 O.3     1  UNL1       -0.4810
      5  H          7.0020   -2.2410   -4.3630 H       1  UNL1        0.2960
      6  C          7.0260   -0.0980   -2.0860 C.3     1  UNL1        0.0470
      7  C          6.4510    0.0970   -0.7410 C.2     1  UNL1       -0.0470
      8  C          5.8040    1.2360   -0.3360 C.2     1  UNL1        0.0040
      9  C          6.5770   -0.9320    0.1610 C.2     1  UNL1        0.0040
     10  C          5.2960    1.3340    0.9450 C.2     1  UNL1        0.0000
     11  C          6.0830   -0.8560    1.4300 C.2     1  UNL1        0.0000
     12  C          5.4320    0.2890    1.8380 C.2     1  UNL1        0.0000
@<TRIPOS>BOND
     1     5     4    1
     2     4     2    1
     3     3     2    2
     4     2     1    1
     5     6     1    1
     6     6     7    1
     7     7     8    2
     8     7     9    1
     9     8    10    1
    10     9    11    2
    11    10    12    2
    12    11    12    1
