@<TRIPOS>MOLECULE
/home/cewinharhar/GITHUB/reincatalyze/data/processed/docking_pred/2023-Apr-25-1630_maxeplen5_maxtrainstep200_exh32_gamma099_lrac3e-4_lrcr1e-3/dba3942d2f0306a5a819952336ad453bb769fd78_ligand_2.pdbqt
 12 12 0 0 0
SMALL
GASTEIGER

@<TRIPOS>ATOM
      1  C          5.0430    1.7840    0.7640 C.3     1  UNL1        0.1270
      2  C          4.4880    1.0860    1.9480 C.2     1  UNL1        0.3030
      3  O          5.1160    0.1660    2.4940 O.2     1  UNL1       -0.2520
      4  O          3.2570    1.4640    2.4480 O.3     1  UNL1       -0.4810
      5  H          2.3840    1.1850    2.0100 H       1  UNL1        0.2960
      6  C          6.5510    1.7430    0.7830 C.3     1  UNL1        0.0470
      7  C          7.1150    0.9500   -0.3260 C.2     1  UNL1       -0.0470
      8  C          6.4300   -0.0240   -1.0060 C.2     1  UNL1        0.0040
      9  C          8.4140    1.2070   -0.6970 C.2     1  UNL1        0.0040
     10  C          7.0390   -0.7200   -2.0320 C.2     1  UNL1        0.0000
     11  C          9.0330    0.5310   -1.7070 C.2     1  UNL1        0.0000
     12  C          8.3440   -0.4470   -2.3910 C.2     1  UNL1        0.0000
@<TRIPOS>BOND
     1    12    10    2
     2    12    11    1
     3    10     8    1
     4    11     9    2
     5     8     7    2
     6     9     7    1
     7     7     6    1
     8     1     6    1
     9     1     2    1
    10     2     4    1
    11     2     3    2
    12     5     4    1
