@<TRIPOS>MOLECULE
/home/cewinharhar/GITHUB/reincatalyze/data/processed/docking_pred/2023-Apr-25-1630_maxeplen5_maxtrainstep200_exh32_gamma099_lrac3e-4_lrcr1e-3/dba3942d2f0306a5a819952336ad453bb769fd78_ligand_2.pdbqt
 12 12 0 0 0
SMALL
GASTEIGER

@<TRIPOS>ATOM
      1  C          8.3710   -0.8510   -1.8660 C.3     1  UNL1        0.1270
      2  C          8.3460   -1.9660   -2.8430 C.2     1  UNL1        0.3030
      3  O          7.2720   -2.3830   -3.3040 O.2     1  UNL1       -0.2520
      4  O          9.5330   -2.5480   -3.2450 O.3     1  UNL1       -0.4810
      5  H         10.3460   -2.5970   -2.6380 H       1  UNL1        0.2960
      6  C          7.6410   -1.2360   -0.6040 C.3     1  UNL1        0.0470
      7  C          6.7070   -0.1910   -0.1410 C.2     1  UNL1       -0.0470
      8  C          6.3180    0.8860   -0.8960 C.2     1  UNL1        0.0040
      9  C          6.1990   -0.3090    1.1310 C.2     1  UNL1        0.0040
     10  C          5.4390    1.8190   -0.3810 C.2     1  UNL1        0.0000
     11  C          5.3300    0.6010    1.6570 C.2     1  UNL1        0.0000
     12  C          4.9390    1.6830    0.8990 C.2     1  UNL1        0.0000
@<TRIPOS>BOND
     1     3     2    2
     2     4     2    1
     3     4     5    1
     4     2     1    1
     5     1     6    1
     6     8    10    1
     7     8     7    2
     8     6     7    1
     9    10    12    2
    10     7     9    1
    11    12    11    1
    12     9    11    2
