@<TRIPOS>MOLECULE
/home/cewinharhar/GITHUB/reincatalyze/data/processed/docking_pred/2023-Apr-25-1630_maxeplen5_maxtrainstep200_exh32_gamma099_lrac3e-4_lrcr1e-3/dba3942d2f0306a5a819952336ad453bb769fd78_ligand_2.pdbqt
 12 12 0 0 0
SMALL
GASTEIGER

@<TRIPOS>ATOM
      1  C          8.4420   -0.6690   -2.1270 C.3     1  UNL1        0.1270
      2  C          8.4900   -1.9280   -2.9070 C.2     1  UNL1        0.3030
      3  O          9.5650   -2.5170   -3.0970 O.2     1  UNL1       -0.2520
      4  O          7.3230   -2.4510   -3.4300 O.3     1  UNL1       -0.4810
      5  H          7.0310   -2.2780   -4.3880 H       1  UNL1        0.2960
      6  C          7.0510   -0.0860   -2.1450 C.3     1  UNL1        0.0470
      7  C          6.4910    0.1020   -0.7930 C.2     1  UNL1       -0.0470
      8  C          5.8350    1.2330   -0.3790 C.2     1  UNL1        0.0040
      9  C          6.6420   -0.9260    0.1080 C.2     1  UNL1        0.0040
     10  C          5.3430    1.3230    0.9090 C.2     1  UNL1        0.0000
     11  C          6.1640   -0.8560    1.3830 C.2     1  UNL1        0.0000
     12  C          5.5030    0.2800    1.7990 C.2     1  UNL1        0.0000
@<TRIPOS>BOND
     1     5     4    1
     2     4     2    1
     3     3     2    2
     4     2     1    1
     5     6     1    1
     6     6     7    1
     7     7     8    2
     8     7     9    1
     9     8    10    1
    10     9    11    2
    11    10    12    2
    12    11    12    1
