@<TRIPOS>MOLECULE
/home/cewinharhar/GITHUB/reincatalyze/data/processed/docking_pred/2023-Apr-25-1630_maxeplen5_maxtrainstep200_exh32_gamma099_lrac3e-4_lrcr1e-3/dba3942d2f0306a5a819952336ad453bb769fd78_ligand_2.pdbqt
 12 12 0 0 0
SMALL
GASTEIGER

@<TRIPOS>ATOM
      1  C          5.0140    1.7640    0.7240 C.3     1  UNL1        0.1270
      2  C          4.4910    1.0860    1.9340 C.2     1  UNL1        0.3030
      3  O          5.1410    0.1870    2.4890 O.2     1  UNL1       -0.2520
      4  O          3.2640    1.4580    2.4490 O.3     1  UNL1       -0.4810
      5  H          2.6720    2.1490    1.9960 H       1  UNL1        0.2960
      6  C          6.5190    1.8550    0.7760 C.3     1  UNL1        0.0470
      7  C          7.1750    1.1070   -0.3130 C.2     1  UNL1       -0.0470
      8  C          8.5000    1.2290   -0.6440 C.2     1  UNL1        0.0040
      9  C          6.4030    0.2320   -1.0410 C.2     1  UNL1        0.0040
     10  C          9.0320    0.4890   -1.6820 C.2     1  UNL1        0.0000
     11  C          6.9090   -0.5070   -2.0690 C.2     1  UNL1        0.0000
     12  C          8.2410   -0.3850   -2.4020 C.2     1  UNL1        0.0000
@<TRIPOS>BOND
     1    12    11    2
     2    12    10    1
     3    11     9    1
     4    10     8    2
     5     9     7    2
     6     8     7    1
     7     7     6    1
     8     1     6    1
     9     1     2    1
    10     2     4    1
    11     2     3    2
    12     5     4    1
