MODEL 1
REMARK VINA RESULT:      -7.3      0.000      0.000
REMARK SMILES O=C(O)CCc1ccccc1
REMARK SMILES IDX 4 1 2 2 1 3 3 4 5 6 6 7 7 8 11 9 8 10 10 11 9 12
REMARK H PARENT 3 5
REMARK Flexibility Score: inf
ROOT
ATOM      1  C   UNL     1       8.442  -0.669  -2.127  1.00  0.00     0.127 C 
ENDROOT
BRANCH   1   2
ATOM      2  C   UNL     1       8.490  -1.928  -2.907  1.00  0.00     0.303 C 
ATOM      3  O   UNL     1       9.565  -2.517  -3.097  1.00  0.00    -0.252 OA
BRANCH   2   4
ATOM      4  O   UNL     1       7.323  -2.451  -3.430  1.00  0.00    -0.481 OA
ATOM      5  H   UNL     1       7.031  -2.278  -4.388  1.00  0.00     0.296 HD
ENDBRANCH   2   4
ENDBRANCH   1   2
BRANCH   1   6
ATOM      6  C   UNL     1       7.051  -0.086  -2.145  1.00  0.00     0.047 C 
BRANCH   6   7
ATOM      7  C   UNL     1       6.491   0.102  -0.793  1.00  0.00    -0.047 A 
ATOM      8  C   UNL     1       5.835   1.233  -0.379  1.00  0.00     0.004 A 
ATOM      9  C   UNL     1       6.642  -0.926   0.108  1.00  0.00     0.004 A 
ATOM     10  C   UNL     1       5.343   1.323   0.909  1.00  0.00     0.000 A 
ATOM     11  C   UNL     1       6.164  -0.856   1.383  1.00  0.00     0.000 A 
ATOM     12  C   UNL     1       5.503   0.280   1.799  1.00  0.00     0.000 A 
ENDBRANCH   6   7
ENDBRANCH   1   6
TORSDOF 4
ENDMDL
MODEL 2
REMARK VINA RESULT:      -7.3      0.106      1.430
REMARK SMILES O=C(O)CCc1ccccc1
REMARK SMILES IDX 4 1 2 2 1 3 3 4 5 6 6 7 7 8 11 9 8 10 10 11 9 12
REMARK H PARENT 3 5
REMARK Flexibility Score: inf
ROOT
ATOM      1  C   UNL     1       8.444  -0.556  -2.251  1.00  0.00     0.127 C 
ENDROOT
BRANCH   1   2
ATOM      2  C   UNL     1       8.511  -1.861  -2.951  1.00  0.00     0.303 C 
ATOM      3  O   UNL     1       9.595  -2.446  -3.101  1.00  0.00    -0.252 OA
BRANCH   2   4
ATOM      4  O   UNL     1       7.353  -2.432  -3.442  1.00  0.00    -0.481 OA
ATOM      5  H   UNL     1       7.338  -3.360  -3.856  1.00  0.00     0.296 HD
ENDBRANCH   2   4
ENDBRANCH   1   2
BRANCH   1   6
ATOM      6  C   UNL     1       7.023  -0.054  -2.200  1.00  0.00     0.047 C 
BRANCH   6   7
ATOM      7  C   UNL     1       6.499   0.044  -0.824  1.00  0.00    -0.047 A 
ATOM      8  C   UNL     1       6.622  -0.942   0.121  1.00  0.00     0.004 A 
ATOM      9  C   UNL     1       5.845   1.201  -0.473  1.00  0.00     0.004 A 
ATOM     10  C   UNL     1       6.099  -0.765   1.387  1.00  0.00     0.000 A 
ATOM     11  C   UNL     1       5.321   1.395   0.771  1.00  0.00     0.000 A 
ATOM     12  C   UNL     1       5.445   0.405   1.722  1.00  0.00     0.000 A 
ENDBRANCH   6   7
ENDBRANCH   1   6
TORSDOF 4
ENDMDL
MODEL 3
REMARK VINA RESULT:      -7.0      0.678      1.512
REMARK SMILES O=C(O)CCc1ccccc1
REMARK SMILES IDX 4 1 2 2 1 3 3 4 5 6 6 7 7 8 11 9 8 10 10 11 9 12
REMARK H PARENT 3 5
REMARK Flexibility Score: inf
ROOT
ATOM      1  C   UNL     1       8.371  -0.851  -1.866  1.00  0.00     0.127 C 
ENDROOT
BRANCH   1   2
ATOM      2  C   UNL     1       8.346  -1.966  -2.843  1.00  0.00     0.303 C 
ATOM      3  O   UNL     1       7.272  -2.383  -3.304  1.00  0.00    -0.252 OA
BRANCH   2   4
ATOM      4  O   UNL     1       9.533  -2.548  -3.245  1.00  0.00    -0.481 OA
ATOM      5  H   UNL     1      10.346  -2.597  -2.638  1.00  0.00     0.296 HD
ENDBRANCH   2   4
ENDBRANCH   1   2
BRANCH   1   6
ATOM      6  C   UNL     1       7.641  -1.236  -0.604  1.00  0.00     0.047 C 
BRANCH   6   7
ATOM      7  C   UNL     1       6.707  -0.191  -0.141  1.00  0.00    -0.047 A 
ATOM      8  C   UNL     1       6.318   0.886  -0.896  1.00  0.00     0.004 A 
ATOM      9  C   UNL     1       6.199  -0.309   1.131  1.00  0.00     0.004 A 
ATOM     10  C   UNL     1       5.439   1.819  -0.381  1.00  0.00     0.000 A 
ATOM     11  C   UNL     1       5.330   0.601   1.657  1.00  0.00     0.000 A 
ATOM     12  C   UNL     1       4.939   1.683   0.899  1.00  0.00     0.000 A 
ENDBRANCH   6   7
ENDBRANCH   1   6
TORSDOF 4
ENDMDL
MODEL 4
REMARK VINA RESULT:      -6.8      3.387      5.064
REMARK SMILES O=C(O)CCc1ccccc1
REMARK SMILES IDX 4 1 2 2 1 3 3 4 5 6 6 7 7 8 11 9 8 10 10 11 9 12
REMARK H PARENT 3 5
REMARK Flexibility Score: inf
ROOT
ATOM      1  C   UNL     1       5.014   1.764   0.724  1.00  0.00     0.127 C 
ENDROOT
BRANCH   1   2
ATOM      2  C   UNL     1       4.491   1.086   1.934  1.00  0.00     0.303 C 
ATOM      3  O   UNL     1       5.141   0.187   2.489  1.00  0.00    -0.252 OA
BRANCH   2   4
ATOM      4  O   UNL     1       3.264   1.458   2.449  1.00  0.00    -0.481 OA
ATOM      5  H   UNL     1       2.672   2.149   1.996  1.00  0.00     0.296 HD
ENDBRANCH   2   4
ENDBRANCH   1   2
BRANCH   1   6
ATOM      6  C   UNL     1       6.519   1.855   0.776  1.00  0.00     0.047 C 
BRANCH   6   7
ATOM      7  C   UNL     1       7.175   1.107  -0.313  1.00  0.00    -0.047 A 
ATOM      8  C   UNL     1       8.500   1.229  -0.644  1.00  0.00     0.004 A 
ATOM      9  C   UNL     1       6.403   0.232  -1.041  1.00  0.00     0.004 A 
ATOM     10  C   UNL     1       9.032   0.489  -1.682  1.00  0.00     0.000 A 
ATOM     11  C   UNL     1       6.909  -0.507  -2.069  1.00  0.00     0.000 A 
ATOM     12  C   UNL     1       8.241  -0.385  -2.402  1.00  0.00     0.000 A 
ENDBRANCH   6   7
ENDBRANCH   1   6
TORSDOF 4
ENDMDL
MODEL 5
REMARK VINA RESULT:      -6.8      3.381      5.090
REMARK SMILES O=C(O)CCc1ccccc1
REMARK SMILES IDX 4 1 2 2 1 3 3 4 5 6 6 7 7 8 11 9 8 10 10 11 9 12
REMARK H PARENT 3 5
REMARK Flexibility Score: inf
ROOT
ATOM      1  C   UNL     1       5.043   1.784   0.764  1.00  0.00     0.127 C 
ENDROOT
BRANCH   1   2
ATOM      2  C   UNL     1       4.488   1.086   1.948  1.00  0.00     0.303 C 
ATOM      3  O   UNL     1       5.116   0.166   2.494  1.00  0.00    -0.252 OA
BRANCH   2   4
ATOM      4  O   UNL     1       3.257   1.464   2.448  1.00  0.00    -0.481 OA
ATOM      5  H   UNL     1       2.384   1.185   2.010  1.00  0.00     0.296 HD
ENDBRANCH   2   4
ENDBRANCH   1   2
BRANCH   1   6
ATOM      6  C   UNL     1       6.551   1.743   0.783  1.00  0.00     0.047 C 
BRANCH   6   7
ATOM      7  C   UNL     1       7.115   0.950  -0.326  1.00  0.00    -0.047 A 
ATOM      8  C   UNL     1       6.430  -0.024  -1.006  1.00  0.00     0.004 A 
ATOM      9  C   UNL     1       8.414   1.207  -0.697  1.00  0.00     0.004 A 
ATOM     10  C   UNL     1       7.039  -0.720  -2.032  1.00  0.00     0.000 A 
ATOM     11  C   UNL     1       9.033   0.531  -1.707  1.00  0.00     0.000 A 
ATOM     12  C   UNL     1       8.344  -0.447  -2.391  1.00  0.00     0.000 A 
ENDBRANCH   6   7
ENDBRANCH   1   6
TORSDOF 4
ENDMDL
