@<TRIPOS>MOLECULE
/home/cewinharhar/GITHUB/reincatalyze/data/processed/docking_pred/2023-Apr-25-1630_maxeplen5_maxtrainstep200_exh32_gamma099_lrac3e-4_lrcr1e-3/dca47ac415302ce9f1313af6aebf6be1e2794cfe_ligand_2.pdbqt
 12 12 0 0 0
SMALL
GASTEIGER

@<TRIPOS>ATOM
      1  C          4.9890    1.7930    0.7040 C.3     1  UNL1        0.1270
      2  C          4.4770    1.1060    1.9130 C.2     1  UNL1        0.3030
      3  O          5.1300    0.2000    2.4540 O.2     1  UNL1       -0.2520
      4  O          3.2570    1.4790    2.4450 O.3     1  UNL1       -0.4810
      5  H          2.3750    1.2250    2.0100 H       1  UNL1        0.2960
      6  C          6.4970    1.8350    0.7170 C.3     1  UNL1        0.0470
      7  C          7.1010    1.0330   -0.3640 C.2     1  UNL1       -0.0470
      8  C          6.4190    0.1100   -1.1150 C.2     1  UNL1        0.0040
      9  C          8.4360    1.2250   -0.6300 C.2     1  UNL1        0.0040
     10  C          7.0660   -0.5980   -2.1090 C.2     1  UNL1        0.0000
     11  C          9.0930    0.5360   -1.6060 C.2     1  UNL1        0.0000
     12  C          8.4070   -0.3910   -2.3620 C.2     1  UNL1        0.0000
@<TRIPOS>BOND
     1    12    10    2
     2    12    11    1
     3    10     8    1
     4    11     9    2
     5     8     7    2
     6     9     7    1
     7     7     6    1
     8     1     6    1
     9     1     2    1
    10     2     4    1
    11     2     3    2
    12     5     4    1
