@<TRIPOS>MOLECULE
/home/cewinharhar/GITHUB/reincatalyze/data/processed/docking_pred/2023-Apr-25-1630_maxeplen5_maxtrainstep200_exh32_gamma099_lrac3e-4_lrcr1e-3/dca47ac415302ce9f1313af6aebf6be1e2794cfe_ligand_2.pdbqt
 12 12 0 0 0
SMALL
GASTEIGER

@<TRIPOS>ATOM
      1  C          8.3720   -0.6630   -2.0930 C.3     1  UNL1        0.1270
      2  C          8.3530   -1.9110   -2.8920 C.2     1  UNL1        0.3030
      3  O          7.2790   -2.4110   -3.2620 O.2     1  UNL1       -0.2520
      4  O          9.5440   -2.5260   -3.2270 O.3     1  UNL1       -0.4810
      5  H          9.8600   -3.3800   -2.7770 H       1  UNL1        0.2960
      6  C          7.0160   -0.0030   -2.1080 C.3     1  UNL1        0.0470
      7  C          6.4430    0.1590   -0.7580 C.2     1  UNL1       -0.0470
      8  C          5.7720    1.2760   -0.3330 C.2     1  UNL1        0.0040
      9  C          6.5950   -0.8820    0.1270 C.2     1  UNL1        0.0040
     10  C          5.2680    1.3420    0.9520 C.2     1  UNL1        0.0000
     11  C          6.1050   -0.8370    1.3990 C.2     1  UNL1        0.0000
     12  C          5.4300    0.2870    1.8270 C.2     1  UNL1        0.0000
@<TRIPOS>BOND
     1     3     2    2
     2     4     2    1
     3     4     5    1
     4     2     1    1
     5     6     1    1
     6     6     7    1
     7     7     8    2
     8     7     9    1
     9     8    10    1
    10     9    11    2
    11    10    12    2
    12    11    12    1
