@<TRIPOS>MOLECULE
/home/cewinharhar/GITHUB/reincatalyze/data/processed/docking_pred/2023-Apr-25-1630_maxeplen5_maxtrainstep200_exh32_gamma099_lrac3e-4_lrcr1e-3/dca47ac415302ce9f1313af6aebf6be1e2794cfe_ligand_2.pdbqt
 12 12 0 0 0
SMALL
GASTEIGER

@<TRIPOS>ATOM
      1  C          5.0500    1.6910    0.7190 C.3     1  UNL1        0.1270
      2  C          4.5870    1.0110    1.9520 C.2     1  UNL1        0.3030
      3  O          5.2900    0.1520    2.5060 O.2     1  UNL1       -0.2520
      4  O          3.3580    1.3380    2.4910 O.3     1  UNL1       -0.4810
      5  H          2.7530    2.0420    2.0760 H       1  UNL1        0.2960
      6  C          6.5510    1.8420    0.7290 C.3     1  UNL1        0.0470
      7  C          7.2100    1.0770   -0.3470 C.2     1  UNL1       -0.0470
      8  C          8.5400    1.1800   -0.6640 C.2     1  UNL1        0.0040
      9  C          6.4360    0.2060   -1.0760 C.2     1  UNL1        0.0040
     10  C          9.0750    0.4250   -1.6900 C.2     1  UNL1        0.0000
     11  C          6.9440   -0.5480   -2.0930 C.2     1  UNL1        0.0000
     12  C          8.2810   -0.4440   -2.4120 C.2     1  UNL1        0.0000
@<TRIPOS>BOND
     1    12    11    2
     2    12    10    1
     3    11     9    1
     4    10     8    2
     5     9     7    2
     6     8     7    1
     7     7     6    1
     8     1     6    1
     9     1     2    1
    10     2     4    1
    11     2     3    2
    12     5     4    1
