MODEL 1
REMARK VINA RESULT:      -7.3      0.000      0.000
REMARK SMILES O=C(O)CCc1ccccc1
REMARK SMILES IDX 4 1 2 2 1 3 3 4 5 6 6 7 7 8 11 9 8 10 10 11 9 12
REMARK H PARENT 3 5
REMARK Flexibility Score: inf
ROOT
ATOM      1  C   UNL     1       8.426  -0.554  -2.244  1.00  0.00     0.127 C 
ENDROOT
BRANCH   1   2
ATOM      2  C   UNL     1       8.487  -1.861  -2.940  1.00  0.00     0.303 C 
ATOM      3  O   UNL     1       9.570  -2.447  -3.096  1.00  0.00    -0.252 OA
BRANCH   2   4
ATOM      4  O   UNL     1       7.326  -2.434  -3.421  1.00  0.00    -0.481 OA
ATOM      5  H   UNL     1       7.249  -2.795  -4.368  1.00  0.00     0.296 HD
ENDBRANCH   2   4
ENDBRANCH   1   2
BRANCH   1   6
ATOM      6  C   UNL     1       7.003  -0.059  -2.172  1.00  0.00     0.047 C 
BRANCH   6   7
ATOM      7  C   UNL     1       6.495   0.026  -0.790  1.00  0.00    -0.047 A 
ATOM      8  C   UNL     1       6.621  -0.973   0.142  1.00  0.00     0.004 A 
ATOM      9  C   UNL     1       5.852   1.183  -0.417  1.00  0.00     0.004 A 
ATOM     10  C   UNL     1       6.114  -0.808   1.416  1.00  0.00     0.000 A 
ATOM     11  C   UNL     1       5.344   1.364   0.836  1.00  0.00     0.000 A 
ATOM     12  C   UNL     1       5.472   0.361   1.772  1.00  0.00     0.000 A 
ENDBRANCH   6   7
ENDBRANCH   1   6
TORSDOF 4
ENDMDL
MODEL 2
REMARK VINA RESULT:      -7.3      0.136      1.726
REMARK SMILES O=C(O)CCc1ccccc1
REMARK SMILES IDX 4 1 2 2 1 3 3 4 5 6 6 7 7 8 11 9 8 10 10 11 9 12
REMARK H PARENT 3 5
REMARK Flexibility Score: inf
ROOT
ATOM      1  C   UNL     1       8.372  -0.663  -2.093  1.00  0.00     0.127 C 
ENDROOT
BRANCH   1   2
ATOM      2  C   UNL     1       8.353  -1.911  -2.892  1.00  0.00     0.303 C 
ATOM      3  O   UNL     1       7.279  -2.411  -3.262  1.00  0.00    -0.252 OA
BRANCH   2   4
ATOM      4  O   UNL     1       9.544  -2.526  -3.227  1.00  0.00    -0.481 OA
ATOM      5  H   UNL     1       9.860  -3.380  -2.777  1.00  0.00     0.296 HD
ENDBRANCH   2   4
ENDBRANCH   1   2
BRANCH   1   6
ATOM      6  C   UNL     1       7.016  -0.003  -2.108  1.00  0.00     0.047 C 
BRANCH   6   7
ATOM      7  C   UNL     1       6.443   0.159  -0.758  1.00  0.00    -0.047 A 
ATOM      8  C   UNL     1       5.772   1.276  -0.333  1.00  0.00     0.004 A 
ATOM      9  C   UNL     1       6.595  -0.882   0.127  1.00  0.00     0.004 A 
ATOM     10  C   UNL     1       5.268   1.342   0.952  1.00  0.00     0.000 A 
ATOM     11  C   UNL     1       6.105  -0.837   1.399  1.00  0.00     0.000 A 
ATOM     12  C   UNL     1       5.430   0.287   1.827  1.00  0.00     0.000 A 
ENDBRANCH   6   7
ENDBRANCH   1   6
TORSDOF 4
ENDMDL
MODEL 3
REMARK VINA RESULT:      -7.2      0.679      1.617
REMARK SMILES O=C(O)CCc1ccccc1
REMARK SMILES IDX 4 1 2 2 1 3 3 4 5 6 6 7 7 8 11 9 8 10 10 11 9 12
REMARK H PARENT 3 5
REMARK Flexibility Score: inf
ROOT
ATOM      1  C   UNL     1       8.257  -0.948  -1.840  1.00  0.00     0.127 C 
ENDROOT
BRANCH   1   2
ATOM      2  C   UNL     1       8.440  -2.022  -2.844  1.00  0.00     0.303 C 
ATOM      3  O   UNL     1       9.572  -2.452  -3.115  1.00  0.00    -0.252 OA
BRANCH   2   4
ATOM      4  O   UNL     1       7.337  -2.550  -3.487  1.00  0.00    -0.481 OA
ATOM      5  H   UNL     1       7.340  -3.481  -3.895  1.00  0.00     0.296 HD
ENDBRANCH   2   4
ENDBRANCH   1   2
BRANCH   1   6
ATOM      6  C   UNL     1       7.290  -1.384  -0.768  1.00  0.00     0.047 C 
BRANCH   6   7
ATOM      7  C   UNL     1       6.499  -0.265  -0.220  1.00  0.00    -0.047 A 
ATOM      8  C   UNL     1       6.145   0.851  -0.934  1.00  0.00     0.004 A 
ATOM      9  C   UNL     1       6.094  -0.352   1.091  1.00  0.00     0.004 A 
ATOM     10  C   UNL     1       5.402   1.853  -0.340  1.00  0.00     0.000 A 
ATOM     11  C   UNL     1       5.361   0.626   1.695  1.00  0.00     0.000 A 
ATOM     12  C   UNL     1       5.004   1.748   0.978  1.00  0.00     0.000 A 
ENDBRANCH   6   7
ENDBRANCH   1   6
TORSDOF 4
ENDMDL
MODEL 4
REMARK VINA RESULT:      -6.8      3.375      5.062
REMARK SMILES O=C(O)CCc1ccccc1
REMARK SMILES IDX 4 1 2 2 1 3 3 4 5 6 6 7 7 8 11 9 8 10 10 11 9 12
REMARK H PARENT 3 5
REMARK Flexibility Score: inf
ROOT
ATOM      1  C   UNL     1       4.989   1.793   0.704  1.00  0.00     0.127 C 
ENDROOT
BRANCH   1   2
ATOM      2  C   UNL     1       4.477   1.106   1.913  1.00  0.00     0.303 C 
ATOM      3  O   UNL     1       5.130   0.200   2.454  1.00  0.00    -0.252 OA
BRANCH   2   4
ATOM      4  O   UNL     1       3.257   1.479   2.445  1.00  0.00    -0.481 OA
ATOM      5  H   UNL     1       2.375   1.225   2.010  1.00  0.00     0.296 HD
ENDBRANCH   2   4
ENDBRANCH   1   2
BRANCH   1   6
ATOM      6  C   UNL     1       6.497   1.835   0.717  1.00  0.00     0.047 C 
BRANCH   6   7
ATOM      7  C   UNL     1       7.101   1.033  -0.364  1.00  0.00    -0.047 A 
ATOM      8  C   UNL     1       6.419   0.110  -1.115  1.00  0.00     0.004 A 
ATOM      9  C   UNL     1       8.436   1.225  -0.630  1.00  0.00     0.004 A 
ATOM     10  C   UNL     1       7.066  -0.598  -2.109  1.00  0.00     0.000 A 
ATOM     11  C   UNL     1       9.093   0.536  -1.606  1.00  0.00     0.000 A 
ATOM     12  C   UNL     1       8.407  -0.391  -2.362  1.00  0.00     0.000 A 
ENDBRANCH   6   7
ENDBRANCH   1   6
TORSDOF 4
ENDMDL
MODEL 5
REMARK VINA RESULT:      -6.7      3.350      5.041
REMARK SMILES O=C(O)CCc1ccccc1
REMARK SMILES IDX 4 1 2 2 1 3 3 4 5 6 6 7 7 8 11 9 8 10 10 11 9 12
REMARK H PARENT 3 5
REMARK Flexibility Score: inf
ROOT
ATOM      1  C   UNL     1       5.050   1.691   0.719  1.00  0.00     0.127 C 
ENDROOT
BRANCH   1   2
ATOM      2  C   UNL     1       4.587   1.011   1.952  1.00  0.00     0.303 C 
ATOM      3  O   UNL     1       5.290   0.152   2.506  1.00  0.00    -0.252 OA
BRANCH   2   4
ATOM      4  O   UNL     1       3.358   1.338   2.491  1.00  0.00    -0.481 OA
ATOM      5  H   UNL     1       2.753   2.042   2.076  1.00  0.00     0.296 HD
ENDBRANCH   2   4
ENDBRANCH   1   2
BRANCH   1   6
ATOM      6  C   UNL     1       6.551   1.842   0.729  1.00  0.00     0.047 C 
BRANCH   6   7
ATOM      7  C   UNL     1       7.210   1.077  -0.347  1.00  0.00    -0.047 A 
ATOM      8  C   UNL     1       8.540   1.180  -0.664  1.00  0.00     0.004 A 
ATOM      9  C   UNL     1       6.436   0.206  -1.076  1.00  0.00     0.004 A 
ATOM     10  C   UNL     1       9.075   0.425  -1.690  1.00  0.00     0.000 A 
ATOM     11  C   UNL     1       6.944  -0.548  -2.093  1.00  0.00     0.000 A 
ATOM     12  C   UNL     1       8.281  -0.444  -2.412  1.00  0.00     0.000 A 
ENDBRANCH   6   7
ENDBRANCH   1   6
TORSDOF 4
ENDMDL
