@<TRIPOS>MOLECULE
/home/cewinharhar/GITHUB/reincatalyze/data/processed/docking_pred/2023-Apr-25-1630_maxeplen5_maxtrainstep200_exh32_gamma099_lrac3e-4_lrcr1e-3/ddb46e737fe602632681221f3e2121514b9159c3_ligand_2.pdbqt
 12 12 0 0 0
SMALL
GASTEIGER

@<TRIPOS>ATOM
      1  C          8.4490   -0.6510   -2.1240 C.3     1  UNL1        0.1270
      2  C          8.4830   -1.9180   -2.8930 C.2     1  UNL1        0.3030
      3  O          9.5530   -2.5140   -3.0870 O.2     1  UNL1       -0.2520
      4  O          7.3080   -2.4400   -3.3990 O.3     1  UNL1       -0.4810
      5  H          7.1290   -3.4400   -3.4340 H       1  UNL1        0.2960
      6  C          7.0500   -0.0860   -2.0950 C.3     1  UNL1        0.0470
      7  C          6.4990    0.0090   -0.7300 C.2     1  UNL1       -0.0470
      8  C          6.5930   -0.9840    0.2110 C.2     1  UNL1        0.0040
      9  C          5.8500    1.1700   -0.3850 C.2     1  UNL1        0.0040
     10  C          6.0450   -0.8100    1.4670 C.2     1  UNL1        0.0000
     11  C          5.3020    1.3620    0.8500 C.2     1  UNL1        0.0000
     12  C          5.3970    0.3640    1.7960 C.2     1  UNL1        0.0000
@<TRIPOS>BOND
     1     5     4    1
     2     4     2    1
     3     3     2    2
     4     2     1    1
     5     1     6    1
     6     6     7    1
     7     7     9    2
     8     7     8    1
     9     9    11    1
    10     8    10    2
    11    11    12    2
    12    10    12    1
