@<TRIPOS>MOLECULE
/home/cewinharhar/GITHUB/reincatalyze/data/processed/docking_pred/2023-Apr-25-1630_maxeplen5_maxtrainstep200_exh32_gamma099_lrac3e-4_lrcr1e-3/ddb46e737fe602632681221f3e2121514b9159c3_ligand_2.pdbqt
 12 12 0 0 0
SMALL
GASTEIGER

@<TRIPOS>ATOM
      1  C          8.3390   -0.9590   -1.7750 C.3     1  UNL1        0.1270
      2  C          8.3260   -1.9960   -2.8340 C.2     1  UNL1        0.3030
      3  O          7.2550   -2.4020   -3.3120 O.2     1  UNL1       -0.2520
      4  O          9.5200   -2.5160   -3.2940 O.3     1  UNL1       -0.4810
      5  H         10.3910   -2.4110   -2.7820 H       1  UNL1        0.2960
      6  C          7.1730   -0.0160   -1.9410 C.3     1  UNL1        0.0470
      7  C          6.4710    0.2560   -0.6720 C.2     1  UNL1       -0.0470
      8  C          5.7820    1.4110   -0.4030 C.2     1  UNL1        0.0040
      9  C          6.5150   -0.7140    0.3010 C.2     1  UNL1        0.0040
     10  C          5.1540    1.5820    0.8150 C.2     1  UNL1        0.0000
     11  C          5.9010   -0.5650    1.5100 C.2     1  UNL1        0.0000
     12  C          5.2080    0.5960    1.7800 C.2     1  UNL1        0.0000
@<TRIPOS>BOND
     1     3     2    2
     2     4     2    1
     3     4     5    1
     4     2     1    1
     5     6     1    1
     6     6     7    1
     7     7     8    2
     8     7     9    1
     9     8    10    1
    10     9    11    2
    11    10    12    2
    12    11    12    1
