MODEL 1
REMARK VINA RESULT:      -7.4      0.000      0.000
REMARK SMILES O=C(O)CCc1ccccc1
REMARK SMILES IDX 4 1 2 2 1 3 3 4 5 6 6 7 7 8 11 9 8 10 10 11 9 12
REMARK H PARENT 3 5
REMARK Flexibility Score: inf
ROOT
ATOM      1  C   UNL     1       8.449  -0.651  -2.124  1.00  0.00     0.127 C 
ENDROOT
BRANCH   1   2
ATOM      2  C   UNL     1       8.483  -1.918  -2.893  1.00  0.00     0.303 C 
ATOM      3  O   UNL     1       9.553  -2.514  -3.087  1.00  0.00    -0.252 OA
BRANCH   2   4
ATOM      4  O   UNL     1       7.308  -2.440  -3.399  1.00  0.00    -0.481 OA
ATOM      5  H   UNL     1       7.129  -3.440  -3.434  1.00  0.00     0.296 HD
ENDBRANCH   2   4
ENDBRANCH   1   2
BRANCH   1   6
ATOM      6  C   UNL     1       7.050  -0.086  -2.095  1.00  0.00     0.047 C 
BRANCH   6   7
ATOM      7  C   UNL     1       6.499   0.009  -0.730  1.00  0.00    -0.047 A 
ATOM      8  C   UNL     1       6.593  -0.984   0.211  1.00  0.00     0.004 A 
ATOM      9  C   UNL     1       5.850   1.170  -0.385  1.00  0.00     0.004 A 
ATOM     10  C   UNL     1       6.045  -0.810   1.467  1.00  0.00     0.000 A 
ATOM     11  C   UNL     1       5.302   1.362   0.850  1.00  0.00     0.000 A 
ATOM     12  C   UNL     1       5.397   0.364   1.796  1.00  0.00     0.000 A 
ENDBRANCH   6   7
ENDBRANCH   1   6
TORSDOF 4
ENDMDL
MODEL 2
REMARK VINA RESULT:      -7.3      0.105      1.429
REMARK SMILES O=C(O)CCc1ccccc1
REMARK SMILES IDX 4 1 2 2 1 3 3 4 5 6 6 7 7 8 11 9 8 10 10 11 9 12
REMARK H PARENT 3 5
REMARK Flexibility Score: inf
ROOT
ATOM      1  C   UNL     1       8.421  -0.625  -2.176  1.00  0.00     0.127 C 
ENDROOT
BRANCH   1   2
ATOM      2  C   UNL     1       8.483  -1.909  -2.913  1.00  0.00     0.303 C 
ATOM      3  O   UNL     1       9.565  -2.493  -3.082  1.00  0.00    -0.252 OA
BRANCH   2   4
ATOM      4  O   UNL     1       7.323  -2.463  -3.419  1.00  0.00    -0.481 OA
ATOM      5  H   UNL     1       6.422  -1.997  -3.346  1.00  0.00     0.296 HD
ENDBRANCH   2   4
ENDBRANCH   1   2
BRANCH   1   6
ATOM      6  C   UNL     1       7.014  -0.082  -2.176  1.00  0.00     0.047 C 
BRANCH   6   7
ATOM      7  C   UNL     1       6.469   0.094  -0.816  1.00  0.00    -0.047 A 
ATOM      8  C   UNL     1       5.837   1.230  -0.379  1.00  0.00     0.004 A 
ATOM      9  C   UNL     1       6.607  -0.951   0.066  1.00  0.00     0.004 A 
ATOM     10  C   UNL     1       5.357   1.309   0.914  1.00  0.00     0.000 A 
ATOM     11  C   UNL     1       6.141  -0.893   1.346  1.00  0.00     0.000 A 
ATOM     12  C   UNL     1       5.505   0.249   1.786  1.00  0.00     0.000 A 
ENDBRANCH   6   7
ENDBRANCH   1   6
TORSDOF 4
ENDMDL
MODEL 3
REMARK VINA RESULT:      -7.2      0.273      1.742
REMARK SMILES O=C(O)CCc1ccccc1
REMARK SMILES IDX 4 1 2 2 1 3 3 4 5 6 6 7 7 8 11 9 8 10 10 11 9 12
REMARK H PARENT 3 5
REMARK Flexibility Score: inf
ROOT
ATOM      1  C   UNL     1       8.339  -0.959  -1.775  1.00  0.00     0.127 C 
ENDROOT
BRANCH   1   2
ATOM      2  C   UNL     1       8.326  -1.996  -2.834  1.00  0.00     0.303 C 
ATOM      3  O   UNL     1       7.255  -2.402  -3.312  1.00  0.00    -0.252 OA
BRANCH   2   4
ATOM      4  O   UNL     1       9.520  -2.516  -3.294  1.00  0.00    -0.481 OA
ATOM      5  H   UNL     1      10.391  -2.411  -2.782  1.00  0.00     0.296 HD
ENDBRANCH   2   4
ENDBRANCH   1   2
BRANCH   1   6
ATOM      6  C   UNL     1       7.173  -0.016  -1.941  1.00  0.00     0.047 C 
BRANCH   6   7
ATOM      7  C   UNL     1       6.471   0.256  -0.672  1.00  0.00    -0.047 A 
ATOM      8  C   UNL     1       5.782   1.411  -0.403  1.00  0.00     0.004 A 
ATOM      9  C   UNL     1       6.515  -0.714   0.301  1.00  0.00     0.004 A 
ATOM     10  C   UNL     1       5.154   1.582   0.815  1.00  0.00     0.000 A 
ATOM     11  C   UNL     1       5.901  -0.565   1.510  1.00  0.00     0.000 A 
ATOM     12  C   UNL     1       5.208   0.596   1.780  1.00  0.00     0.000 A 
ENDBRANCH   6   7
ENDBRANCH   1   6
TORSDOF 4
ENDMDL
MODEL 4
REMARK VINA RESULT:      -7.1      0.619      1.486
REMARK SMILES O=C(O)CCc1ccccc1
REMARK SMILES IDX 4 1 2 2 1 3 3 4 5 6 6 7 7 8 11 9 8 10 10 11 9 12
REMARK H PARENT 3 5
REMARK Flexibility Score: inf
ROOT
ATOM      1  C   UNL     1       8.292  -0.931  -1.853  1.00  0.00     0.127 C 
ENDROOT
BRANCH   1   2
ATOM      2  C   UNL     1       8.318  -2.012  -2.866  1.00  0.00     0.303 C 
ATOM      3  O   UNL     1       7.266  -2.447  -3.359  1.00  0.00    -0.252 OA
BRANCH   2   4
ATOM      4  O   UNL     1       9.530  -2.543  -3.265  1.00  0.00    -0.481 OA
ATOM      5  H   UNL     1      10.287  -1.964  -3.617  1.00  0.00     0.296 HD
ENDBRANCH   2   4
ENDBRANCH   1   2
BRANCH   1   6
ATOM      6  C   UNL     1       7.610  -1.402  -0.592  1.00  0.00     0.047 C 
BRANCH   6   7
ATOM      7  C   UNL     1       6.697  -0.392  -0.024  1.00  0.00    -0.047 A 
ATOM      8  C   UNL     1       6.153  -0.463   1.233  1.00  0.00     0.004 A 
ATOM      9  C   UNL     1       6.371   0.688  -0.810  1.00  0.00     0.004 A 
ATOM     10  C   UNL     1       5.305   0.529   1.685  1.00  0.00     0.000 A 
ATOM     11  C   UNL     1       5.536   1.677  -0.383  1.00  0.00     0.000 A 
ATOM     12  C   UNL     1       4.990   1.606   0.881  1.00  0.00     0.000 A 
ENDBRANCH   6   7
ENDBRANCH   1   6
TORSDOF 4
ENDMDL
MODEL 5
REMARK VINA RESULT:      -6.8      3.368      5.072
REMARK SMILES O=C(O)CCc1ccccc1
REMARK SMILES IDX 4 1 2 2 1 3 3 4 5 6 6 7 7 8 11 9 8 10 10 11 9 12
REMARK H PARENT 3 5
REMARK Flexibility Score: inf
ROOT
ATOM      1  C   UNL     1       4.985   1.778   0.704  1.00  0.00     0.127 C 
ENDROOT
BRANCH   1   2
ATOM      2  C   UNL     1       4.489   1.100   1.925  1.00  0.00     0.303 C 
ATOM      3  O   UNL     1       5.163   0.217   2.479  1.00  0.00    -0.252 OA
BRANCH   2   4
ATOM      4  O   UNL     1       3.263   1.454   2.453  1.00  0.00    -0.481 OA
ATOM      5  H   UNL     1       3.168   1.872   3.374  1.00  0.00     0.296 HD
ENDBRANCH   2   4
ENDBRANCH   1   2
BRANCH   1   6
ATOM      6  C   UNL     1       6.492   1.839   0.707  1.00  0.00     0.047 C 
BRANCH   6   7
ATOM      7  C   UNL     1       7.100   1.037  -0.373  1.00  0.00    -0.047 A 
ATOM      8  C   UNL     1       6.416   0.125  -1.135  1.00  0.00     0.004 A 
ATOM      9  C   UNL     1       8.439   1.218  -0.625  1.00  0.00     0.004 A 
ATOM     10  C   UNL     1       7.066  -0.585  -2.126  1.00  0.00     0.000 A 
ATOM     11  C   UNL     1       9.099   0.527  -1.598  1.00  0.00     0.000 A 
ATOM     12  C   UNL     1       8.412  -0.389  -2.365  1.00  0.00     0.000 A 
ENDBRANCH   6   7
ENDBRANCH   1   6
TORSDOF 4
ENDMDL
