@<TRIPOS>MOLECULE
/home/cewinharhar/GITHUB/reincatalyze/data/processed/docking_pred/2023-Apr-25-1630_maxeplen5_maxtrainstep200_exh32_gamma099_lrac3e-4_lrcr1e-3/ddb46e737fe602632681221f3e2121514b9159c3_ligand_2.pdbqt
 12 12 0 0 0
SMALL
GASTEIGER

@<TRIPOS>ATOM
      1  C          8.2920   -0.9310   -1.8530 C.3     1  UNL1        0.1270
      2  C          8.3180   -2.0120   -2.8660 C.2     1  UNL1        0.3030
      3  O          7.2660   -2.4470   -3.3590 O.2     1  UNL1       -0.2520
      4  O          9.5300   -2.5430   -3.2650 O.3     1  UNL1       -0.4810
      5  H         10.2870   -1.9640   -3.6170 H       1  UNL1        0.2960
      6  C          7.6100   -1.4020   -0.5920 C.3     1  UNL1        0.0470
      7  C          6.6970   -0.3920   -0.0240 C.2     1  UNL1       -0.0470
      8  C          6.1530   -0.4630    1.2330 C.2     1  UNL1        0.0040
      9  C          6.3710    0.6880   -0.8100 C.2     1  UNL1        0.0040
     10  C          5.3050    0.5290    1.6850 C.2     1  UNL1        0.0000
     11  C          5.5360    1.6770   -0.3830 C.2     1  UNL1        0.0000
     12  C          4.9900    1.6060    0.8810 C.2     1  UNL1        0.0000
@<TRIPOS>BOND
     1     5     4    1
     2     3     2    2
     3     4     2    1
     4     2     1    1
     5     1     6    1
     6     9    11    1
     7     9     7    2
     8     6     7    1
     9    11    12    2
    10     7     8    1
    11    12    10    1
    12     8    10    2
