@<TRIPOS>MOLECULE
/home/cewinharhar/GITHUB/reincatalyze/data/processed/docking_pred/2023-Apr-25-1630_maxeplen5_maxtrainstep200_exh32_gamma099_lrac3e-4_lrcr1e-3/ddb46e737fe602632681221f3e2121514b9159c3_ligand_2.pdbqt
 12 12 0 0 0
SMALL
GASTEIGER

@<TRIPOS>ATOM
      1  C          4.9850    1.7780    0.7040 C.3     1  UNL1        0.1270
      2  C          4.4890    1.1000    1.9250 C.2     1  UNL1        0.3030
      3  O          5.1630    0.2170    2.4790 O.2     1  UNL1       -0.2520
      4  O          3.2630    1.4540    2.4530 O.3     1  UNL1       -0.4810
      5  H          3.1680    1.8720    3.3740 H       1  UNL1        0.2960
      6  C          6.4920    1.8390    0.7070 C.3     1  UNL1        0.0470
      7  C          7.1000    1.0370   -0.3730 C.2     1  UNL1       -0.0470
      8  C          6.4160    0.1250   -1.1350 C.2     1  UNL1        0.0040
      9  C          8.4390    1.2180   -0.6250 C.2     1  UNL1        0.0040
     10  C          7.0660   -0.5850   -2.1260 C.2     1  UNL1        0.0000
     11  C          9.0990    0.5270   -1.5980 C.2     1  UNL1        0.0000
     12  C          8.4120   -0.3890   -2.3650 C.2     1  UNL1        0.0000
@<TRIPOS>BOND
     1    12    10    2
     2    12    11    1
     3    10     8    1
     4    11     9    2
     5     8     7    2
     6     9     7    1
     7     7     6    1
     8     1     6    1
     9     1     2    1
    10     2     4    1
    11     2     3    2
    12     4     5    1
