@<TRIPOS>MOLECULE
/home/cewinharhar/GITHUB/reincatalyze/data/processed/docking_pred/2023-Apr-25-1630_maxeplen5_maxtrainstep200_exh32_gamma099_lrac3e-4_lrcr1e-3/df357a1c250a0cea862119ec51667dccc9d8d697_ligand_2.pdbqt
 12 12 0 0 0
SMALL
GASTEIGER

@<TRIPOS>ATOM
      1  C          8.3830   -0.6600   -2.0920 C.3     1  UNL1        0.1270
      2  C          8.3610   -1.9090   -2.8890 C.2     1  UNL1        0.3030
      3  O          7.2870   -2.4140   -3.2500 O.2     1  UNL1       -0.2520
      4  O          9.5520   -2.5200   -3.2330 O.3     1  UNL1       -0.4810
      5  H         10.2290   -2.0800   -3.8500 H       1  UNL1        0.2960
      6  C          7.0330    0.0110   -2.1210 C.3     1  UNL1        0.0470
      7  C          6.4510    0.1860   -0.7760 C.2     1  UNL1       -0.0470
      8  C          5.7750    1.3060   -0.3670 C.2     1  UNL1        0.0040
      9  C          6.6020   -0.8440    0.1220 C.2     1  UNL1        0.0040
     10  C          5.2630    1.3850    0.9140 C.2     1  UNL1        0.0000
     11  C          6.1060   -0.7860    1.3910 C.2     1  UNL1        0.0000
     12  C          5.4240    0.3400    1.8020 C.2     1  UNL1        0.0000
@<TRIPOS>BOND
     1     5     4    1
     2     3     2    2
     3     4     2    1
     4     2     1    1
     5     6     1    1
     6     6     7    1
     7     7     8    2
     8     7     9    1
     9     8    10    1
    10     9    11    2
    11    10    12    2
    12    11    12    1
