@<TRIPOS>MOLECULE
/home/cewinharhar/GITHUB/reincatalyze/data/processed/docking_pred/2023-Apr-25-1630_maxeplen5_maxtrainstep200_exh32_gamma099_lrac3e-4_lrcr1e-3/df357a1c250a0cea862119ec51667dccc9d8d697_ligand_2.pdbqt
 12 12 0 0 0
SMALL
GASTEIGER

@<TRIPOS>ATOM
      1  C          5.5450    2.8450    0.0330 C.3     1  UNL1        0.1270
      2  C          6.2740    3.8180    0.8800 C.2     1  UNL1        0.3030
      3  O          6.1740    3.7830    2.1170 O.2     1  UNL1       -0.2520
      4  O          7.0750    4.7750    0.2870 O.3     1  UNL1       -0.4810
      5  H          6.9540    5.7680    0.4620 H       1  UNL1        0.2960
      6  C          4.8780    1.7950    0.8850 C.3     1  UNL1        0.0470
      7  C          5.6690    0.5540    0.9890 C.2     1  UNL1       -0.0470
      8  C          5.8160   -0.1750    2.1410 C.2     1  UNL1        0.0040
      9  C          6.3000    0.1030   -0.1470 C.2     1  UNL1        0.0040
     10  C          6.5780   -1.3270    2.1480 C.2     1  UNL1        0.0000
     11  C          7.0570   -1.0310   -0.1610 C.2     1  UNL1        0.0000
     12  C          7.2040   -1.7630    0.9970 C.2     1  UNL1        0.0000
@<TRIPOS>BOND
     1    11     9    1
     2    11    12    2
     3     9     7    2
     4     1     2    1
     5     1     6    1
     6     4     5    1
     7     4     2    1
     8     2     3    2
     9     6     7    1
    10     7     8    1
    11    12    10    1
    12     8    10    2
