@<TRIPOS>MOLECULE
/home/cewinharhar/GITHUB/reincatalyze/data/processed/docking_pred/2023-Apr-25-1630_maxeplen5_maxtrainstep200_exh32_gamma099_lrac3e-4_lrcr1e-3/df357a1c250a0cea862119ec51667dccc9d8d697_ligand_2.pdbqt
 12 12 0 0 0
SMALL
GASTEIGER

@<TRIPOS>ATOM
      1  C          8.4000   -0.5500   -2.2790 C.3     1  UNL1        0.1270
      2  C          8.4640   -1.8810   -2.9270 C.2     1  UNL1        0.3030
      3  O          9.5440   -2.4820   -3.0400 O.2     1  UNL1       -0.2520
      4  O          7.3070   -2.4590   -3.4130 O.3     1  UNL1       -0.4810
      5  H          7.3200   -3.2000   -4.1080 H       1  UNL1        0.2960
      6  C          6.9720   -0.0750   -2.1810 C.3     1  UNL1        0.0470
      7  C          6.4860   -0.0050   -0.7890 C.2     1  UNL1       -0.0470
      8  C          6.6250   -1.0140    0.1290 C.2     1  UNL1        0.0040
      9  C          5.8530    1.1490   -0.3930 C.2     1  UNL1        0.0040
     10  C          6.1380   -0.8620    1.4130 C.2     1  UNL1        0.0000
     11  C          5.3650    1.3190    0.8690 C.2     1  UNL1        0.0000
     12  C          5.5050    0.3050    1.7930 C.2     1  UNL1        0.0000
@<TRIPOS>BOND
     1     5     4    1
     2     4     2    1
     3     3     2    2
     4     2     1    1
     5     1     6    1
     6     6     7    1
     7     7     9    2
     8     7     8    1
     9     9    11    1
    10     8    10    2
    11    11    12    2
    12    10    12    1
