MODEL 1
REMARK VINA RESULT:      -7.3      0.000      0.000
REMARK SMILES O=C(O)CCc1ccccc1
REMARK SMILES IDX 4 1 2 2 1 3 3 4 5 6 6 7 7 8 11 9 8 10 10 11 9 12
REMARK H PARENT 3 5
REMARK Flexibility Score: inf
ROOT
ATOM      1  C   UNL     1       8.400  -0.550  -2.279  1.00  0.00     0.127 C 
ENDROOT
BRANCH   1   2
ATOM      2  C   UNL     1       8.464  -1.881  -2.927  1.00  0.00     0.303 C 
ATOM      3  O   UNL     1       9.544  -2.482  -3.040  1.00  0.00    -0.252 OA
BRANCH   2   4
ATOM      4  O   UNL     1       7.307  -2.459  -3.413  1.00  0.00    -0.481 OA
ATOM      5  H   UNL     1       7.320  -3.200  -4.108  1.00  0.00     0.296 HD
ENDBRANCH   2   4
ENDBRANCH   1   2
BRANCH   1   6
ATOM      6  C   UNL     1       6.972  -0.075  -2.181  1.00  0.00     0.047 C 
BRANCH   6   7
ATOM      7  C   UNL     1       6.486  -0.005  -0.789  1.00  0.00    -0.047 A 
ATOM      8  C   UNL     1       6.625  -1.014   0.129  1.00  0.00     0.004 A 
ATOM      9  C   UNL     1       5.853   1.149  -0.393  1.00  0.00     0.004 A 
ATOM     10  C   UNL     1       6.138  -0.862   1.413  1.00  0.00     0.000 A 
ATOM     11  C   UNL     1       5.365   1.319   0.869  1.00  0.00     0.000 A 
ATOM     12  C   UNL     1       5.505   0.305   1.793  1.00  0.00     0.000 A 
ENDBRANCH   6   7
ENDBRANCH   1   6
TORSDOF 4
ENDMDL
MODEL 2
REMARK VINA RESULT:      -7.3      0.158      1.727
REMARK SMILES O=C(O)CCc1ccccc1
REMARK SMILES IDX 4 1 2 2 1 3 3 4 5 6 6 7 7 8 11 9 8 10 10 11 9 12
REMARK H PARENT 3 5
REMARK Flexibility Score: inf
ROOT
ATOM      1  C   UNL     1       8.383  -0.660  -2.092  1.00  0.00     0.127 C 
ENDROOT
BRANCH   1   2
ATOM      2  C   UNL     1       8.361  -1.909  -2.889  1.00  0.00     0.303 C 
ATOM      3  O   UNL     1       7.287  -2.414  -3.250  1.00  0.00    -0.252 OA
BRANCH   2   4
ATOM      4  O   UNL     1       9.552  -2.520  -3.233  1.00  0.00    -0.481 OA
ATOM      5  H   UNL     1      10.229  -2.080  -3.850  1.00  0.00     0.296 HD
ENDBRANCH   2   4
ENDBRANCH   1   2
BRANCH   1   6
ATOM      6  C   UNL     1       7.033   0.011  -2.121  1.00  0.00     0.047 C 
BRANCH   6   7
ATOM      7  C   UNL     1       6.451   0.186  -0.776  1.00  0.00    -0.047 A 
ATOM      8  C   UNL     1       5.775   1.306  -0.367  1.00  0.00     0.004 A 
ATOM      9  C   UNL     1       6.602  -0.844   0.122  1.00  0.00     0.004 A 
ATOM     10  C   UNL     1       5.263   1.385   0.914  1.00  0.00     0.000 A 
ATOM     11  C   UNL     1       6.106  -0.786   1.391  1.00  0.00     0.000 A 
ATOM     12  C   UNL     1       5.424   0.340   1.802  1.00  0.00     0.000 A 
ENDBRANCH   6   7
ENDBRANCH   1   6
TORSDOF 4
ENDMDL
MODEL 3
REMARK VINA RESULT:      -6.7      3.348      5.028
REMARK SMILES O=C(O)CCc1ccccc1
REMARK SMILES IDX 4 1 2 2 1 3 3 4 5 6 6 7 7 8 11 9 8 10 10 11 9 12
REMARK H PARENT 3 5
REMARK Flexibility Score: inf
ROOT
ATOM      1  C   UNL     1       5.051   1.684   0.701  1.00  0.00     0.127 C 
ENDROOT
BRANCH   1   2
ATOM      2  C   UNL     1       4.592   1.010   1.938  1.00  0.00     0.303 C 
ATOM      3  O   UNL     1       5.300   0.158   2.498  1.00  0.00    -0.252 OA
BRANCH   2   4
ATOM      4  O   UNL     1       3.361   1.333   2.475  1.00  0.00    -0.481 OA
ATOM      5  H   UNL     1       2.527   0.782   2.293  1.00  0.00     0.296 HD
ENDBRANCH   2   4
ENDBRANCH   1   2
BRANCH   1   6
ATOM      6  C   UNL     1       6.551   1.841   0.708  1.00  0.00     0.047 C 
BRANCH   6   7
ATOM      7  C   UNL     1       7.212   1.066  -0.360  1.00  0.00    -0.047 A 
ATOM      8  C   UNL     1       8.540   1.176  -0.685  1.00  0.00     0.004 A 
ATOM      9  C   UNL     1       6.442   0.178  -1.073  1.00  0.00     0.004 A 
ATOM     10  C   UNL     1       9.077   0.411  -1.702  1.00  0.00     0.000 A 
ATOM     11  C   UNL     1       6.953  -0.586  -2.081  1.00  0.00     0.000 A 
ATOM     12  C   UNL     1       8.288  -0.476  -2.407  1.00  0.00     0.000 A 
ENDBRANCH   6   7
ENDBRANCH   1   6
TORSDOF 4
ENDMDL
MODEL 4
REMARK VINA RESULT:      -6.6      3.828      4.954
REMARK SMILES O=C(O)CCc1ccccc1
REMARK SMILES IDX 4 1 2 2 1 3 3 4 5 6 6 7 7 8 11 9 8 10 10 11 9 12
REMARK H PARENT 3 5
REMARK Flexibility Score: inf
ROOT
ATOM      1  C   UNL     1       5.609   3.067  -0.044  1.00  0.00     0.127 C 
ENDROOT
BRANCH   1   2
ATOM      2  C   UNL     1       6.387   3.972   0.835  1.00  0.00     0.303 C 
ATOM      3  O   UNL     1       7.203   4.775   0.357  1.00  0.00    -0.252 OA
BRANCH   2   4
ATOM      4  O   UNL     1       6.201   3.921   2.203  1.00  0.00    -0.481 OA
ATOM      5  H   UNL     1       6.747   4.487   2.847  1.00  0.00     0.296 HD
ENDBRANCH   2   4
ENDBRANCH   1   2
BRANCH   1   6
ATOM      6  C   UNL     1       4.916   2.003   0.772  1.00  0.00     0.047 C 
BRANCH   6   7
ATOM      7  C   UNL     1       5.674   0.739   0.825  1.00  0.00    -0.047 A 
ATOM      8  C   UNL     1       6.335   0.189  -0.243  1.00  0.00     0.004 A 
ATOM      9  C   UNL     1       5.716   0.071   2.026  1.00  0.00     0.004 A 
ATOM     10  C   UNL     1       7.021  -1.002  -0.103  1.00  0.00     0.000 A 
ATOM     11  C   UNL     1       6.386  -1.106   2.185  1.00  0.00     0.000 A 
ATOM     12  C   UNL     1       7.052  -1.658   1.112  1.00  0.00     0.000 A 
ENDBRANCH   6   7
ENDBRANCH   1   6
TORSDOF 4
ENDMDL
MODEL 5
REMARK VINA RESULT:      -6.6      3.830      4.921
REMARK SMILES O=C(O)CCc1ccccc1
REMARK SMILES IDX 4 1 2 2 1 3 3 4 5 6 6 7 7 8 11 9 8 10 10 11 9 12
REMARK H PARENT 3 5
REMARK Flexibility Score: inf
ROOT
ATOM      1  C   UNL     1       5.545   2.845   0.033  1.00  0.00     0.127 C 
ENDROOT
BRANCH   1   2
ATOM      2  C   UNL     1       6.274   3.818   0.880  1.00  0.00     0.303 C 
ATOM      3  O   UNL     1       6.174   3.783   2.117  1.00  0.00    -0.252 OA
BRANCH   2   4
ATOM      4  O   UNL     1       7.075   4.775   0.287  1.00  0.00    -0.481 OA
ATOM      5  H   UNL     1       6.954   5.768   0.462  1.00  0.00     0.296 HD
ENDBRANCH   2   4
ENDBRANCH   1   2
BRANCH   1   6
ATOM      6  C   UNL     1       4.878   1.795   0.885  1.00  0.00     0.047 C 
BRANCH   6   7
ATOM      7  C   UNL     1       5.669   0.554   0.989  1.00  0.00    -0.047 A 
ATOM      8  C   UNL     1       5.816  -0.175   2.141  1.00  0.00     0.004 A 
ATOM      9  C   UNL     1       6.300   0.103  -0.147  1.00  0.00     0.004 A 
ATOM     10  C   UNL     1       6.578  -1.327   2.148  1.00  0.00     0.000 A 
ATOM     11  C   UNL     1       7.057  -1.031  -0.161  1.00  0.00     0.000 A 
ATOM     12  C   UNL     1       7.204  -1.763   0.997  1.00  0.00     0.000 A 
ENDBRANCH   6   7
ENDBRANCH   1   6
TORSDOF 4
ENDMDL
