@<TRIPOS>MOLECULE
/home/cewinharhar/GITHUB/reincatalyze/data/processed/docking_pred/2023-Apr-25-1630_maxeplen5_maxtrainstep200_exh32_gamma099_lrac3e-4_lrcr1e-3/df357a1c250a0cea862119ec51667dccc9d8d697_ligand_2.pdbqt
 12 12 0 0 0
SMALL
GASTEIGER

@<TRIPOS>ATOM
      1  C          5.6090    3.0670   -0.0440 C.3     1  UNL1        0.1270
      2  C          6.3870    3.9720    0.8350 C.2     1  UNL1        0.3030
      3  O          7.2030    4.7750    0.3570 O.2     1  UNL1       -0.2520
      4  O          6.2010    3.9210    2.2030 O.3     1  UNL1       -0.4810
      5  H          6.7470    4.4870    2.8470 H       1  UNL1        0.2960
      6  C          4.9160    2.0030    0.7720 C.3     1  UNL1        0.0470
      7  C          5.6740    0.7390    0.8250 C.2     1  UNL1       -0.0470
      8  C          6.3350    0.1890   -0.2430 C.2     1  UNL1        0.0040
      9  C          5.7160    0.0710    2.0260 C.2     1  UNL1        0.0040
     10  C          7.0210   -1.0020   -0.1030 C.2     1  UNL1        0.0000
     11  C          6.3860   -1.1060    2.1850 C.2     1  UNL1        0.0000
     12  C          7.0520   -1.6580    1.1120 C.2     1  UNL1        0.0000
@<TRIPOS>BOND
     1     8    10    1
     2     8     7    2
     3    10    12    2
     4     1     6    1
     5     1     2    1
     6     3     2    2
     7     6     7    1
     8     7     9    1
     9     2     4    1
    10    12    11    1
    11     9    11    2
    12     4     5    1
