@<TRIPOS>MOLECULE
/home/cewinharhar/GITHUB/reincatalyze/data/processed/docking_pred/2023-Apr-25-1630_maxeplen5_maxtrainstep200_exh32_gamma099_lrac3e-4_lrcr1e-3/df357a1c250a0cea862119ec51667dccc9d8d697_ligand_2.pdbqt
 12 12 0 0 0
SMALL
GASTEIGER

@<TRIPOS>ATOM
      1  C          5.0510    1.6840    0.7010 C.3     1  UNL1        0.1270
      2  C          4.5920    1.0100    1.9380 C.2     1  UNL1        0.3030
      3  O          5.3000    0.1580    2.4980 O.2     1  UNL1       -0.2520
      4  O          3.3610    1.3330    2.4750 O.3     1  UNL1       -0.4810
      5  H          2.5270    0.7820    2.2930 H       1  UNL1        0.2960
      6  C          6.5510    1.8410    0.7080 C.3     1  UNL1        0.0470
      7  C          7.2120    1.0660   -0.3600 C.2     1  UNL1       -0.0470
      8  C          8.5400    1.1760   -0.6850 C.2     1  UNL1        0.0040
      9  C          6.4420    0.1780   -1.0730 C.2     1  UNL1        0.0040
     10  C          9.0770    0.4110   -1.7020 C.2     1  UNL1        0.0000
     11  C          6.9530   -0.5860   -2.0810 C.2     1  UNL1        0.0000
     12  C          8.2880   -0.4760   -2.4070 C.2     1  UNL1        0.0000
@<TRIPOS>BOND
     1    12    11    2
     2    12    10    1
     3    11     9    1
     4    10     8    2
     5     9     7    2
     6     8     7    1
     7     7     6    1
     8     1     6    1
     9     1     2    1
    10     2     4    1
    11     2     3    2
    12     5     4    1
