@<TRIPOS>MOLECULE
/home/cewinharhar/GITHUB/reincatalyze/data/processed/docking_pred/2023-Apr-25-1630_maxeplen5_maxtrainstep200_exh32_gamma099_lrac3e-4_lrcr1e-3/e3e22a08cc3fa656d2264310e8071e645bf38a06_ligand_2.pdbqt
 12 12 0 0 0
SMALL
GASTEIGER

@<TRIPOS>ATOM
      1  C          8.2620   -0.9480   -1.8250 C.3     1  UNL1        0.1270
      2  C          8.3070   -2.0130   -2.8540 C.2     1  UNL1        0.3030
      3  O          7.2630   -2.4500   -3.3630 O.2     1  UNL1       -0.2520
      4  O          9.5270   -2.5260   -3.2530 O.3     1  UNL1       -0.4810
      5  H         10.1640   -2.9790   -2.6030 H       1  UNL1        0.2960
      6  C          7.5350   -1.4300   -0.5950 C.3     1  UNL1        0.0470
      7  C          6.6500   -0.4020   -0.0130 C.2     1  UNL1       -0.0470
      8  C          6.1320   -0.4570    1.2550 C.2     1  UNL1        0.0040
      9  C          6.3260    0.6790   -0.7990 C.2     1  UNL1        0.0040
     10  C          5.3090    0.5510    1.7190 C.2     1  UNL1        0.0000
     11  C          5.5160    1.6840   -0.3610 C.2     1  UNL1        0.0000
     12  C          4.9960    1.6290    0.9150 C.2     1  UNL1        0.0000
@<TRIPOS>BOND
     1     3     2    2
     2     4     2    1
     3     4     5    1
     4     2     1    1
     5     1     6    1
     6     9    11    1
     7     9     7    2
     8     6     7    1
     9    11    12    2
    10     7     8    1
    11    12    10    1
    12     8    10    2
