@<TRIPOS>MOLECULE
/home/cewinharhar/GITHUB/reincatalyze/data/processed/docking_pred/2023-Apr-25-1630_maxeplen5_maxtrainstep200_exh32_gamma099_lrac3e-4_lrcr1e-3/e3e22a08cc3fa656d2264310e8071e645bf38a06_ligand_2.pdbqt
 12 12 0 0 0
SMALL
GASTEIGER

@<TRIPOS>ATOM
      1  C          8.4030   -0.5530   -2.1930 C.3     1  UNL1        0.1270
      2  C          8.4960   -1.8340   -2.9330 C.2     1  UNL1        0.3030
      3  O          9.5860   -2.4090   -3.0720 O.2     1  UNL1       -0.2520
      4  O          7.3540   -2.3940   -3.4730 O.3     1  UNL1       -0.4810
      5  H          7.1610   -2.3770   -4.4710 H       1  UNL1        0.2960
      6  C          6.9820   -0.0460   -2.1870 C.3     1  UNL1        0.0470
      7  C          6.4490    0.1490   -0.8250 C.2     1  UNL1       -0.0470
      8  C          5.8470    1.3010   -0.3900 C.2     1  UNL1        0.0040
      9  C          6.5680   -0.8950    0.0610 C.2     1  UNL1        0.0040
     10  C          5.3780    1.3980    0.9060 C.2     1  UNL1        0.0000
     11  C          6.1120   -0.8200    1.3440 C.2     1  UNL1        0.0000
     12  C          5.5060    0.3390    1.7820 C.2     1  UNL1        0.0000
@<TRIPOS>BOND
     1     5     4    1
     2     4     2    1
     3     3     2    2
     4     2     1    1
     5     1     6    1
     6     6     7    1
     7     7     8    2
     8     7     9    1
     9     8    10    1
    10     9    11    2
    11    10    12    2
    12    11    12    1
