@<TRIPOS>MOLECULE
/home/cewinharhar/GITHUB/reincatalyze/data/processed/docking_pred/2023-Apr-25-1630_maxeplen5_maxtrainstep200_exh32_gamma099_lrac3e-4_lrcr1e-3/e3e22a08cc3fa656d2264310e8071e645bf38a06_ligand_2.pdbqt
 12 12 0 0 0
SMALL
GASTEIGER

@<TRIPOS>ATOM
      1  C          5.0050    1.7800    0.7240 C.3     1  UNL1        0.1270
      2  C          4.4950    1.0900    1.9330 C.2     1  UNL1        0.3030
      3  O          5.1580    0.1950    2.4800 O.2     1  UNL1       -0.2520
      4  O          3.2680    1.4480    2.4560 O.3     1  UNL1       -0.4810
      5  H          2.8520    2.3600    2.2920 H       1  UNL1        0.2960
      6  C          6.5130    1.8120    0.7280 C.3     1  UNL1        0.0470
      7  C          7.1060    1.0140   -0.3620 C.2     1  UNL1       -0.0470
      8  C          6.4150    0.0950   -1.1090 C.2     1  UNL1        0.0040
      9  C          8.4380    1.2070   -0.6410 C.2     1  UNL1        0.0040
     10  C          7.0510   -0.6100   -2.1120 C.2     1  UNL1        0.0000
     11  C          9.0840    0.5210   -1.6270 C.2     1  UNL1        0.0000
     12  C          8.3900   -0.4030   -2.3790 C.2     1  UNL1        0.0000
@<TRIPOS>BOND
     1    12    10    2
     2    12    11    1
     3    10     8    1
     4    11     9    2
     5     8     7    2
     6     9     7    1
     7     7     6    1
     8     1     6    1
     9     1     2    1
    10     2     4    1
    11     2     3    2
    12     5     4    1
