@<TRIPOS>MOLECULE
/home/cewinharhar/GITHUB/reincatalyze/data/processed/docking_pred/2023-Apr-25-1630_maxeplen5_maxtrainstep200_exh32_gamma099_lrac3e-4_lrcr1e-3/e3e22a08cc3fa656d2264310e8071e645bf38a06_ligand_2.pdbqt
 12 12 0 0 0
SMALL
GASTEIGER

@<TRIPOS>ATOM
      1  C          8.4350   -0.6020   -2.2180 C.3     1  UNL1        0.1270
      2  C          8.4780   -1.9040   -2.9240 C.2     1  UNL1        0.3030
      3  O          9.5510   -2.5100   -3.0740 O.2     1  UNL1       -0.2520
      4  O          7.3110   -2.4500   -3.4230 O.3     1  UNL1       -0.4810
      5  H          6.3930   -2.1110   -3.1490 H       1  UNL1        0.2960
      6  C          7.0230   -0.0720   -2.1700 C.3     1  UNL1        0.0470
      7  C          6.4970    0.0310   -0.7950 C.2     1  UNL1       -0.0470
      8  C          6.6000   -0.9600    0.1480 C.2     1  UNL1        0.0040
      9  C          5.8630    1.1990   -0.4420 C.2     1  UNL1        0.0040
     10  C          6.0760   -0.7770    1.4130 C.2     1  UNL1        0.0000
     11  C          5.3400    1.3990    0.8020 C.2     1  UNL1        0.0000
     12  C          5.4430    0.4030    1.7490 C.2     1  UNL1        0.0000
@<TRIPOS>BOND
     1     4     5    1
     2     4     2    1
     3     3     2    2
     4     2     1    1
     5     1     6    1
     6     6     7    1
     7     7     9    2
     8     7     8    1
     9     9    11    1
    10     8    10    2
    11    11    12    2
    12    10    12    1
