MODEL 1
REMARK VINA RESULT:      -7.3      0.000      0.000
REMARK SMILES O=C(O)CCc1ccccc1
REMARK SMILES IDX 4 1 2 2 1 3 3 4 5 6 6 7 7 8 11 9 8 10 10 11 9 12
REMARK H PARENT 3 5
REMARK Flexibility Score: inf
ROOT
ATOM      1  C   UNL     1       8.435  -0.602  -2.218  1.00  0.00     0.127 C 
ENDROOT
BRANCH   1   2
ATOM      2  C   UNL     1       8.478  -1.904  -2.924  1.00  0.00     0.303 C 
ATOM      3  O   UNL     1       9.551  -2.510  -3.074  1.00  0.00    -0.252 OA
BRANCH   2   4
ATOM      4  O   UNL     1       7.311  -2.450  -3.423  1.00  0.00    -0.481 OA
ATOM      5  H   UNL     1       6.393  -2.111  -3.149  1.00  0.00     0.296 HD
ENDBRANCH   2   4
ENDBRANCH   1   2
BRANCH   1   6
ATOM      6  C   UNL     1       7.023  -0.072  -2.170  1.00  0.00     0.047 C 
BRANCH   6   7
ATOM      7  C   UNL     1       6.497   0.031  -0.795  1.00  0.00    -0.047 A 
ATOM      8  C   UNL     1       6.600  -0.960   0.148  1.00  0.00     0.004 A 
ATOM      9  C   UNL     1       5.863   1.199  -0.442  1.00  0.00     0.004 A 
ATOM     10  C   UNL     1       6.076  -0.777   1.413  1.00  0.00     0.000 A 
ATOM     11  C   UNL     1       5.340   1.399   0.802  1.00  0.00     0.000 A 
ATOM     12  C   UNL     1       5.443   0.403   1.749  1.00  0.00     0.000 A 
ENDBRANCH   6   7
ENDBRANCH   1   6
TORSDOF 4
ENDMDL
MODEL 2
REMARK VINA RESULT:      -7.3      0.097      1.428
REMARK SMILES O=C(O)CCc1ccccc1
REMARK SMILES IDX 4 1 2 2 1 3 3 4 5 6 6 7 7 8 11 9 8 10 10 11 9 12
REMARK H PARENT 3 5
REMARK Flexibility Score: inf
ROOT
ATOM      1  C   UNL     1       8.403  -0.553  -2.193  1.00  0.00     0.127 C 
ENDROOT
BRANCH   1   2
ATOM      2  C   UNL     1       8.496  -1.834  -2.933  1.00  0.00     0.303 C 
ATOM      3  O   UNL     1       9.586  -2.409  -3.072  1.00  0.00    -0.252 OA
BRANCH   2   4
ATOM      4  O   UNL     1       7.354  -2.394  -3.473  1.00  0.00    -0.481 OA
ATOM      5  H   UNL     1       7.161  -2.377  -4.471  1.00  0.00     0.296 HD
ENDBRANCH   2   4
ENDBRANCH   1   2
BRANCH   1   6
ATOM      6  C   UNL     1       6.982  -0.046  -2.187  1.00  0.00     0.047 C 
BRANCH   6   7
ATOM      7  C   UNL     1       6.449   0.149  -0.825  1.00  0.00    -0.047 A 
ATOM      8  C   UNL     1       5.847   1.301  -0.390  1.00  0.00     0.004 A 
ATOM      9  C   UNL     1       6.568  -0.895   0.061  1.00  0.00     0.004 A 
ATOM     10  C   UNL     1       5.378   1.398   0.906  1.00  0.00     0.000 A 
ATOM     11  C   UNL     1       6.112  -0.820   1.344  1.00  0.00     0.000 A 
ATOM     12  C   UNL     1       5.506   0.339   1.782  1.00  0.00     0.000 A 
ENDBRANCH   6   7
ENDBRANCH   1   6
TORSDOF 4
ENDMDL
MODEL 3
REMARK VINA RESULT:      -7.1      0.626      1.497
REMARK SMILES O=C(O)CCc1ccccc1
REMARK SMILES IDX 4 1 2 2 1 3 3 4 5 6 6 7 7 8 11 9 8 10 10 11 9 12
REMARK H PARENT 3 5
REMARK Flexibility Score: inf
ROOT
ATOM      1  C   UNL     1       8.262  -0.948  -1.825  1.00  0.00     0.127 C 
ENDROOT
BRANCH   1   2
ATOM      2  C   UNL     1       8.307  -2.013  -2.854  1.00  0.00     0.303 C 
ATOM      3  O   UNL     1       7.263  -2.450  -3.363  1.00  0.00    -0.252 OA
BRANCH   2   4
ATOM      4  O   UNL     1       9.527  -2.526  -3.253  1.00  0.00    -0.481 OA
ATOM      5  H   UNL     1      10.164  -2.979  -2.603  1.00  0.00     0.296 HD
ENDBRANCH   2   4
ENDBRANCH   1   2
BRANCH   1   6
ATOM      6  C   UNL     1       7.535  -1.430  -0.595  1.00  0.00     0.047 C 
BRANCH   6   7
ATOM      7  C   UNL     1       6.650  -0.402  -0.013  1.00  0.00    -0.047 A 
ATOM      8  C   UNL     1       6.132  -0.457   1.255  1.00  0.00     0.004 A 
ATOM      9  C   UNL     1       6.326   0.679  -0.799  1.00  0.00     0.004 A 
ATOM     10  C   UNL     1       5.309   0.551   1.719  1.00  0.00     0.000 A 
ATOM     11  C   UNL     1       5.516   1.684  -0.361  1.00  0.00     0.000 A 
ATOM     12  C   UNL     1       4.996   1.629   0.915  1.00  0.00     0.000 A 
ENDBRANCH   6   7
ENDBRANCH   1   6
TORSDOF 4
ENDMDL
MODEL 4
REMARK VINA RESULT:      -6.8      3.371      5.060
REMARK SMILES O=C(O)CCc1ccccc1
REMARK SMILES IDX 4 1 2 2 1 3 3 4 5 6 6 7 7 8 11 9 8 10 10 11 9 12
REMARK H PARENT 3 5
REMARK Flexibility Score: inf
ROOT
ATOM      1  C   UNL     1       5.005   1.780   0.724  1.00  0.00     0.127 C 
ENDROOT
BRANCH   1   2
ATOM      2  C   UNL     1       4.495   1.090   1.933  1.00  0.00     0.303 C 
ATOM      3  O   UNL     1       5.158   0.195   2.480  1.00  0.00    -0.252 OA
BRANCH   2   4
ATOM      4  O   UNL     1       3.268   1.448   2.456  1.00  0.00    -0.481 OA
ATOM      5  H   UNL     1       2.852   2.360   2.292  1.00  0.00     0.296 HD
ENDBRANCH   2   4
ENDBRANCH   1   2
BRANCH   1   6
ATOM      6  C   UNL     1       6.513   1.812   0.728  1.00  0.00     0.047 C 
BRANCH   6   7
ATOM      7  C   UNL     1       7.106   1.014  -0.362  1.00  0.00    -0.047 A 
ATOM      8  C   UNL     1       6.415   0.095  -1.109  1.00  0.00     0.004 A 
ATOM      9  C   UNL     1       8.438   1.207  -0.641  1.00  0.00     0.004 A 
ATOM     10  C   UNL     1       7.051  -0.610  -2.112  1.00  0.00     0.000 A 
ATOM     11  C   UNL     1       9.084   0.521  -1.627  1.00  0.00     0.000 A 
ATOM     12  C   UNL     1       8.390  -0.403  -2.379  1.00  0.00     0.000 A 
ENDBRANCH   6   7
ENDBRANCH   1   6
TORSDOF 4
ENDMDL
MODEL 5
REMARK VINA RESULT:      -6.7      1.966      2.338
REMARK SMILES O=C(O)CCc1ccccc1
REMARK SMILES IDX 4 1 2 2 1 3 3 4 5 6 6 7 7 8 11 9 8 10 10 11 9 12
REMARK H PARENT 3 5
REMARK Flexibility Score: inf
ROOT
ATOM      1  C   UNL     1       8.303   0.252  -2.147  1.00  0.00     0.127 C 
ENDROOT
BRANCH   1   2
ATOM      2  C   UNL     1       9.434   0.395  -1.199  1.00  0.00     0.303 C 
ATOM      3  O   UNL     1       9.522  -0.336  -0.200  1.00  0.00    -0.252 OA
BRANCH   2   4
ATOM      4  O   UNL     1      10.400   1.355  -1.430  1.00  0.00    -0.481 OA
ATOM      5  H   UNL     1      10.945   1.381  -2.288  1.00  0.00     0.296 HD
ENDBRANCH   2   4
ENDBRANCH   1   2
BRANCH   1   6
ATOM      6  C   UNL     1       7.189  -0.553  -1.525  1.00  0.00     0.047 C 
BRANCH   6   7
ATOM      7  C   UNL     1       6.391   0.226  -0.559  1.00  0.00    -0.047 A 
ATOM      8  C   UNL     1       6.145  -0.165   0.733  1.00  0.00     0.004 A 
ATOM      9  C   UNL     1       5.860   1.419  -0.986  1.00  0.00     0.004 A 
ATOM     10  C   UNL     1       5.384   0.627   1.570  1.00  0.00     0.000 A 
ATOM     11  C   UNL     1       5.106   2.216  -0.176  1.00  0.00     0.000 A 
ATOM     12  C   UNL     1       4.859   1.823   1.123  1.00  0.00     0.000 A 
ENDBRANCH   6   7
ENDBRANCH   1   6
TORSDOF 4
ENDMDL
