@<TRIPOS>MOLECULE
/home/cewinharhar/GITHUB/reincatalyze/data/processed/docking_pred/2023-Apr-25-1630_maxeplen5_maxtrainstep200_exh32_gamma099_lrac3e-4_lrcr1e-3/e3e22a08cc3fa656d2264310e8071e645bf38a06_ligand_2.pdbqt
 12 12 0 0 0
SMALL
GASTEIGER

@<TRIPOS>ATOM
      1  C          8.3030    0.2520   -2.1470 C.3     1  UNL1        0.1270
      2  C          9.4340    0.3950   -1.1990 C.2     1  UNL1        0.3030
      3  O          9.5220   -0.3360   -0.2000 O.2     1  UNL1       -0.2520
      4  O         10.4000    1.3550   -1.4300 O.3     1  UNL1       -0.4810
      5  H         10.9450    1.3810   -2.2880 H       1  UNL1        0.2960
      6  C          7.1890   -0.5530   -1.5250 C.3     1  UNL1        0.0470
      7  C          6.3910    0.2260   -0.5590 C.2     1  UNL1       -0.0470
      8  C          6.1450   -0.1650    0.7330 C.2     1  UNL1        0.0040
      9  C          5.8600    1.4190   -0.9860 C.2     1  UNL1        0.0040
     10  C          5.3840    0.6270    1.5700 C.2     1  UNL1        0.0000
     11  C          5.1060    2.2160   -0.1760 C.2     1  UNL1        0.0000
     12  C          4.8590    1.8230    1.1230 C.2     1  UNL1        0.0000
@<TRIPOS>BOND
     1     5     4    1
     2     1     6    1
     3     1     2    1
     4     6     7    1
     5     4     2    1
     6     2     3    2
     7     9     7    2
     8     9    11    1
     9     7     8    1
    10    11    12    2
    11     8    10    2
    12    12    10    1
