@<TRIPOS>MOLECULE
/home/cewinharhar/GITHUB/reincatalyze/data/processed/docking_pred/2023-Apr-25-1630_maxeplen5_maxtrainstep200_exh32_gamma099_lrac3e-4_lrcr1e-3/e3fbdfe9b196bdc40f83d7817e536621cd4b8c1b_ligand_2.pdbqt
 12 12 0 0 0
SMALL
GASTEIGER

@<TRIPOS>ATOM
      1  C          8.3380    0.2800   -1.8740 C.3     1  UNL1        0.1270
      2  C          9.4870    0.1770   -0.9440 C.2     1  UNL1        0.3030
      3  O          9.4260   -0.5450    0.0630 O.2     1  UNL1       -0.2520
      4  O         10.6400    0.8940   -1.2010 O.3     1  UNL1       -0.4810
      5  H         10.6200    1.8420   -1.5660 H       1  UNL1        0.2960
      6  C          7.1740   -0.5370   -1.3720 C.3     1  UNL1        0.0470
      7  C          6.3440    0.1900   -0.3930 C.2     1  UNL1       -0.0470
      8  C          5.7880    1.4240   -0.6180 C.2     1  UNL1        0.0040
      9  C          6.1170   -0.4120    0.8220 C.2     1  UNL1        0.0040
     10  C          5.0230    2.0330    0.3580 C.2     1  UNL1        0.0000
     11  C          5.3650    0.1740    1.7980 C.2     1  UNL1        0.0000
     12  C          4.8060    1.4130    1.5720 C.2     1  UNL1        0.0000
@<TRIPOS>BOND
     1     1     6    1
     2     1     2    1
     3     5     4    1
     4     6     7    1
     5     4     2    1
     6     2     3    2
     7     8     7    2
     8     8    10    1
     9     7     9    1
    10    10    12    2
    11     9    11    2
    12    12    11    1
