MODEL 1
REMARK VINA RESULT:      -7.4      0.000      0.000
REMARK SMILES O=C(O)CCc1ccccc1
REMARK SMILES IDX 4 1 2 2 1 3 3 4 5 6 6 7 7 8 11 9 8 10 10 11 9 12
REMARK H PARENT 3 5
REMARK Flexibility Score: inf
ROOT
ATOM      1  C   UNL     1       8.438  -0.749  -2.001  1.00  0.00     0.127 C 
ENDROOT
BRANCH   1   2
ATOM      2  C   UNL     1       8.466  -1.963  -2.851  1.00  0.00     0.303 C 
ATOM      3  O   UNL     1       9.534  -2.552  -3.082  1.00  0.00    -0.252 OA
BRANCH   2   4
ATOM      4  O   UNL     1       7.290  -2.443  -3.394  1.00  0.00    -0.481 OA
ATOM      5  H   UNL     1       7.278  -3.129  -4.144  1.00  0.00     0.296 HD
ENDBRANCH   2   4
ENDBRANCH   1   2
BRANCH   1   6
ATOM      6  C   UNL     1       7.090  -0.077  -2.082  1.00  0.00     0.047 C 
BRANCH   6   7
ATOM      7  C   UNL     1       6.473   0.132  -0.758  1.00  0.00    -0.047 A 
ATOM      8  C   UNL     1       5.799   1.268  -0.390  1.00  0.00     0.004 A 
ATOM      9  C   UNL     1       6.587  -0.881   0.165  1.00  0.00     0.004 A 
ATOM     10  C   UNL     1       5.253   1.378   0.874  1.00  0.00     0.000 A 
ATOM     11  C   UNL     1       6.056  -0.792   1.417  1.00  0.00     0.000 A 
ATOM     12  C   UNL     1       5.377   0.350   1.787  1.00  0.00     0.000 A 
ENDBRANCH   6   7
ENDBRANCH   1   6
TORSDOF 4
ENDMDL
MODEL 2
REMARK VINA RESULT:      -7.2      0.118      1.725
REMARK SMILES O=C(O)CCc1ccccc1
REMARK SMILES IDX 4 1 2 2 1 3 3 4 5 6 6 7 7 8 11 9 8 10 10 11 9 12
REMARK H PARENT 3 5
REMARK Flexibility Score: inf
ROOT
ATOM      1  C   UNL     1       8.404  -0.614  -2.174  1.00  0.00     0.127 C 
ENDROOT
BRANCH   1   2
ATOM      2  C   UNL     1       8.371  -1.901  -2.908  1.00  0.00     0.303 C 
ATOM      3  O   UNL     1       7.291  -2.415  -3.241  1.00  0.00    -0.252 OA
BRANCH   2   4
ATOM      4  O   UNL     1       9.556  -2.537  -3.225  1.00  0.00    -0.481 OA
ATOM      5  H   UNL     1      10.439  -2.039  -3.290  1.00  0.00     0.296 HD
ENDBRANCH   2   4
ENDBRANCH   1   2
BRANCH   1   6
ATOM      6  C   UNL     1       7.025  -0.006  -2.107  1.00  0.00     0.047 C 
BRANCH   6   7
ATOM      7  C   UNL     1       6.490   0.048  -0.733  1.00  0.00    -0.047 A 
ATOM      8  C   UNL     1       6.609  -0.966   0.183  1.00  0.00     0.004 A 
ATOM      9  C   UNL     1       5.829   1.191  -0.351  1.00  0.00     0.004 A 
ATOM     10  C   UNL     1       6.076  -0.830   1.450  1.00  0.00     0.000 A 
ATOM     11  C   UNL     1       5.295   1.345   0.894  1.00  0.00     0.000 A 
ATOM     12  C   UNL     1       5.415   0.326   1.815  1.00  0.00     0.000 A 
ENDBRANCH   6   7
ENDBRANCH   1   6
TORSDOF 4
ENDMDL
MODEL 3
REMARK VINA RESULT:      -7.0      0.599      1.538
REMARK SMILES O=C(O)CCc1ccccc1
REMARK SMILES IDX 4 1 2 2 1 3 3 4 5 6 6 7 7 8 11 9 8 10 10 11 9 12
REMARK H PARENT 3 5
REMARK Flexibility Score: inf
ROOT
ATOM      1  C   UNL     1       7.866  -1.588  -1.422  1.00  0.00     0.127 C 
ENDROOT
BRANCH   1   2
ATOM      2  C   UNL     1       8.197  -2.197  -2.732  1.00  0.00     0.303 C 
ATOM      3  O   UNL     1       9.375  -2.429  -3.045  1.00  0.00    -0.252 OA
BRANCH   2   4
ATOM      4  O   UNL     1       7.182  -2.510  -3.615  1.00  0.00    -0.481 OA
ATOM      5  H   UNL     1       6.950  -3.468  -3.860  1.00  0.00     0.296 HD
ENDBRANCH   2   4
ENDBRANCH   1   2
BRANCH   1   6
ATOM      6  C   UNL     1       7.246  -0.226  -1.612  1.00  0.00     0.047 C 
BRANCH   6   7
ATOM      7  C   UNL     1       6.453   0.209  -0.446  1.00  0.00    -0.047 A 
ATOM      8  C   UNL     1       6.333  -0.507   0.717  1.00  0.00     0.004 A 
ATOM      9  C   UNL     1       5.793   1.412  -0.538  1.00  0.00     0.004 A 
ATOM     10  C   UNL     1       5.567  -0.023   1.760  1.00  0.00     0.000 A 
ATOM     11  C   UNL     1       5.032   1.907   0.480  1.00  0.00     0.000 A 
ATOM     12  C   UNL     1       4.912   1.187   1.649  1.00  0.00     0.000 A 
ENDBRANCH   6   7
ENDBRANCH   1   6
TORSDOF 4
ENDMDL
MODEL 4
REMARK VINA RESULT:      -6.8      3.366      5.063
REMARK SMILES O=C(O)CCc1ccccc1
REMARK SMILES IDX 4 1 2 2 1 3 3 4 5 6 6 7 7 8 11 9 8 10 10 11 9 12
REMARK H PARENT 3 5
REMARK Flexibility Score: inf
ROOT
ATOM      1  C   UNL     1       5.004   1.777   0.714  1.00  0.00     0.127 C 
ENDROOT
BRANCH   1   2
ATOM      2  C   UNL     1       4.484   1.094   1.922  1.00  0.00     0.303 C 
ATOM      3  O   UNL     1       5.134   0.190   2.470  1.00  0.00    -0.252 OA
BRANCH   2   4
ATOM      4  O   UNL     1       3.261   1.467   2.444  1.00  0.00    -0.481 OA
ATOM      5  H   UNL     1       2.848   2.378   2.262  1.00  0.00     0.296 HD
ENDBRANCH   2   4
ENDBRANCH   1   2
BRANCH   1   6
ATOM      6  C   UNL     1       6.508   1.875   0.767  1.00  0.00     0.047 C 
BRANCH   6   7
ATOM      7  C   UNL     1       7.170   1.123  -0.317  1.00  0.00    -0.047 A 
ATOM      8  C   UNL     1       8.503   1.219  -0.621  1.00  0.00     0.004 A 
ATOM      9  C   UNL     1       6.393   0.273  -1.068  1.00  0.00     0.004 A 
ATOM     10  C   UNL     1       9.039   0.477  -1.656  1.00  0.00     0.000 A 
ATOM     11  C   UNL     1       6.902  -0.467  -2.094  1.00  0.00     0.000 A 
ATOM     12  C   UNL     1       8.243  -0.372  -2.399  1.00  0.00     0.000 A 
ENDBRANCH   6   7
ENDBRANCH   1   6
TORSDOF 4
ENDMDL
MODEL 5
REMARK VINA RESULT:      -6.5      2.002      2.278
REMARK SMILES O=C(O)CCc1ccccc1
REMARK SMILES IDX 4 1 2 2 1 3 3 4 5 6 6 7 7 8 11 9 8 10 10 11 9 12
REMARK H PARENT 3 5
REMARK Flexibility Score: inf
ROOT
ATOM      1  C   UNL     1       8.338   0.280  -1.874  1.00  0.00     0.127 C 
ENDROOT
BRANCH   1   2
ATOM      2  C   UNL     1       9.487   0.177  -0.944  1.00  0.00     0.303 C 
ATOM      3  O   UNL     1       9.426  -0.545   0.063  1.00  0.00    -0.252 OA
BRANCH   2   4
ATOM      4  O   UNL     1      10.640   0.894  -1.201  1.00  0.00    -0.481 OA
ATOM      5  H   UNL     1      10.620   1.842  -1.566  1.00  0.00     0.296 HD
ENDBRANCH   2   4
ENDBRANCH   1   2
BRANCH   1   6
ATOM      6  C   UNL     1       7.174  -0.537  -1.372  1.00  0.00     0.047 C 
BRANCH   6   7
ATOM      7  C   UNL     1       6.344   0.190  -0.393  1.00  0.00    -0.047 A 
ATOM      8  C   UNL     1       5.788   1.424  -0.618  1.00  0.00     0.004 A 
ATOM      9  C   UNL     1       6.117  -0.412   0.822  1.00  0.00     0.004 A 
ATOM     10  C   UNL     1       5.023   2.033   0.358  1.00  0.00     0.000 A 
ATOM     11  C   UNL     1       5.365   0.174   1.798  1.00  0.00     0.000 A 
ATOM     12  C   UNL     1       4.806   1.413   1.572  1.00  0.00     0.000 A 
ENDBRANCH   6   7
ENDBRANCH   1   6
TORSDOF 4
ENDMDL
