@<TRIPOS>MOLECULE
/home/cewinharhar/GITHUB/reincatalyze/data/processed/docking_pred/2023-Apr-25-1630_maxeplen5_maxtrainstep200_exh32_gamma099_lrac3e-4_lrcr1e-3/e3fbdfe9b196bdc40f83d7817e536621cd4b8c1b_ligand_2.pdbqt
 12 12 0 0 0
SMALL
GASTEIGER

@<TRIPOS>ATOM
      1  C          5.0040    1.7770    0.7140 C.3     1  UNL1        0.1270
      2  C          4.4840    1.0940    1.9220 C.2     1  UNL1        0.3030
      3  O          5.1340    0.1900    2.4700 O.2     1  UNL1       -0.2520
      4  O          3.2610    1.4670    2.4440 O.3     1  UNL1       -0.4810
      5  H          2.8480    2.3780    2.2620 H       1  UNL1        0.2960
      6  C          6.5080    1.8750    0.7670 C.3     1  UNL1        0.0470
      7  C          7.1700    1.1230   -0.3170 C.2     1  UNL1       -0.0470
      8  C          8.5030    1.2190   -0.6210 C.2     1  UNL1        0.0040
      9  C          6.3930    0.2730   -1.0680 C.2     1  UNL1        0.0040
     10  C          9.0390    0.4770   -1.6560 C.2     1  UNL1        0.0000
     11  C          6.9020   -0.4670   -2.0940 C.2     1  UNL1        0.0000
     12  C          8.2430   -0.3720   -2.3990 C.2     1  UNL1        0.0000
@<TRIPOS>BOND
     1    12    11    2
     2    12    10    1
     3    11     9    1
     4    10     8    2
     5     9     7    2
     6     8     7    1
     7     7     6    1
     8     1     6    1
     9     1     2    1
    10     2     4    1
    11     2     3    2
    12     5     4    1
