@<TRIPOS>MOLECULE
/home/cewinharhar/GITHUB/reincatalyze/data/processed/docking_pred/2023-Apr-25-1630_maxeplen5_maxtrainstep200_exh32_gamma099_lrac3e-4_lrcr1e-3/e3fbdfe9b196bdc40f83d7817e536621cd4b8c1b_ligand_2.pdbqt
 12 12 0 0 0
SMALL
GASTEIGER

@<TRIPOS>ATOM
      1  C          7.8660   -1.5880   -1.4220 C.3     1  UNL1        0.1270
      2  C          8.1970   -2.1970   -2.7320 C.2     1  UNL1        0.3030
      3  O          9.3750   -2.4290   -3.0450 O.2     1  UNL1       -0.2520
      4  O          7.1820   -2.5100   -3.6150 O.3     1  UNL1       -0.4810
      5  H          6.9500   -3.4680   -3.8600 H       1  UNL1        0.2960
      6  C          7.2460   -0.2260   -1.6120 C.3     1  UNL1        0.0470
      7  C          6.4530    0.2090   -0.4460 C.2     1  UNL1       -0.0470
      8  C          6.3330   -0.5070    0.7170 C.2     1  UNL1        0.0040
      9  C          5.7930    1.4120   -0.5380 C.2     1  UNL1        0.0040
     10  C          5.5670   -0.0230    1.7600 C.2     1  UNL1        0.0000
     11  C          5.0320    1.9070    0.4800 C.2     1  UNL1        0.0000
     12  C          4.9120    1.1870    1.6490 C.2     1  UNL1        0.0000
@<TRIPOS>BOND
     1     5     4    1
     2     4     2    1
     3     3     2    2
     4     2     1    1
     5     6     1    1
     6     6     7    1
     7     9     7    2
     8     9    11    1
     9     7     8    1
    10    11    12    2
    11     8    10    2
    12    12    10    1
