@<TRIPOS>MOLECULE
/home/cewinharhar/GITHUB/reincatalyze/data/processed/docking_pred/2023-Apr-25-1630_maxeplen5_maxtrainstep200_exh32_gamma099_lrac3e-4_lrcr1e-3/e3fbdfe9b196bdc40f83d7817e536621cd4b8c1b_ligand_2.pdbqt
 12 12 0 0 0
SMALL
GASTEIGER

@<TRIPOS>ATOM
      1  C          8.4380   -0.7490   -2.0010 C.3     1  UNL1        0.1270
      2  C          8.4660   -1.9630   -2.8510 C.2     1  UNL1        0.3030
      3  O          9.5340   -2.5520   -3.0820 O.2     1  UNL1       -0.2520
      4  O          7.2900   -2.4430   -3.3940 O.3     1  UNL1       -0.4810
      5  H          7.2780   -3.1290   -4.1440 H       1  UNL1        0.2960
      6  C          7.0900   -0.0770   -2.0820 C.3     1  UNL1        0.0470
      7  C          6.4730    0.1320   -0.7580 C.2     1  UNL1       -0.0470
      8  C          5.7990    1.2680   -0.3900 C.2     1  UNL1        0.0040
      9  C          6.5870   -0.8810    0.1650 C.2     1  UNL1        0.0040
     10  C          5.2530    1.3780    0.8740 C.2     1  UNL1        0.0000
     11  C          6.0560   -0.7920    1.4170 C.2     1  UNL1        0.0000
     12  C          5.3770    0.3500    1.7870 C.2     1  UNL1        0.0000
@<TRIPOS>BOND
     1     5     4    1
     2     4     2    1
     3     3     2    2
     4     2     1    1
     5     6     1    1
     6     6     7    1
     7     7     8    2
     8     7     9    1
     9     8    10    1
    10     9    11    2
    11    10    12    2
    12    11    12    1
