@<TRIPOS>MOLECULE
/home/cewinharhar/GITHUB/reincatalyze/data/processed/docking_pred/2023-Apr-25-1630_maxeplen5_maxtrainstep200_exh32_gamma099_lrac3e-4_lrcr1e-3/e3fbdfe9b196bdc40f83d7817e536621cd4b8c1b_ligand_2.pdbqt
 12 12 0 0 0
SMALL
GASTEIGER

@<TRIPOS>ATOM
      1  C          8.4040   -0.6140   -2.1740 C.3     1  UNL1        0.1270
      2  C          8.3710   -1.9010   -2.9080 C.2     1  UNL1        0.3030
      3  O          7.2910   -2.4150   -3.2410 O.2     1  UNL1       -0.2520
      4  O          9.5560   -2.5370   -3.2250 O.3     1  UNL1       -0.4810
      5  H         10.4390   -2.0390   -3.2900 H       1  UNL1        0.2960
      6  C          7.0250   -0.0060   -2.1070 C.3     1  UNL1        0.0470
      7  C          6.4900    0.0480   -0.7330 C.2     1  UNL1       -0.0470
      8  C          6.6090   -0.9660    0.1830 C.2     1  UNL1        0.0040
      9  C          5.8290    1.1910   -0.3510 C.2     1  UNL1        0.0040
     10  C          6.0760   -0.8300    1.4500 C.2     1  UNL1        0.0000
     11  C          5.2950    1.3450    0.8940 C.2     1  UNL1        0.0000
     12  C          5.4150    0.3260    1.8150 C.2     1  UNL1        0.0000
@<TRIPOS>BOND
     1     5     4    1
     2     3     2    2
     3     4     2    1
     4     2     1    1
     5     1     6    1
     6     6     7    1
     7     7     9    2
     8     7     8    1
     9     9    11    1
    10     8    10    2
    11    11    12    2
    12    10    12    1
