MODEL 1
REMARK VINA RESULT:      -7.3      0.000      0.000
REMARK SMILES O=C(O)CCc1ccccc1
REMARK SMILES IDX 4 1 2 2 1 3 3 4 5 6 6 7 7 8 11 9 8 10 10 11 9 12
REMARK H PARENT 3 5
REMARK Flexibility Score: inf
ROOT
ATOM      1  C   UNL     1       8.446  -0.566  -2.233  1.00  0.00     0.127 C 
ENDROOT
BRANCH   1   2
ATOM      2  C   UNL     1       8.485  -1.872  -2.933  1.00  0.00     0.303 C 
ATOM      3  O   UNL     1       9.559  -2.467  -3.108  1.00  0.00    -0.252 OA
BRANCH   2   4
ATOM      4  O   UNL     1       7.310  -2.434  -3.395  1.00  0.00    -0.481 OA
ATOM      5  H   UNL     1       6.494  -1.874  -3.626  1.00  0.00     0.296 HD
ENDBRANCH   2   4
ENDBRANCH   1   2
BRANCH   1   6
ATOM      6  C   UNL     1       7.037  -0.028  -2.194  1.00  0.00     0.047 C 
BRANCH   6   7
ATOM      7  C   UNL     1       6.508   0.092  -0.822  1.00  0.00    -0.047 A 
ATOM      8  C   UNL     1       6.594  -0.894   0.127  1.00  0.00     0.004 A 
ATOM      9  C   UNL     1       5.888   1.270  -0.479  1.00  0.00     0.004 A 
ATOM     10  C   UNL     1       6.069  -0.696   1.390  1.00  0.00     0.000 A 
ATOM     11  C   UNL     1       5.363   1.485   0.761  1.00  0.00     0.000 A 
ATOM     12  C   UNL     1       5.450   0.494   1.716  1.00  0.00     0.000 A 
ENDBRANCH   6   7
ENDBRANCH   1   6
TORSDOF 4
ENDMDL
MODEL 2
REMARK VINA RESULT:      -7.2      0.164      1.726
REMARK SMILES O=C(O)CCc1ccccc1
REMARK SMILES IDX 4 1 2 2 1 3 3 4 5 6 6 7 7 8 11 9 8 10 10 11 9 12
REMARK H PARENT 3 5
REMARK Flexibility Score: inf
ROOT
ATOM      1  C   UNL     1       8.393  -0.649  -2.116  1.00  0.00     0.127 C 
ENDROOT
BRANCH   1   2
ATOM      2  C   UNL     1       8.373  -1.906  -2.900  1.00  0.00     0.303 C 
ATOM      3  O   UNL     1       7.299  -2.424  -3.243  1.00  0.00    -0.252 OA
BRANCH   2   4
ATOM      4  O   UNL     1       9.565  -2.509  -3.252  1.00  0.00    -0.481 OA
ATOM      5  H   UNL     1      10.259  -2.785  -2.563  1.00  0.00     0.296 HD
ENDBRANCH   2   4
ENDBRANCH   1   2
BRANCH   1   6
ATOM      6  C   UNL     1       7.032   0.001  -2.123  1.00  0.00     0.047 C 
BRANCH   6   7
ATOM      7  C   UNL     1       6.462   0.151  -0.770  1.00  0.00    -0.047 A 
ATOM      8  C   UNL     1       5.805   1.271  -0.328  1.00  0.00     0.004 A 
ATOM      9  C   UNL     1       6.602  -0.903   0.101  1.00  0.00     0.004 A 
ATOM     10  C   UNL     1       5.303   1.326   0.957  1.00  0.00     0.000 A 
ATOM     11  C   UNL     1       6.114  -0.869   1.374  1.00  0.00     0.000 A 
ATOM     12  C   UNL     1       5.454   0.256   1.818  1.00  0.00     0.000 A 
ENDBRANCH   6   7
ENDBRANCH   1   6
TORSDOF 4
ENDMDL
MODEL 3
REMARK VINA RESULT:      -6.8      3.353      5.053
REMARK SMILES O=C(O)CCc1ccccc1
REMARK SMILES IDX 4 1 2 2 1 3 3 4 5 6 6 7 7 8 11 9 8 10 10 11 9 12
REMARK H PARENT 3 5
REMARK Flexibility Score: inf
ROOT
ATOM      1  C   UNL     1       4.972   1.815   0.678  1.00  0.00     0.127 C 
ENDROOT
BRANCH   1   2
ATOM      2  C   UNL     1       4.501   1.128   1.904  1.00  0.00     0.303 C 
ATOM      3  O   UNL     1       5.197   0.259   2.452  1.00  0.00    -0.252 OA
BRANCH   2   4
ATOM      4  O   UNL     1       3.273   1.459   2.443  1.00  0.00    -0.481 OA
ATOM      5  H   UNL     1       2.779   2.309   2.187  1.00  0.00     0.296 HD
ENDBRANCH   2   4
ENDBRANCH   1   2
BRANCH   1   6
ATOM      6  C   UNL     1       6.477   1.906   0.667  1.00  0.00     0.047 C 
BRANCH   6   7
ATOM      7  C   UNL     1       7.092   1.095  -0.402  1.00  0.00    -0.047 A 
ATOM      8  C   UNL     1       6.406   0.202  -1.184  1.00  0.00     0.004 A 
ATOM      9  C   UNL     1       8.440   1.248  -0.622  1.00  0.00     0.004 A 
ATOM     10  C   UNL     1       7.064  -0.518  -2.163  1.00  0.00     0.000 A 
ATOM     11  C   UNL     1       9.108   0.547  -1.582  1.00  0.00     0.000 A 
ATOM     12  C   UNL     1       8.419  -0.351  -2.370  1.00  0.00     0.000 A 
ENDBRANCH   6   7
ENDBRANCH   1   6
TORSDOF 4
ENDMDL
MODEL 4
REMARK VINA RESULT:      -6.6      3.723      4.983
REMARK SMILES O=C(O)CCc1ccccc1
REMARK SMILES IDX 4 1 2 2 1 3 3 4 5 6 6 7 7 8 11 9 8 10 10 11 9 12
REMARK H PARENT 3 5
REMARK Flexibility Score: inf
ROOT
ATOM      1  C   UNL     1       5.364   2.964   0.094  1.00  0.00     0.127 C 
ENDROOT
BRANCH   1   2
ATOM      2  C   UNL     1       6.211   3.932   0.831  1.00  0.00     0.303 C 
ATOM      3  O   UNL     1       6.889   4.775   0.223  1.00  0.00    -0.252 OA
BRANCH   2   4
ATOM      4  O   UNL     1       6.248   3.894   2.212  1.00  0.00    -0.481 OA
ATOM      5  H   UNL     1       5.405   3.932   2.778  1.00  0.00     0.296 HD
ENDBRANCH   2   4
ENDBRANCH   1   2
BRANCH   1   6
ATOM      6  C   UNL     1       5.240   1.674   0.865  1.00  0.00     0.047 C 
BRANCH   6   7
ATOM      7  C   UNL     1       5.994   0.565   0.250  1.00  0.00    -0.047 A 
ATOM      8  C   UNL     1       6.439  -0.538   0.932  1.00  0.00     0.004 A 
ATOM      9  C   UNL     1       6.267   0.649  -1.095  1.00  0.00     0.004 A 
ATOM     10  C   UNL     1       7.141  -1.530   0.275  1.00  0.00     0.000 A 
ATOM     11  C   UNL     1       6.959  -0.319  -1.762  1.00  0.00     0.000 A 
ATOM     12  C   UNL     1       7.405  -1.429  -1.076  1.00  0.00     0.000 A 
ENDBRANCH   6   7
ENDBRANCH   1   6
TORSDOF 4
ENDMDL
MODEL 5
REMARK VINA RESULT:      -6.5      1.873      2.826
REMARK SMILES O=C(O)CCc1ccccc1
REMARK SMILES IDX 4 1 2 2 1 3 3 4 5 6 6 7 7 8 11 9 8 10 10 11 9 12
REMARK H PARENT 3 5
REMARK Flexibility Score: inf
ROOT
ATOM      1  C   UNL     1       8.179  -1.540   1.088  1.00  0.00     0.127 C 
ENDROOT
BRANCH   1   2
ATOM      2  C   UNL     1       8.477  -2.758   0.299  1.00  0.00     0.303 C 
ATOM      3  O   UNL     1       9.101  -3.705   0.803  1.00  0.00    -0.252 OA
BRANCH   2   4
ATOM      4  O   UNL     1       8.056  -2.841  -1.015  1.00  0.00    -0.481 OA
ATOM      5  H   UNL     1       7.713  -3.706  -1.421  1.00  0.00     0.296 HD
ENDBRANCH   2   4
ENDBRANCH   1   2
BRANCH   1   6
ATOM      6  C   UNL     1       6.692  -1.386   1.284  1.00  0.00     0.047 C 
BRANCH   6   7
ATOM      7  C   UNL     1       6.165  -0.131   0.714  1.00  0.00    -0.047 A 
ATOM      8  C   UNL     1       6.393   0.287  -0.572  1.00  0.00     0.004 A 
ATOM      9  C   UNL     1       5.399   0.667   1.529  1.00  0.00     0.004 A 
ATOM     10  C   UNL     1       5.860   1.480  -1.023  1.00  0.00     0.000 A 
ATOM     11  C   UNL     1       4.865   1.847   1.103  1.00  0.00     0.000 A 
ATOM     12  C   UNL     1       5.092   2.268  -0.189  1.00  0.00     0.000 A 
ENDBRANCH   6   7
ENDBRANCH   1   6
TORSDOF 4
ENDMDL
