@<TRIPOS>MOLECULE
/home/cewinharhar/GITHUB/reincatalyze/data/processed/docking_pred/2023-Apr-25-1630_maxeplen5_maxtrainstep200_exh32_gamma099_lrac3e-4_lrcr1e-3/e4036567ae6c7c824a0e93db279f74886267d276_ligand_2.pdbqt
 12 12 0 0 0
SMALL
GASTEIGER

@<TRIPOS>ATOM
      1  C          8.3930   -0.6490   -2.1160 C.3     1  UNL1        0.1270
      2  C          8.3730   -1.9060   -2.9000 C.2     1  UNL1        0.3030
      3  O          7.2990   -2.4240   -3.2430 O.2     1  UNL1       -0.2520
      4  O          9.5650   -2.5090   -3.2520 O.3     1  UNL1       -0.4810
      5  H         10.2590   -2.7850   -2.5630 H       1  UNL1        0.2960
      6  C          7.0320    0.0010   -2.1230 C.3     1  UNL1        0.0470
      7  C          6.4620    0.1510   -0.7700 C.2     1  UNL1       -0.0470
      8  C          5.8050    1.2710   -0.3280 C.2     1  UNL1        0.0040
      9  C          6.6020   -0.9030    0.1010 C.2     1  UNL1        0.0040
     10  C          5.3030    1.3260    0.9570 C.2     1  UNL1        0.0000
     11  C          6.1140   -0.8690    1.3740 C.2     1  UNL1        0.0000
     12  C          5.4540    0.2560    1.8180 C.2     1  UNL1        0.0000
@<TRIPOS>BOND
     1     4     2    1
     2     4     5    1
     3     3     2    2
     4     2     1    1
     5     6     1    1
     6     6     7    1
     7     7     8    2
     8     7     9    1
     9     8    10    1
    10     9    11    2
    11    10    12    2
    12    11    12    1
