@<TRIPOS>MOLECULE
/home/cewinharhar/GITHUB/reincatalyze/data/processed/docking_pred/2023-Apr-25-1630_maxeplen5_maxtrainstep200_exh32_gamma099_lrac3e-4_lrcr1e-3/e4036567ae6c7c824a0e93db279f74886267d276_ligand_2.pdbqt
 12 12 0 0 0
SMALL
GASTEIGER

@<TRIPOS>ATOM
      1  C          8.1790   -1.5400    1.0880 C.3     1  UNL1        0.1270
      2  C          8.4770   -2.7580    0.2990 C.2     1  UNL1        0.3030
      3  O          9.1010   -3.7050    0.8030 O.2     1  UNL1       -0.2520
      4  O          8.0560   -2.8410   -1.0150 O.3     1  UNL1       -0.4810
      5  H          7.7130   -3.7060   -1.4210 H       1  UNL1        0.2960
      6  C          6.6920   -1.3860    1.2840 C.3     1  UNL1        0.0470
      7  C          6.1650   -0.1310    0.7140 C.2     1  UNL1       -0.0470
      8  C          6.3930    0.2870   -0.5720 C.2     1  UNL1        0.0040
      9  C          5.3990    0.6670    1.5290 C.2     1  UNL1        0.0040
     10  C          5.8600    1.4800   -1.0230 C.2     1  UNL1        0.0000
     11  C          4.8650    1.8470    1.1030 C.2     1  UNL1        0.0000
     12  C          5.0920    2.2680   -0.1890 C.2     1  UNL1        0.0000
@<TRIPOS>BOND
     1     5     4    1
     2    10     8    1
     3    10    12    2
     4     4     2    1
     5     8     7    2
     6    12    11    1
     7     2     3    2
     8     2     1    1
     9     7     6    1
    10     7     9    1
    11     1     6    1
    12    11     9    2
