@<TRIPOS>MOLECULE
/home/cewinharhar/GITHUB/reincatalyze/data/processed/docking_pred/2023-Apr-25-1630_maxeplen5_maxtrainstep200_exh32_gamma099_lrac3e-4_lrcr1e-3/e4036567ae6c7c824a0e93db279f74886267d276_ligand_2.pdbqt
 12 12 0 0 0
SMALL
GASTEIGER

@<TRIPOS>ATOM
      1  C          8.4460   -0.5660   -2.2330 C.3     1  UNL1        0.1270
      2  C          8.4850   -1.8720   -2.9330 C.2     1  UNL1        0.3030
      3  O          9.5590   -2.4670   -3.1080 O.2     1  UNL1       -0.2520
      4  O          7.3100   -2.4340   -3.3950 O.3     1  UNL1       -0.4810
      5  H          6.4940   -1.8740   -3.6260 H       1  UNL1        0.2960
      6  C          7.0370   -0.0280   -2.1940 C.3     1  UNL1        0.0470
      7  C          6.5080    0.0920   -0.8220 C.2     1  UNL1       -0.0470
      8  C          6.5940   -0.8940    0.1270 C.2     1  UNL1        0.0040
      9  C          5.8880    1.2700   -0.4790 C.2     1  UNL1        0.0040
     10  C          6.0690   -0.6960    1.3900 C.2     1  UNL1        0.0000
     11  C          5.3630    1.4850    0.7610 C.2     1  UNL1        0.0000
     12  C          5.4500    0.4940    1.7160 C.2     1  UNL1        0.0000
@<TRIPOS>BOND
     1     5     4    1
     2     4     2    1
     3     3     2    2
     4     2     1    1
     5     1     6    1
     6     6     7    1
     7     7     9    2
     8     7     8    1
     9     9    11    1
    10     8    10    2
    11    11    12    2
    12    10    12    1
