@<TRIPOS>MOLECULE
/home/cewinharhar/GITHUB/reincatalyze/data/processed/docking_pred/2023-Apr-25-1630_maxeplen5_maxtrainstep200_exh32_gamma099_lrac3e-4_lrcr1e-3/e4036567ae6c7c824a0e93db279f74886267d276_ligand_2.pdbqt
 12 12 0 0 0
SMALL
GASTEIGER

@<TRIPOS>ATOM
      1  C          5.3640    2.9640    0.0940 C.3     1  UNL1        0.1270
      2  C          6.2110    3.9320    0.8310 C.2     1  UNL1        0.3030
      3  O          6.8890    4.7750    0.2230 O.2     1  UNL1       -0.2520
      4  O          6.2480    3.8940    2.2120 O.3     1  UNL1       -0.4810
      5  H          5.4050    3.9320    2.7780 H       1  UNL1        0.2960
      6  C          5.2400    1.6740    0.8650 C.3     1  UNL1        0.0470
      7  C          5.9940    0.5650    0.2500 C.2     1  UNL1       -0.0470
      8  C          6.4390   -0.5380    0.9320 C.2     1  UNL1        0.0040
      9  C          6.2670    0.6490   -1.0950 C.2     1  UNL1        0.0040
     10  C          7.1410   -1.5300    0.2750 C.2     1  UNL1        0.0000
     11  C          6.9590   -0.3190   -1.7620 C.2     1  UNL1        0.0000
     12  C          7.4050   -1.4290   -1.0760 C.2     1  UNL1        0.0000
@<TRIPOS>BOND
     1    11     9    1
     2    11    12    2
     3     9     7    2
     4    12    10    1
     5     1     2    1
     6     1     6    1
     7     3     2    2
     8     7     6    1
     9     7     8    1
    10    10     8    2
    11     2     4    1
    12     4     5    1
