MODEL 1
REMARK VINA RESULT:      -7.3      0.000      0.000
REMARK SMILES O=C(O)CCc1ccccc1
REMARK SMILES IDX 4 1 2 2 1 3 3 4 5 6 6 7 7 8 11 9 8 10 10 11 9 12
REMARK H PARENT 3 5
REMARK Flexibility Score: inf
ROOT
ATOM      1  C   UNL     1       8.444  -0.647  -2.147  1.00  0.00     0.127 C 
ENDROOT
BRANCH   1   2
ATOM      2  C   UNL     1       8.483  -1.920  -2.905  1.00  0.00     0.303 C 
ATOM      3  O   UNL     1       9.556  -2.514  -3.094  1.00  0.00    -0.252 OA
BRANCH   2   4
ATOM      4  O   UNL     1       7.310  -2.451  -3.408  1.00  0.00    -0.481 OA
ATOM      5  H   UNL     1       6.398  -2.207  -3.032  1.00  0.00     0.296 HD
ENDBRANCH   2   4
ENDBRANCH   1   2
BRANCH   1   6
ATOM      6  C   UNL     1       7.039  -0.100  -2.101  1.00  0.00     0.047 C 
BRANCH   6   7
ATOM      7  C   UNL     1       6.501  -0.017  -0.729  1.00  0.00    -0.047 A 
ATOM      8  C   UNL     1       6.588  -1.026   0.196  1.00  0.00     0.004 A 
ATOM      9  C   UNL     1       5.872   1.148  -0.361  1.00  0.00     0.004 A 
ATOM     10  C   UNL     1       6.055  -0.863   1.460  1.00  0.00     0.000 A 
ATOM     11  C   UNL     1       5.339   1.329   0.881  1.00  0.00     0.000 A 
ATOM     12  C   UNL     1       5.427   0.316   1.812  1.00  0.00     0.000 A 
ENDBRANCH   6   7
ENDBRANCH   1   6
TORSDOF 4
ENDMDL
MODEL 2
REMARK VINA RESULT:      -7.3      0.132      1.726
REMARK SMILES O=C(O)CCc1ccccc1
REMARK SMILES IDX 4 1 2 2 1 3 3 4 5 6 6 7 7 8 11 9 8 10 10 11 9 12
REMARK H PARENT 3 5
REMARK Flexibility Score: inf
ROOT
ATOM      1  C   UNL     1       8.373  -0.702  -2.040  1.00  0.00     0.127 C 
ENDROOT
BRANCH   1   2
ATOM      2  C   UNL     1       8.358  -1.925  -2.878  1.00  0.00     0.303 C 
ATOM      3  O   UNL     1       7.286  -2.418  -3.263  1.00  0.00    -0.252 OA
BRANCH   2   4
ATOM      4  O   UNL     1       9.551  -2.523  -3.233  1.00  0.00    -0.481 OA
ATOM      5  H   UNL     1      10.437  -2.026  -3.209  1.00  0.00     0.296 HD
ENDBRANCH   2   4
ENDBRANCH   1   2
BRANCH   1   6
ATOM      6  C   UNL     1       7.029  -0.018  -2.077  1.00  0.00     0.047 C 
BRANCH   6   7
ATOM      7  C   UNL     1       6.441   0.160  -0.736  1.00  0.00    -0.047 A 
ATOM      8  C   UNL     1       5.778   1.289  -0.327  1.00  0.00     0.004 A 
ATOM      9  C   UNL     1       6.569  -0.875   0.159  1.00  0.00     0.004 A 
ATOM     10  C   UNL     1       5.259   1.371   0.950  1.00  0.00     0.000 A 
ATOM     11  C   UNL     1       6.064  -0.814   1.424  1.00  0.00     0.000 A 
ATOM     12  C   UNL     1       5.397   0.320   1.835  1.00  0.00     0.000 A 
ENDBRANCH   6   7
ENDBRANCH   1   6
TORSDOF 4
ENDMDL
MODEL 3
REMARK VINA RESULT:      -6.8      3.374      5.071
REMARK SMILES O=C(O)CCc1ccccc1
REMARK SMILES IDX 4 1 2 2 1 3 3 4 5 6 6 7 7 8 11 9 8 10 10 11 9 12
REMARK H PARENT 3 5
REMARK Flexibility Score: inf
ROOT
ATOM      1  C   UNL     1       4.998   1.795   0.719  1.00  0.00     0.127 C 
ENDROOT
BRANCH   1   2
ATOM      2  C   UNL     1       4.493   1.102   1.928  1.00  0.00     0.303 C 
ATOM      3  O   UNL     1       5.161   0.211   2.475  1.00  0.00    -0.252 OA
BRANCH   2   4
ATOM      4  O   UNL     1       3.263   1.452   2.452  1.00  0.00    -0.481 OA
ATOM      5  H   UNL     1       2.388   1.143   2.037  1.00  0.00     0.296 HD
ENDBRANCH   2   4
ENDBRANCH   1   2
BRANCH   1   6
ATOM      6  C   UNL     1       6.506   1.837   0.723  1.00  0.00     0.047 C 
BRANCH   6   7
ATOM      7  C   UNL     1       7.103   1.033  -0.361  1.00  0.00    -0.047 A 
ATOM      8  C   UNL     1       6.417   0.106  -1.103  1.00  0.00     0.004 A 
ATOM      9  C   UNL     1       8.435   1.230  -0.639  1.00  0.00     0.004 A 
ATOM     10  C   UNL     1       7.058  -0.603  -2.100  1.00  0.00     0.000 A 
ATOM     11  C   UNL     1       9.086   0.540  -1.619  1.00  0.00     0.000 A 
ATOM     12  C   UNL     1       8.396  -0.392  -2.366  1.00  0.00     0.000 A 
ENDBRANCH   6   7
ENDBRANCH   1   6
TORSDOF 4
ENDMDL
MODEL 4
REMARK VINA RESULT:      -6.7      3.829      4.984
REMARK SMILES O=C(O)CCc1ccccc1
REMARK SMILES IDX 4 1 2 2 1 3 3 4 5 6 6 7 7 8 11 9 8 10 10 11 9 12
REMARK H PARENT 3 5
REMARK Flexibility Score: inf
ROOT
ATOM      1  C   UNL     1       5.480   2.913   0.024  1.00  0.00     0.127 C 
ENDROOT
BRANCH   1   2
ATOM      2  C   UNL     1       6.270   3.884   0.818  1.00  0.00     0.303 C 
ATOM      3  O   UNL     1       6.928   4.775   0.259  1.00  0.00    -0.252 OA
BRANCH   2   4
ATOM      4  O   UNL     1       6.272   3.797   2.197  1.00  0.00    -0.481 OA
ATOM      5  H   UNL     1       5.683   4.385   2.779  1.00  0.00     0.296 HD
ENDBRANCH   2   4
ENDBRANCH   1   2
BRANCH   1   6
ATOM      6  C   UNL     1       4.929   1.826   0.914  1.00  0.00     0.047 C 
BRANCH   6   7
ATOM      7  C   UNL     1       5.754   0.603   0.903  1.00  0.00    -0.047 A 
ATOM      8  C   UNL     1       6.522   0.199  -0.159  1.00  0.00     0.004 A 
ATOM      9  C   UNL     1       5.748  -0.179   2.034  1.00  0.00     0.004 A 
ATOM     10  C   UNL     1       7.265  -0.963  -0.082  1.00  0.00     0.000 A 
ATOM     11  C   UNL     1       6.474  -1.330   2.129  1.00  0.00     0.000 A 
ATOM     12  C   UNL     1       7.247  -1.736   1.062  1.00  0.00     0.000 A 
ENDBRANCH   6   7
ENDBRANCH   1   6
TORSDOF 4
ENDMDL
MODEL 5
REMARK VINA RESULT:      -6.6      2.013      2.738
REMARK SMILES O=C(O)CCc1ccccc1
REMARK SMILES IDX 4 1 2 2 1 3 3 4 5 6 6 7 7 8 11 9 8 10 10 11 9 12
REMARK H PARENT 3 5
REMARK Flexibility Score: inf
ROOT
ATOM      1  C   UNL     1       7.930  -2.278   0.763  1.00  0.00     0.127 C 
ENDROOT
BRANCH   1   2
ATOM      2  C   UNL     1       8.781  -3.406   0.315  1.00  0.00     0.303 C 
ATOM      3  O   UNL     1       9.653  -3.878   1.060  1.00  0.00    -0.252 OA
BRANCH   2   4
ATOM      4  O   UNL     1       8.599  -3.938  -0.947  1.00  0.00    -0.481 OA
ATOM      5  H   UNL     1       7.751  -4.430  -1.213  1.00  0.00     0.296 HD
ENDBRANCH   2   4
ENDBRANCH   1   2
BRANCH   1   6
ATOM      6  C   UNL     1       7.451  -1.473  -0.419  1.00  0.00     0.047 C 
BRANCH   6   7
ATOM      7  C   UNL     1       6.599  -0.334  -0.029  1.00  0.00    -0.047 A 
ATOM      8  C   UNL     1       6.305   0.727  -0.847  1.00  0.00     0.004 A 
ATOM      9  C   UNL     1       6.068  -0.340   1.239  1.00  0.00     0.004 A 
ATOM     10  C   UNL     1       5.497   1.753  -0.398  1.00  0.00     0.000 A 
ATOM     11  C   UNL     1       5.270   0.664   1.702  1.00  0.00     0.000 A 
ATOM     12  C   UNL     1       4.974   1.730   0.880  1.00  0.00     0.000 A 
ENDBRANCH   6   7
ENDBRANCH   1   6
TORSDOF 4
ENDMDL
