@<TRIPOS>MOLECULE
/home/cewinharhar/GITHUB/reincatalyze/data/processed/docking_pred/2023-Apr-25-1630_maxeplen5_maxtrainstep200_exh32_gamma099_lrac3e-4_lrcr1e-3/e5153a6a2872aa0f73be7da8df97a591d10f8a10_ligand_2.pdbqt
 12 12 0 0 0
SMALL
GASTEIGER

@<TRIPOS>ATOM
      1  C          8.3730   -0.7020   -2.0400 C.3     1  UNL1        0.1270
      2  C          8.3580   -1.9250   -2.8780 C.2     1  UNL1        0.3030
      3  O          7.2860   -2.4180   -3.2630 O.2     1  UNL1       -0.2520
      4  O          9.5510   -2.5230   -3.2330 O.3     1  UNL1       -0.4810
      5  H         10.4370   -2.0260   -3.2090 H       1  UNL1        0.2960
      6  C          7.0290   -0.0180   -2.0770 C.3     1  UNL1        0.0470
      7  C          6.4410    0.1600   -0.7360 C.2     1  UNL1       -0.0470
      8  C          5.7780    1.2890   -0.3270 C.2     1  UNL1        0.0040
      9  C          6.5690   -0.8750    0.1590 C.2     1  UNL1        0.0040
     10  C          5.2590    1.3710    0.9500 C.2     1  UNL1        0.0000
     11  C          6.0640   -0.8140    1.4240 C.2     1  UNL1        0.0000
     12  C          5.3970    0.3200    1.8350 C.2     1  UNL1        0.0000
@<TRIPOS>BOND
     1     3     2    2
     2     4     5    1
     3     4     2    1
     4     2     1    1
     5     6     1    1
     6     6     7    1
     7     7     8    2
     8     7     9    1
     9     8    10    1
    10     9    11    2
    11    10    12    2
    12    11    12    1
