@<TRIPOS>MOLECULE
/home/cewinharhar/GITHUB/reincatalyze/data/processed/docking_pred/2023-Apr-25-1630_maxeplen5_maxtrainstep200_exh32_gamma099_lrac3e-4_lrcr1e-3/e5153a6a2872aa0f73be7da8df97a591d10f8a10_ligand_2.pdbqt
 12 12 0 0 0
SMALL
GASTEIGER

@<TRIPOS>ATOM
      1  C          5.4800    2.9130    0.0240 C.3     1  UNL1        0.1270
      2  C          6.2700    3.8840    0.8180 C.2     1  UNL1        0.3030
      3  O          6.9280    4.7750    0.2590 O.2     1  UNL1       -0.2520
      4  O          6.2720    3.7970    2.1970 O.3     1  UNL1       -0.4810
      5  H          5.6830    4.3850    2.7790 H       1  UNL1        0.2960
      6  C          4.9290    1.8260    0.9140 C.3     1  UNL1        0.0470
      7  C          5.7540    0.6030    0.9030 C.2     1  UNL1       -0.0470
      8  C          6.5220    0.1990   -0.1590 C.2     1  UNL1        0.0040
      9  C          5.7480   -0.1790    2.0340 C.2     1  UNL1        0.0040
     10  C          7.2650   -0.9630   -0.0820 C.2     1  UNL1        0.0000
     11  C          6.4740   -1.3300    2.1290 C.2     1  UNL1        0.0000
     12  C          7.2470   -1.7360    1.0620 C.2     1  UNL1        0.0000
@<TRIPOS>BOND
     1     8    10    1
     2     8     7    2
     3    10    12    2
     4     1     2    1
     5     1     6    1
     6     3     2    2
     7     2     4    1
     8     7     6    1
     9     7     9    1
    10    12    11    1
    11     9    11    2
    12     4     5    1
