@<TRIPOS>MOLECULE
/home/cewinharhar/GITHUB/reincatalyze/data/processed/docking_pred/2023-Apr-25-1630_maxeplen5_maxtrainstep200_exh32_gamma099_lrac3e-4_lrcr1e-3/e5153a6a2872aa0f73be7da8df97a591d10f8a10_ligand_2.pdbqt
 12 12 0 0 0
SMALL
GASTEIGER

@<TRIPOS>ATOM
      1  C          8.4440   -0.6470   -2.1470 C.3     1  UNL1        0.1270
      2  C          8.4830   -1.9200   -2.9050 C.2     1  UNL1        0.3030
      3  O          9.5560   -2.5140   -3.0940 O.2     1  UNL1       -0.2520
      4  O          7.3100   -2.4510   -3.4080 O.3     1  UNL1       -0.4810
      5  H          6.3980   -2.2070   -3.0320 H       1  UNL1        0.2960
      6  C          7.0390   -0.1000   -2.1010 C.3     1  UNL1        0.0470
      7  C          6.5010   -0.0170   -0.7290 C.2     1  UNL1       -0.0470
      8  C          6.5880   -1.0260    0.1960 C.2     1  UNL1        0.0040
      9  C          5.8720    1.1480   -0.3610 C.2     1  UNL1        0.0040
     10  C          6.0550   -0.8630    1.4600 C.2     1  UNL1        0.0000
     11  C          5.3390    1.3290    0.8810 C.2     1  UNL1        0.0000
     12  C          5.4270    0.3160    1.8120 C.2     1  UNL1        0.0000
@<TRIPOS>BOND
     1     4     5    1
     2     4     2    1
     3     3     2    2
     4     2     1    1
     5     1     6    1
     6     6     7    1
     7     7     9    2
     8     7     8    1
     9     9    11    1
    10     8    10    2
    11    11    12    2
    12    10    12    1
