@<TRIPOS>MOLECULE
/home/cewinharhar/GITHUB/reincatalyze/data/processed/docking_pred/2023-Apr-25-1630_maxeplen5_maxtrainstep200_exh32_gamma099_lrac3e-4_lrcr1e-3/e5153a6a2872aa0f73be7da8df97a591d10f8a10_ligand_2.pdbqt
 12 12 0 0 0
SMALL
GASTEIGER

@<TRIPOS>ATOM
      1  C          7.9300   -2.2780    0.7630 C.3     1  UNL1        0.1270
      2  C          8.7810   -3.4060    0.3150 C.2     1  UNL1        0.3030
      3  O          9.6530   -3.8780    1.0600 O.2     1  UNL1       -0.2520
      4  O          8.5990   -3.9380   -0.9470 O.3     1  UNL1       -0.4810
      5  H          7.7510   -4.4300   -1.2130 H       1  UNL1        0.2960
      6  C          7.4510   -1.4730   -0.4190 C.3     1  UNL1        0.0470
      7  C          6.5990   -0.3340   -0.0290 C.2     1  UNL1       -0.0470
      8  C          6.3050    0.7270   -0.8470 C.2     1  UNL1        0.0040
      9  C          6.0680   -0.3400    1.2390 C.2     1  UNL1        0.0040
     10  C          5.4970    1.7530   -0.3980 C.2     1  UNL1        0.0000
     11  C          5.2700    0.6640    1.7020 C.2     1  UNL1        0.0000
     12  C          4.9740    1.7300    0.8800 C.2     1  UNL1        0.0000
@<TRIPOS>BOND
     1     5     4    1
     2     4     2    1
     3     8    10    1
     4     8     7    2
     5     6     7    1
     6     6     1    1
     7    10    12    2
     8     7     9    1
     9     2     1    1
    10     2     3    2
    11    12    11    1
    12     9    11    2
