@<TRIPOS>MOLECULE
/home/cewinharhar/GITHUB/reincatalyze/data/processed/docking_pred/2023-Apr-25-1630_maxeplen5_maxtrainstep200_exh32_gamma099_lrac3e-4_lrcr1e-3/e72dfb9ce69b60d9dd63e32278a4acfac8a78322_ligand_2.pdbqt
 12 12 0 0 0
SMALL
GASTEIGER

@<TRIPOS>ATOM
      1  C          8.4130   -0.6540   -2.1060 C.3     1  UNL1        0.1270
      2  C          8.4630   -1.9090   -2.8930 C.2     1  UNL1        0.3030
      3  O          9.5390   -2.4950   -3.0870 O.2     1  UNL1       -0.2520
      4  O          7.2970   -2.4320   -3.4170 O.3     1  UNL1       -0.4810
      5  H          7.2910   -3.0300   -4.2390 H       1  UNL1        0.2960
      6  C          7.0210   -0.0730   -2.1220 C.3     1  UNL1        0.0470
      7  C          6.4610    0.1080   -0.7690 C.2     1  UNL1       -0.0470
      8  C          5.8210    1.2440   -0.3450 C.2     1  UNL1        0.0040
      9  C          6.5940   -0.9310    0.1200 C.2     1  UNL1        0.0040
     10  C          5.3270    1.3290    0.9430 C.2     1  UNL1        0.0000
     11  C          6.1140   -0.8680    1.3950 C.2     1  UNL1        0.0000
     12  C          5.4700    0.2740    1.8220 C.2     1  UNL1        0.0000
@<TRIPOS>BOND
     1     5     4    1
     2     4     2    1
     3     3     2    2
     4     2     1    1
     5     6     1    1
     6     6     7    1
     7     7     8    2
     8     7     9    1
     9     8    10    1
    10     9    11    2
    11    10    12    2
    12    11    12    1
