MODEL 1
REMARK VINA RESULT:      -7.3      0.000      0.000
REMARK SMILES O=C(O)CCc1ccccc1
REMARK SMILES IDX 4 1 2 2 1 3 3 4 5 6 6 7 7 8 11 9 8 10 10 11 9 12
REMARK H PARENT 3 5
REMARK Flexibility Score: inf
ROOT
ATOM      1  C   UNL     1       8.413  -0.654  -2.106  1.00  0.00     0.127 C 
ENDROOT
BRANCH   1   2
ATOM      2  C   UNL     1       8.463  -1.909  -2.893  1.00  0.00     0.303 C 
ATOM      3  O   UNL     1       9.539  -2.495  -3.087  1.00  0.00    -0.252 OA
BRANCH   2   4
ATOM      4  O   UNL     1       7.297  -2.432  -3.417  1.00  0.00    -0.481 OA
ATOM      5  H   UNL     1       7.291  -3.030  -4.239  1.00  0.00     0.296 HD
ENDBRANCH   2   4
ENDBRANCH   1   2
BRANCH   1   6
ATOM      6  C   UNL     1       7.021  -0.073  -2.122  1.00  0.00     0.047 C 
BRANCH   6   7
ATOM      7  C   UNL     1       6.461   0.108  -0.769  1.00  0.00    -0.047 A 
ATOM      8  C   UNL     1       5.821   1.244  -0.345  1.00  0.00     0.004 A 
ATOM      9  C   UNL     1       6.594  -0.931   0.120  1.00  0.00     0.004 A 
ATOM     10  C   UNL     1       5.327   1.329   0.943  1.00  0.00     0.000 A 
ATOM     11  C   UNL     1       6.114  -0.868   1.395  1.00  0.00     0.000 A 
ATOM     12  C   UNL     1       5.470   0.274   1.822  1.00  0.00     0.000 A 
ENDBRANCH   6   7
ENDBRANCH   1   6
TORSDOF 4
ENDMDL
MODEL 2
REMARK VINA RESULT:      -7.3      0.129      1.724
REMARK SMILES O=C(O)CCc1ccccc1
REMARK SMILES IDX 4 1 2 2 1 3 3 4 5 6 6 7 7 8 11 9 8 10 10 11 9 12
REMARK H PARENT 3 5
REMARK Flexibility Score: inf
ROOT
ATOM      1  C   UNL     1       8.405  -0.658  -2.093  1.00  0.00     0.127 C 
ENDROOT
BRANCH   1   2
ATOM      2  C   UNL     1       8.364  -1.909  -2.888  1.00  0.00     0.303 C 
ATOM      3  O   UNL     1       7.281  -2.402  -3.241  1.00  0.00    -0.252 OA
BRANCH   2   4
ATOM      4  O   UNL     1       9.545  -2.533  -3.239  1.00  0.00    -0.481 OA
ATOM      5  H   UNL     1      10.437  -2.045  -3.245  1.00  0.00     0.296 HD
ENDBRANCH   2   4
ENDBRANCH   1   2
BRANCH   1   6
ATOM      6  C   UNL     1       7.046  -0.004  -2.064  1.00  0.00     0.047 C 
BRANCH   6   7
ATOM      7  C   UNL     1       6.481   0.080  -0.703  1.00  0.00    -0.047 A 
ATOM      8  C   UNL     1       6.587  -0.910   0.240  1.00  0.00     0.004 A 
ATOM      9  C   UNL     1       5.805   1.228  -0.364  1.00  0.00     0.004 A 
ATOM     10  C   UNL     1       6.026  -0.746   1.491  1.00  0.00     0.000 A 
ATOM     11  C   UNL     1       5.243   1.409   0.865  1.00  0.00     0.000 A 
ATOM     12  C   UNL     1       5.350   0.414   1.813  1.00  0.00     0.000 A 
ENDBRANCH   6   7
ENDBRANCH   1   6
TORSDOF 4
ENDMDL
MODEL 3
REMARK VINA RESULT:      -6.7      3.339      5.017
REMARK SMILES O=C(O)CCc1ccccc1
REMARK SMILES IDX 4 1 2 2 1 3 3 4 5 6 6 7 7 8 11 9 8 10 10 11 9 12
REMARK H PARENT 3 5
REMARK Flexibility Score: inf
ROOT
ATOM      1  C   UNL     1       5.053   1.724   0.694  1.00  0.00     0.127 C 
ENDROOT
BRANCH   1   2
ATOM      2  C   UNL     1       4.597   1.036   1.925  1.00  0.00     0.303 C 
ATOM      3  O   UNL     1       5.310   0.185   2.479  1.00  0.00    -0.252 OA
BRANCH   2   4
ATOM      4  O   UNL     1       3.362   1.345   2.462  1.00  0.00    -0.481 OA
ATOM      5  H   UNL     1       2.947   2.268   2.375  1.00  0.00     0.296 HD
ENDBRANCH   2   4
ENDBRANCH   1   2
BRANCH   1   6
ATOM      6  C   UNL     1       6.554   1.873   0.696  1.00  0.00     0.047 C 
BRANCH   6   7
ATOM      7  C   UNL     1       7.209   1.086  -0.367  1.00  0.00    -0.047 A 
ATOM      8  C   UNL     1       8.539   1.176  -0.685  1.00  0.00     0.004 A 
ATOM      9  C   UNL     1       6.429   0.208  -1.081  1.00  0.00     0.004 A 
ATOM     10  C   UNL     1       9.069   0.400  -1.698  1.00  0.00     0.000 A 
ATOM     11  C   UNL     1       6.933  -0.566  -2.085  1.00  0.00     0.000 A 
ATOM     12  C   UNL     1       8.271  -0.477  -2.405  1.00  0.00     0.000 A 
ENDBRANCH   6   7
ENDBRANCH   1   6
TORSDOF 4
ENDMDL
MODEL 4
REMARK VINA RESULT:      -6.7      1.964      2.272
REMARK SMILES O=C(O)CCc1ccccc1
REMARK SMILES IDX 4 1 2 2 1 3 3 4 5 6 6 7 7 8 11 9 8 10 10 11 9 12
REMARK H PARENT 3 5
REMARK Flexibility Score: inf
ROOT
ATOM      1  C   UNL     1       8.220   0.264  -2.042  1.00  0.00     0.127 C 
ENDROOT
BRANCH   1   2
ATOM      2  C   UNL     1       9.398   0.376  -1.149  1.00  0.00     0.303 C 
ATOM      3  O   UNL     1       9.518  -0.365  -0.161  1.00  0.00    -0.252 OA
BRANCH   2   4
ATOM      4  O   UNL     1      10.373   1.316  -1.420  1.00  0.00    -0.481 OA
ATOM      5  H   UNL     1      10.556   2.102  -0.803  1.00  0.00     0.296 HD
ENDBRANCH   2   4
ENDBRANCH   1   2
BRANCH   1   6
ATOM      6  C   UNL     1       7.151  -0.588  -1.406  1.00  0.00     0.047 C 
BRANCH   6   7
ATOM      7  C   UNL     1       6.349   0.148  -0.410  1.00  0.00    -0.047 A 
ATOM      8  C   UNL     1       5.789   1.381  -0.629  1.00  0.00     0.004 A 
ATOM      9  C   UNL     1       6.154  -0.444   0.815  1.00  0.00     0.004 A 
ATOM     10  C   UNL     1       5.052   1.999   0.363  1.00  0.00     0.000 A 
ATOM     11  C   UNL     1       5.430   0.150   1.807  1.00  0.00     0.000 A 
ATOM     12  C   UNL     1       4.867   1.389   1.587  1.00  0.00     0.000 A 
ENDBRANCH   6   7
ENDBRANCH   1   6
TORSDOF 4
ENDMDL
MODEL 5
REMARK VINA RESULT:      -6.6      3.700      5.028
REMARK SMILES O=C(O)CCc1ccccc1
REMARK SMILES IDX 4 1 2 2 1 3 3 4 5 6 6 7 7 8 11 9 8 10 10 11 9 12
REMARK H PARENT 3 5
REMARK Flexibility Score: inf
ROOT
ATOM      1  C   UNL     1       5.343   2.982   0.104  1.00  0.00     0.127 C 
ENDROOT
BRANCH   1   2
ATOM      2  C   UNL     1       6.314   3.809   0.859  1.00  0.00     0.303 C 
ATOM      3  O   UNL     1       6.881   4.773   0.321  1.00  0.00    -0.252 OA
BRANCH   2   4
ATOM      4  O   UNL     1       6.593   3.502   2.177  1.00  0.00    -0.481 OA
ATOM      5  H   UNL     1       6.729   2.547   2.495  1.00  0.00     0.296 HD
ENDBRANCH   2   4
ENDBRANCH   1   2
BRANCH   1   6
ATOM      6  C   UNL     1       5.074   1.687   0.829  1.00  0.00     0.047 C 
BRANCH   6   7
ATOM      7  C   UNL     1       5.920   0.577   0.351  1.00  0.00    -0.047 A 
ATOM      8  C   UNL     1       6.394  -0.432   1.150  1.00  0.00     0.004 A 
ATOM      9  C   UNL     1       6.252   0.558  -0.983  1.00  0.00     0.004 A 
ATOM     10  C   UNL     1       7.183  -1.433   0.617  1.00  0.00     0.000 A 
ATOM     11  C   UNL     1       7.029  -0.421  -1.528  1.00  0.00     0.000 A 
ATOM     12  C   UNL     1       7.506  -1.435  -0.725  1.00  0.00     0.000 A 
ENDBRANCH   6   7
ENDBRANCH   1   6
TORSDOF 4
ENDMDL
