@<TRIPOS>MOLECULE
/home/cewinharhar/GITHUB/reincatalyze/data/processed/docking_pred/2023-Apr-25-1630_maxeplen5_maxtrainstep200_exh32_gamma099_lrac3e-4_lrcr1e-3/e72dfb9ce69b60d9dd63e32278a4acfac8a78322_ligand_2.pdbqt
 12 12 0 0 0
SMALL
GASTEIGER

@<TRIPOS>ATOM
      1  C          8.2200    0.2640   -2.0420 C.3     1  UNL1        0.1270
      2  C          9.3980    0.3760   -1.1490 C.2     1  UNL1        0.3030
      3  O          9.5180   -0.3650   -0.1610 O.2     1  UNL1       -0.2520
      4  O         10.3730    1.3160   -1.4200 O.3     1  UNL1       -0.4810
      5  H         10.5560    2.1020   -0.8030 H       1  UNL1        0.2960
      6  C          7.1510   -0.5880   -1.4060 C.3     1  UNL1        0.0470
      7  C          6.3490    0.1480   -0.4100 C.2     1  UNL1       -0.0470
      8  C          5.7890    1.3810   -0.6290 C.2     1  UNL1        0.0040
      9  C          6.1540   -0.4440    0.8150 C.2     1  UNL1        0.0040
     10  C          5.0520    1.9990    0.3630 C.2     1  UNL1        0.0000
     11  C          5.4300    0.1500    1.8070 C.2     1  UNL1        0.0000
     12  C          4.8670    1.3890    1.5870 C.2     1  UNL1        0.0000
@<TRIPOS>BOND
     1     1     6    1
     2     1     2    1
     3     4     2    1
     4     4     5    1
     5     6     7    1
     6     2     3    2
     7     8     7    2
     8     8    10    1
     9     7     9    1
    10    10    12    2
    11     9    11    2
    12    12    11    1
