@<TRIPOS>MOLECULE
/home/cewinharhar/GITHUB/reincatalyze/data/processed/docking_pred/2023-Apr-25-1630_maxeplen5_maxtrainstep200_exh32_gamma099_lrac3e-4_lrcr1e-3/e72dfb9ce69b60d9dd63e32278a4acfac8a78322_ligand_2.pdbqt
 12 12 0 0 0
SMALL
GASTEIGER

@<TRIPOS>ATOM
      1  C          5.0530    1.7240    0.6940 C.3     1  UNL1        0.1270
      2  C          4.5970    1.0360    1.9250 C.2     1  UNL1        0.3030
      3  O          5.3100    0.1850    2.4790 O.2     1  UNL1       -0.2520
      4  O          3.3620    1.3450    2.4620 O.3     1  UNL1       -0.4810
      5  H          2.9470    2.2680    2.3750 H       1  UNL1        0.2960
      6  C          6.5540    1.8730    0.6960 C.3     1  UNL1        0.0470
      7  C          7.2090    1.0860   -0.3670 C.2     1  UNL1       -0.0470
      8  C          8.5390    1.1760   -0.6850 C.2     1  UNL1        0.0040
      9  C          6.4290    0.2080   -1.0810 C.2     1  UNL1        0.0040
     10  C          9.0690    0.4000   -1.6980 C.2     1  UNL1        0.0000
     11  C          6.9330   -0.5660   -2.0850 C.2     1  UNL1        0.0000
     12  C          8.2710   -0.4770   -2.4050 C.2     1  UNL1        0.0000
@<TRIPOS>BOND
     1    12    11    2
     2    12    10    1
     3    11     9    1
     4    10     8    2
     5     9     7    2
     6     8     7    1
     7     7     6    1
     8     1     6    1
     9     1     2    1
    10     2     4    1
    11     2     3    2
    12     5     4    1
