@<TRIPOS>MOLECULE
/home/cewinharhar/GITHUB/reincatalyze/data/processed/docking_pred/2023-Apr-25-1630_maxeplen5_maxtrainstep200_exh32_gamma099_lrac3e-4_lrcr1e-3/e72dfb9ce69b60d9dd63e32278a4acfac8a78322_ligand_2.pdbqt
 12 12 0 0 0
SMALL
GASTEIGER

@<TRIPOS>ATOM
      1  C          8.4050   -0.6580   -2.0930 C.3     1  UNL1        0.1270
      2  C          8.3640   -1.9090   -2.8880 C.2     1  UNL1        0.3030
      3  O          7.2810   -2.4020   -3.2410 O.2     1  UNL1       -0.2520
      4  O          9.5450   -2.5330   -3.2390 O.3     1  UNL1       -0.4810
      5  H         10.4370   -2.0450   -3.2450 H       1  UNL1        0.2960
      6  C          7.0460   -0.0040   -2.0640 C.3     1  UNL1        0.0470
      7  C          6.4810    0.0800   -0.7030 C.2     1  UNL1       -0.0470
      8  C          6.5870   -0.9100    0.2400 C.2     1  UNL1        0.0040
      9  C          5.8050    1.2280   -0.3640 C.2     1  UNL1        0.0040
     10  C          6.0260   -0.7460    1.4910 C.2     1  UNL1        0.0000
     11  C          5.2430    1.4090    0.8650 C.2     1  UNL1        0.0000
     12  C          5.3500    0.4140    1.8130 C.2     1  UNL1        0.0000
@<TRIPOS>BOND
     1     5     4    1
     2     3     2    2
     3     4     2    1
     4     2     1    1
     5     1     6    1
     6     6     7    1
     7     7     9    2
     8     7     8    1
     9     9    11    1
    10     8    10    2
    11    11    12    2
    12    10    12    1
