@<TRIPOS>MOLECULE
/home/cewinharhar/GITHUB/reincatalyze/data/processed/docking_pred/2023-Apr-25-1630_maxeplen5_maxtrainstep200_exh32_gamma099_lrac3e-4_lrcr1e-3/e9ca5ba4bc0452251e134010a3e53239cf47eed8_ligand_2.pdbqt
 12 12 0 0 0
SMALL
GASTEIGER

@<TRIPOS>ATOM
      1  C          5.0480    1.7280    0.7020 C.3     1  UNL1        0.1270
      2  C          4.5960    1.0350    1.9320 C.2     1  UNL1        0.3030
      3  O          5.3140    0.1860    2.4830 O.2     1  UNL1       -0.2520
      4  O          3.3610    1.3390    2.4710 O.3     1  UNL1       -0.4810
      5  H          3.1910    1.3410    3.4730 H       1  UNL1        0.2960
      6  C          6.5490    1.8810    0.7010 C.3     1  UNL1        0.0470
      7  C          7.2040    1.0930   -0.3600 C.2     1  UNL1       -0.0470
      8  C          8.5350    1.1850   -0.6800 C.2     1  UNL1        0.0040
      9  C          6.4250    0.2120   -1.0730 C.2     1  UNL1        0.0040
     10  C          9.0650    0.4080   -1.6920 C.2     1  UNL1        0.0000
     11  C          6.9300   -0.5630   -2.0750 C.2     1  UNL1        0.0000
     12  C          8.2670   -0.4710   -2.3970 C.2     1  UNL1        0.0000
@<TRIPOS>BOND
     1    12    11    2
     2    12    10    1
     3    11     9    1
     4    10     8    2
     5     9     7    2
     6     8     7    1
     7     7     6    1
     8     6     1    1
     9     1     2    1
    10     2     4    1
    11     2     3    2
    12     4     5    1
