@<TRIPOS>MOLECULE
/home/cewinharhar/GITHUB/reincatalyze/data/processed/docking_pred/2023-Apr-25-1630_maxeplen5_maxtrainstep200_exh32_gamma099_lrac3e-4_lrcr1e-3/e9ca5ba4bc0452251e134010a3e53239cf47eed8_ligand_2.pdbqt
 12 12 0 0 0
SMALL
GASTEIGER

@<TRIPOS>ATOM
      1  C          5.5550    2.9090   -0.0970 C.3     1  UNL1        0.1270
      2  C          6.2690    3.8950    0.7480 C.2     1  UNL1        0.3030
      3  O          6.9780    4.7750    0.2360 O.2     1  UNL1       -0.2520
      4  O          6.1430    3.8350    2.1230 O.3     1  UNL1       -0.4810
      5  H          6.1900    4.6630    2.7100 H       1  UNL1        0.2960
      6  C          4.9160    1.8430    0.7580 C.3     1  UNL1        0.0470
      7  C          5.7180    0.6060    0.8250 C.2     1  UNL1       -0.0470
      8  C          6.4050    0.0730   -0.2360 C.2     1  UNL1        0.0040
      9  C          5.7760   -0.0520    2.0310 C.2     1  UNL1        0.0040
     10  C          7.1310   -1.0920   -0.0840 C.2     1  UNL1        0.0000
     11  C          6.4870   -1.2030    2.2010 C.2     1  UNL1        0.0000
     12  C          7.1780   -1.7390    1.1350 C.2     1  UNL1        0.0000
@<TRIPOS>BOND
     1     8    10    1
     2     8     7    2
     3     1     2    1
     4     1     6    1
     5    10    12    2
     6     3     2    2
     7     2     4    1
     8     6     7    1
     9     7     9    1
    10    12    11    1
    11     9    11    2
    12     4     5    1
