MODEL 1
REMARK VINA RESULT:      -7.3      0.000      0.000
REMARK SMILES O=C(O)CCc1ccccc1
REMARK SMILES IDX 4 1 2 2 1 3 3 4 5 6 6 7 7 8 11 9 8 10 10 11 9 12
REMARK H PARENT 3 5
REMARK Flexibility Score: inf
ROOT
ATOM      1  C   UNL     1       8.451  -0.593  -2.227  1.00  0.00     0.127 C 
ENDROOT
BRANCH   1   2
ATOM      2  C   UNL     1       8.504  -1.897  -2.929  1.00  0.00     0.303 C 
ATOM      3  O   UNL     1       9.582  -2.490  -3.087  1.00  0.00    -0.252 OA
BRANCH   2   4
ATOM      4  O   UNL     1       7.339  -2.458  -3.415  1.00  0.00    -0.481 OA
ATOM      5  H   UNL     1       6.692  -2.967  -2.819  1.00  0.00     0.296 HD
ENDBRANCH   2   4
ENDBRANCH   1   2
BRANCH   1   6
ATOM      6  C   UNL     1       7.035  -0.078  -2.172  1.00  0.00     0.047 C 
BRANCH   6   7
ATOM      7  C   UNL     1       6.510   0.010  -0.795  1.00  0.00    -0.047 A 
ATOM      8  C   UNL     1       6.626  -0.986   0.140  1.00  0.00     0.004 A 
ATOM      9  C   UNL     1       5.863   1.167  -0.432  1.00  0.00     0.004 A 
ATOM     10  C   UNL     1       6.103  -0.819   1.408  1.00  0.00     0.000 A 
ATOM     11  C   UNL     1       5.340   1.352   0.813  1.00  0.00     0.000 A 
ATOM     12  C   UNL     1       5.457   0.351   1.754  1.00  0.00     0.000 A 
ENDBRANCH   6   7
ENDBRANCH   1   6
TORSDOF 4
ENDMDL
MODEL 2
REMARK VINA RESULT:      -7.3      0.114      1.429
REMARK SMILES O=C(O)CCc1ccccc1
REMARK SMILES IDX 4 1 2 2 1 3 3 4 5 6 6 7 7 8 11 9 8 10 10 11 9 12
REMARK H PARENT 3 5
REMARK Flexibility Score: inf
ROOT
ATOM      1  C   UNL     1       8.407  -0.630  -2.138  1.00  0.00     0.127 C 
ENDROOT
BRANCH   1   2
ATOM      2  C   UNL     1       8.470  -1.897  -2.903  1.00  0.00     0.303 C 
ATOM      3  O   UNL     1       9.549  -2.487  -3.068  1.00  0.00    -0.252 OA
BRANCH   2   4
ATOM      4  O   UNL     1       7.313  -2.429  -3.440  1.00  0.00    -0.481 OA
ATOM      5  H   UNL     1       7.321  -3.033  -4.256  1.00  0.00     0.296 HD
ENDBRANCH   2   4
ENDBRANCH   1   2
BRANCH   1   6
ATOM      6  C   UNL     1       7.000  -0.086  -2.128  1.00  0.00     0.047 C 
BRANCH   6   7
ATOM      7  C   UNL     1       6.456   0.068  -0.765  1.00  0.00    -0.047 A 
ATOM      8  C   UNL     1       5.823   1.197  -0.310  1.00  0.00     0.004 A 
ATOM      9  C   UNL     1       6.596  -0.990   0.100  1.00  0.00     0.004 A 
ATOM     10  C   UNL     1       5.344   1.255   0.984  1.00  0.00     0.000 A 
ATOM     11  C   UNL     1       6.131  -0.952   1.382  1.00  0.00     0.000 A 
ATOM     12  C   UNL     1       5.494   0.182   1.840  1.00  0.00     0.000 A 
ENDBRANCH   6   7
ENDBRANCH   1   6
TORSDOF 4
ENDMDL
MODEL 3
REMARK VINA RESULT:      -6.7      3.350      5.040
REMARK SMILES O=C(O)CCc1ccccc1
REMARK SMILES IDX 4 1 2 2 1 3 3 4 5 6 6 7 7 8 11 9 8 10 10 11 9 12
REMARK H PARENT 3 5
REMARK Flexibility Score: inf
ROOT
ATOM      1  C   UNL     1       5.048   1.728   0.702  1.00  0.00     0.127 C 
ENDROOT
BRANCH   1   2
ATOM      2  C   UNL     1       4.596   1.035   1.932  1.00  0.00     0.303 C 
ATOM      3  O   UNL     1       5.314   0.186   2.483  1.00  0.00    -0.252 OA
BRANCH   2   4
ATOM      4  O   UNL     1       3.361   1.339   2.471  1.00  0.00    -0.481 OA
ATOM      5  H   UNL     1       3.191   1.341   3.473  1.00  0.00     0.296 HD
ENDBRANCH   2   4
ENDBRANCH   1   2
BRANCH   1   6
ATOM      6  C   UNL     1       6.549   1.881   0.701  1.00  0.00     0.047 C 
BRANCH   6   7
ATOM      7  C   UNL     1       7.204   1.093  -0.360  1.00  0.00    -0.047 A 
ATOM      8  C   UNL     1       8.535   1.185  -0.680  1.00  0.00     0.004 A 
ATOM      9  C   UNL     1       6.425   0.212  -1.073  1.00  0.00     0.004 A 
ATOM     10  C   UNL     1       9.065   0.408  -1.692  1.00  0.00     0.000 A 
ATOM     11  C   UNL     1       6.930  -0.563  -2.075  1.00  0.00     0.000 A 
ATOM     12  C   UNL     1       8.267  -0.471  -2.397  1.00  0.00     0.000 A 
ENDBRANCH   6   7
ENDBRANCH   1   6
TORSDOF 4
ENDMDL
MODEL 4
REMARK VINA RESULT:      -6.7      3.833      4.951
REMARK SMILES O=C(O)CCc1ccccc1
REMARK SMILES IDX 4 1 2 2 1 3 3 4 5 6 6 7 7 8 11 9 8 10 10 11 9 12
REMARK H PARENT 3 5
REMARK Flexibility Score: inf
ROOT
ATOM      1  C   UNL     1       5.555   2.909  -0.097  1.00  0.00     0.127 C 
ENDROOT
BRANCH   1   2
ATOM      2  C   UNL     1       6.269   3.895   0.748  1.00  0.00     0.303 C 
ATOM      3  O   UNL     1       6.978   4.775   0.236  1.00  0.00    -0.252 OA
BRANCH   2   4
ATOM      4  O   UNL     1       6.143   3.835   2.123  1.00  0.00    -0.481 OA
ATOM      5  H   UNL     1       6.190   4.663   2.710  1.00  0.00     0.296 HD
ENDBRANCH   2   4
ENDBRANCH   1   2
BRANCH   1   6
ATOM      6  C   UNL     1       4.916   1.843   0.758  1.00  0.00     0.047 C 
BRANCH   6   7
ATOM      7  C   UNL     1       5.718   0.606   0.825  1.00  0.00    -0.047 A 
ATOM      8  C   UNL     1       6.405   0.073  -0.236  1.00  0.00     0.004 A 
ATOM      9  C   UNL     1       5.776  -0.052   2.031  1.00  0.00     0.004 A 
ATOM     10  C   UNL     1       7.131  -1.092  -0.084  1.00  0.00     0.000 A 
ATOM     11  C   UNL     1       6.487  -1.203   2.201  1.00  0.00     0.000 A 
ATOM     12  C   UNL     1       7.178  -1.739   1.135  1.00  0.00     0.000 A 
ENDBRANCH   6   7
ENDBRANCH   1   6
TORSDOF 4
ENDMDL
MODEL 5
REMARK VINA RESULT:      -6.7      3.844      4.929
REMARK SMILES O=C(O)CCc1ccccc1
REMARK SMILES IDX 4 1 2 2 1 3 3 4 5 6 6 7 7 8 11 9 8 10 10 11 9 12
REMARK H PARENT 3 5
REMARK Flexibility Score: inf
ROOT
ATOM      1  C   UNL     1       5.485   2.880   0.050  1.00  0.00     0.127 C 
ENDROOT
BRANCH   1   2
ATOM      2  C   UNL     1       6.288   3.854   0.827  1.00  0.00     0.303 C 
ATOM      3  O   UNL     1       6.895   4.774   0.258  1.00  0.00    -0.252 OA
BRANCH   2   4
ATOM      4  O   UNL     1       6.362   3.735   2.202  1.00  0.00    -0.481 OA
ATOM      5  H   UNL     1       7.240   3.813   2.707  1.00  0.00     0.296 HD
ENDBRANCH   2   4
ENDBRANCH   1   2
BRANCH   1   6
ATOM      6  C   UNL     1       4.873   1.849   0.965  1.00  0.00     0.047 C 
BRANCH   6   7
ATOM      7  C   UNL     1       5.650   0.595   1.016  1.00  0.00    -0.047 A 
ATOM      8  C   UNL     1       5.735  -0.216   2.118  1.00  0.00     0.004 A 
ATOM      9  C   UNL     1       6.332   0.222  -0.118  1.00  0.00     0.004 A 
ATOM     10  C   UNL     1       6.488  -1.373   2.078  1.00  0.00     0.000 A 
ATOM     11  C   UNL     1       7.081  -0.916  -0.178  1.00  0.00     0.000 A 
ATOM     12  C   UNL     1       7.166  -1.732   0.930  1.00  0.00     0.000 A 
ENDBRANCH   6   7
ENDBRANCH   1   6
TORSDOF 4
ENDMDL
