@<TRIPOS>MOLECULE
/home/cewinharhar/GITHUB/reincatalyze/data/processed/docking_pred/2023-Apr-25-1630_maxeplen5_maxtrainstep200_exh32_gamma099_lrac3e-4_lrcr1e-3/e9ca5ba4bc0452251e134010a3e53239cf47eed8_ligand_2.pdbqt
 12 12 0 0 0
SMALL
GASTEIGER

@<TRIPOS>ATOM
      1  C          5.4850    2.8800    0.0500 C.3     1  UNL1        0.1270
      2  C          6.2880    3.8540    0.8270 C.2     1  UNL1        0.3030
      3  O          6.8950    4.7740    0.2580 O.2     1  UNL1       -0.2520
      4  O          6.3620    3.7350    2.2020 O.3     1  UNL1       -0.4810
      5  H          7.2400    3.8130    2.7070 H       1  UNL1        0.2960
      6  C          4.8730    1.8490    0.9650 C.3     1  UNL1        0.0470
      7  C          5.6500    0.5950    1.0160 C.2     1  UNL1       -0.0470
      8  C          5.7350   -0.2160    2.1180 C.2     1  UNL1        0.0040
      9  C          6.3320    0.2220   -0.1180 C.2     1  UNL1        0.0040
     10  C          6.4880   -1.3730    2.0780 C.2     1  UNL1        0.0000
     11  C          7.0810   -0.9160   -0.1780 C.2     1  UNL1        0.0000
     12  C          7.1660   -1.7320    0.9300 C.2     1  UNL1        0.0000
@<TRIPOS>BOND
     1    11     9    1
     2    11    12    2
     3     9     7    2
     4     1     2    1
     5     1     6    1
     6     3     2    2
     7     2     4    1
     8    12    10    1
     9     6     7    1
    10     7     8    1
    11    10     8    2
    12     4     5    1
