@<TRIPOS>MOLECULE
/home/cewinharhar/GITHUB/reincatalyze/data/processed/docking_pred/2023-Apr-25-1630_maxeplen5_maxtrainstep200_exh32_gamma099_lrac3e-4_lrcr1e-3/e9ca5ba4bc0452251e134010a3e53239cf47eed8_ligand_2.pdbqt
 12 12 0 0 0
SMALL
GASTEIGER

@<TRIPOS>ATOM
      1  C          8.4070   -0.6300   -2.1380 C.3     1  UNL1        0.1270
      2  C          8.4700   -1.8970   -2.9030 C.2     1  UNL1        0.3030
      3  O          9.5490   -2.4870   -3.0680 O.2     1  UNL1       -0.2520
      4  O          7.3130   -2.4290   -3.4400 O.3     1  UNL1       -0.4810
      5  H          7.3210   -3.0330   -4.2560 H       1  UNL1        0.2960
      6  C          7.0000   -0.0860   -2.1280 C.3     1  UNL1        0.0470
      7  C          6.4560    0.0680   -0.7650 C.2     1  UNL1       -0.0470
      8  C          5.8230    1.1970   -0.3100 C.2     1  UNL1        0.0040
      9  C          6.5960   -0.9900    0.1000 C.2     1  UNL1        0.0040
     10  C          5.3440    1.2550    0.9840 C.2     1  UNL1        0.0000
     11  C          6.1310   -0.9520    1.3820 C.2     1  UNL1        0.0000
     12  C          5.4940    0.1820    1.8400 C.2     1  UNL1        0.0000
@<TRIPOS>BOND
     1     5     4    1
     2     4     2    1
     3     3     2    2
     4     2     1    1
     5     1     6    1
     6     6     7    1
     7     7     8    2
     8     7     9    1
     9     8    10    1
    10     9    11    2
    11    10    12    2
    12    11    12    1
