@<TRIPOS>MOLECULE
/home/cewinharhar/GITHUB/reincatalyze/data/processed/docking_pred/2023-Apr-25-1630_maxeplen5_maxtrainstep200_exh32_gamma099_lrac3e-4_lrcr1e-3/e9ca5ba4bc0452251e134010a3e53239cf47eed8_ligand_2.pdbqt
 12 12 0 0 0
SMALL
GASTEIGER

@<TRIPOS>ATOM
      1  C          8.4510   -0.5930   -2.2270 C.3     1  UNL1        0.1270
      2  C          8.5040   -1.8970   -2.9290 C.2     1  UNL1        0.3030
      3  O          9.5820   -2.4900   -3.0870 O.2     1  UNL1       -0.2520
      4  O          7.3390   -2.4580   -3.4150 O.3     1  UNL1       -0.4810
      5  H          6.6920   -2.9670   -2.8190 H       1  UNL1        0.2960
      6  C          7.0350   -0.0780   -2.1720 C.3     1  UNL1        0.0470
      7  C          6.5100    0.0100   -0.7950 C.2     1  UNL1       -0.0470
      8  C          6.6260   -0.9860    0.1400 C.2     1  UNL1        0.0040
      9  C          5.8630    1.1670   -0.4320 C.2     1  UNL1        0.0040
     10  C          6.1030   -0.8190    1.4080 C.2     1  UNL1        0.0000
     11  C          5.3400    1.3520    0.8130 C.2     1  UNL1        0.0000
     12  C          5.4570    0.3510    1.7540 C.2     1  UNL1        0.0000
@<TRIPOS>BOND
     1     4     2    1
     2     4     5    1
     3     3     2    2
     4     2     1    1
     5     1     6    1
     6     6     7    1
     7     7     9    2
     8     7     8    1
     9     9    11    1
    10     8    10    2
    11    11    12    2
    12    10    12    1
