@<TRIPOS>MOLECULE
/home/cewinharhar/GITHUB/reincatalyze/data/processed/docking_pred/2023-Apr-25-1630_maxeplen5_maxtrainstep200_exh32_gamma099_lrac3e-4_lrcr1e-3/f32d20faebe3d2be17d1bcf3c85c7c889e58fe23_ligand_2.pdbqt
 12 12 0 0 0
SMALL
GASTEIGER

@<TRIPOS>ATOM
      1  C          8.1800   -1.6790    1.1690 C.3     1  UNL1        0.1270
      2  C          8.5300   -2.8750    0.3670 C.2     1  UNL1        0.3030
      3  O          9.2150   -3.7880    0.8530 O.2     1  UNL1       -0.2520
      4  O          8.0890   -2.9730   -0.9390 O.3     1  UNL1       -0.4810
      5  H          7.8380   -3.8620   -1.3620 H       1  UNL1        0.2960
      6  C          6.6850   -1.5710    1.3340 C.3     1  UNL1        0.0470
      7  C          6.1480   -0.2820    0.8550 C.2     1  UNL1       -0.0470
      8  C          5.4090    0.5790    1.6240 C.2     1  UNL1        0.0040
      9  C          6.4080    0.0710   -0.4470 C.2     1  UNL1        0.0040
     10  C          4.9440    1.7670    1.0930 C.2     1  UNL1        0.0000
     11  C          5.9580    1.2380   -0.9910 C.2     1  UNL1        0.0000
     12  C          5.2150    2.1050   -0.2180 C.2     1  UNL1        0.0000
@<TRIPOS>BOND
     1     5     4    1
     2    11     9    1
     3    11    12    2
     4     4     2    1
     5     9     7    2
     6    12    10    1
     7     2     3    2
     8     2     1    1
     9     7     6    1
    10     7     8    1
    11    10     8    2
    12     1     6    1
