MODEL 1
REMARK VINA RESULT:      -7.3      0.000      0.000
REMARK SMILES O=C(O)CCc1ccccc1
REMARK SMILES IDX 4 1 2 2 1 3 3 4 5 6 6 7 7 8 11 9 8 10 10 11 9 12
REMARK H PARENT 3 5
REMARK Flexibility Score: inf
ROOT
ATOM      1  C   UNL     1       8.398  -0.660  -2.123  1.00  0.00     0.127 C 
ENDROOT
BRANCH   1   2
ATOM      2  C   UNL     1       8.457  -1.923  -2.896  1.00  0.00     0.303 C 
ATOM      3  O   UNL     1       9.538  -2.502  -3.086  1.00  0.00    -0.252 OA
BRANCH   2   4
ATOM      4  O   UNL     1       7.294  -2.462  -3.411  1.00  0.00    -0.481 OA
ATOM      5  H   UNL     1       6.520  -2.752  -2.819  1.00  0.00     0.296 HD
ENDBRANCH   2   4
ENDBRANCH   1   2
BRANCH   1   6
ATOM      6  C   UNL     1       7.000  -0.095  -2.135  1.00  0.00     0.047 C 
BRANCH   6   7
ATOM      7  C   UNL     1       6.447   0.093  -0.780  1.00  0.00    -0.047 A 
ATOM      8  C   UNL     1       5.808   1.231  -0.359  1.00  0.00     0.004 A 
ATOM      9  C   UNL     1       6.585  -0.941   0.114  1.00  0.00     0.004 A 
ATOM     10  C   UNL     1       5.321   1.322   0.931  1.00  0.00     0.000 A 
ATOM     11  C   UNL     1       6.112  -0.871   1.391  1.00  0.00     0.000 A 
ATOM     12  C   UNL     1       5.469   0.272   1.815  1.00  0.00     0.000 A 
ENDBRANCH   6   7
ENDBRANCH   1   6
TORSDOF 4
ENDMDL
MODEL 2
REMARK VINA RESULT:      -7.3      0.084      1.429
REMARK SMILES O=C(O)CCc1ccccc1
REMARK SMILES IDX 4 1 2 2 1 3 3 4 5 6 6 7 7 8 11 9 8 10 10 11 9 12
REMARK H PARENT 3 5
REMARK Flexibility Score: inf
ROOT
ATOM      1  C   UNL     1       8.405  -0.559  -2.260  1.00  0.00     0.127 C 
ENDROOT
BRANCH   1   2
ATOM      2  C   UNL     1       8.463  -1.886  -2.918  1.00  0.00     0.303 C 
ATOM      3  O   UNL     1       9.542  -2.487  -3.042  1.00  0.00    -0.252 OA
BRANCH   2   4
ATOM      4  O   UNL     1       7.303  -2.461  -3.400  1.00  0.00    -0.481 OA
ATOM      5  H   UNL     1       7.077  -3.440  -3.247  1.00  0.00     0.296 HD
ENDBRANCH   2   4
ENDBRANCH   1   2
BRANCH   1   6
ATOM      6  C   UNL     1       6.980  -0.070  -2.181  1.00  0.00     0.047 C 
BRANCH   6   7
ATOM      7  C   UNL     1       6.481   0.017  -0.795  1.00  0.00    -0.047 A 
ATOM      8  C   UNL     1       6.596  -0.987   0.131  1.00  0.00     0.004 A 
ATOM      9  C   UNL     1       5.859   1.182  -0.414  1.00  0.00     0.004 A 
ATOM     10  C   UNL     1       6.098  -0.820   1.409  1.00  0.00     0.000 A 
ATOM     11  C   UNL     1       5.360   1.367   0.842  1.00  0.00     0.000 A 
ATOM     12  C   UNL     1       5.476   0.358   1.774  1.00  0.00     0.000 A 
ENDBRANCH   6   7
ENDBRANCH   1   6
TORSDOF 4
ENDMDL
MODEL 3
REMARK VINA RESULT:      -7.1      0.669      1.897
REMARK SMILES O=C(O)CCc1ccccc1
REMARK SMILES IDX 4 1 2 2 1 3 3 4 5 6 6 7 7 8 11 9 8 10 10 11 9 12
REMARK H PARENT 3 5
REMARK Flexibility Score: inf
ROOT
ATOM      1  C   UNL     1       8.300  -1.072  -1.668  1.00  0.00     0.127 C 
ENDROOT
BRANCH   1   2
ATOM      2  C   UNL     1       8.324  -2.036  -2.793  1.00  0.00     0.303 C 
ATOM      3  O   UNL     1       7.270  -2.435  -3.311  1.00  0.00    -0.252 OA
BRANCH   2   4
ATOM      4  O   UNL     1       9.536  -2.497  -3.271  1.00  0.00    -0.481 OA
ATOM      5  H   UNL     1      10.195  -3.002  -2.685  1.00  0.00     0.296 HD
ENDBRANCH   2   4
ENDBRANCH   1   2
BRANCH   1   6
ATOM      6  C   UNL     1       7.333  -1.525  -0.603  1.00  0.00     0.047 C 
BRANCH   6   7
ATOM      7  C   UNL     1       6.535  -0.417  -0.044  1.00  0.00    -0.047 A 
ATOM      8  C   UNL     1       6.037  -0.391   1.233  1.00  0.00     0.004 A 
ATOM      9  C   UNL     1       6.277   0.657  -0.863  1.00  0.00     0.004 A 
ATOM     10  C   UNL     1       5.297   0.690   1.672  1.00  0.00     0.000 A 
ATOM     11  C   UNL     1       5.549   1.733  -0.448  1.00  0.00     0.000 A 
ATOM     12  C   UNL     1       5.048   1.759   0.836  1.00  0.00     0.000 A 
ENDBRANCH   6   7
ENDBRANCH   1   6
TORSDOF 4
ENDMDL
MODEL 4
REMARK VINA RESULT:      -6.8      3.374      5.079
REMARK SMILES O=C(O)CCc1ccccc1
REMARK SMILES IDX 4 1 2 2 1 3 3 4 5 6 6 7 7 8 11 9 8 10 10 11 9 12
REMARK H PARENT 3 5
REMARK Flexibility Score: inf
ROOT
ATOM      1  C   UNL     1       4.992   1.791   0.723  1.00  0.00     0.127 C 
ENDROOT
BRANCH   1   2
ATOM      2  C   UNL     1       4.486   1.090   1.927  1.00  0.00     0.303 C 
ATOM      3  O   UNL     1       5.150   0.189   2.463  1.00  0.00    -0.252 OA
BRANCH   2   4
ATOM      4  O   UNL     1       3.260   1.443   2.458  1.00  0.00    -0.481 OA
ATOM      5  H   UNL     1       2.822   2.339   2.264  1.00  0.00     0.296 HD
ENDBRANCH   2   4
ENDBRANCH   1   2
BRANCH   1   6
ATOM      6  C   UNL     1       6.499   1.832   0.728  1.00  0.00     0.047 C 
BRANCH   6   7
ATOM      7  C   UNL     1       7.098   1.031  -0.356  1.00  0.00    -0.047 A 
ATOM      8  C   UNL     1       6.414   0.103  -1.098  1.00  0.00     0.004 A 
ATOM      9  C   UNL     1       8.429   1.232  -0.636  1.00  0.00     0.004 A 
ATOM     10  C   UNL     1       7.056  -0.604  -2.097  1.00  0.00     0.000 A 
ATOM     11  C   UNL     1       9.081   0.543  -1.617  1.00  0.00     0.000 A 
ATOM     12  C   UNL     1       8.393  -0.389  -2.364  1.00  0.00     0.000 A 
ENDBRANCH   6   7
ENDBRANCH   1   6
TORSDOF 4
ENDMDL
MODEL 5
REMARK VINA RESULT:      -6.6      1.898      2.844
REMARK SMILES O=C(O)CCc1ccccc1
REMARK SMILES IDX 4 1 2 2 1 3 3 4 5 6 6 7 7 8 11 9 8 10 10 11 9 12
REMARK H PARENT 3 5
REMARK Flexibility Score: inf
ROOT
ATOM      1  C   UNL     1       8.180  -1.679   1.169  1.00  0.00     0.127 C 
ENDROOT
BRANCH   1   2
ATOM      2  C   UNL     1       8.530  -2.875   0.367  1.00  0.00     0.303 C 
ATOM      3  O   UNL     1       9.215  -3.788   0.853  1.00  0.00    -0.252 OA
BRANCH   2   4
ATOM      4  O   UNL     1       8.089  -2.973  -0.939  1.00  0.00    -0.481 OA
ATOM      5  H   UNL     1       7.838  -3.862  -1.362  1.00  0.00     0.296 HD
ENDBRANCH   2   4
ENDBRANCH   1   2
BRANCH   1   6
ATOM      6  C   UNL     1       6.685  -1.571   1.334  1.00  0.00     0.047 C 
BRANCH   6   7
ATOM      7  C   UNL     1       6.148  -0.282   0.855  1.00  0.00    -0.047 A 
ATOM      8  C   UNL     1       5.409   0.579   1.624  1.00  0.00     0.004 A 
ATOM      9  C   UNL     1       6.408   0.071  -0.447  1.00  0.00     0.004 A 
ATOM     10  C   UNL     1       4.944   1.767   1.093  1.00  0.00     0.000 A 
ATOM     11  C   UNL     1       5.958   1.238  -0.991  1.00  0.00     0.000 A 
ATOM     12  C   UNL     1       5.215   2.105  -0.218  1.00  0.00     0.000 A 
ENDBRANCH   6   7
ENDBRANCH   1   6
TORSDOF 4
ENDMDL
