@<TRIPOS>MOLECULE
/home/cewinharhar/GITHUB/reincatalyze/data/processed/docking_pred/2023-Apr-25-1630_maxeplen5_maxtrainstep200_exh32_gamma099_lrac3e-4_lrcr1e-3/f32d20faebe3d2be17d1bcf3c85c7c889e58fe23_ligand_2.pdbqt
 12 12 0 0 0
SMALL
GASTEIGER

@<TRIPOS>ATOM
      1  C          4.9920    1.7910    0.7230 C.3     1  UNL1        0.1270
      2  C          4.4860    1.0900    1.9270 C.2     1  UNL1        0.3030
      3  O          5.1500    0.1890    2.4630 O.2     1  UNL1       -0.2520
      4  O          3.2600    1.4430    2.4580 O.3     1  UNL1       -0.4810
      5  H          2.8220    2.3390    2.2640 H       1  UNL1        0.2960
      6  C          6.4990    1.8320    0.7280 C.3     1  UNL1        0.0470
      7  C          7.0980    1.0310   -0.3560 C.2     1  UNL1       -0.0470
      8  C          6.4140    0.1030   -1.0980 C.2     1  UNL1        0.0040
      9  C          8.4290    1.2320   -0.6360 C.2     1  UNL1        0.0040
     10  C          7.0560   -0.6040   -2.0970 C.2     1  UNL1        0.0000
     11  C          9.0810    0.5430   -1.6170 C.2     1  UNL1        0.0000
     12  C          8.3930   -0.3890   -2.3640 C.2     1  UNL1        0.0000
@<TRIPOS>BOND
     1    12    10    2
     2    12    11    1
     3    10     8    1
     4    11     9    2
     5     8     7    2
     6     9     7    1
     7     7     6    1
     8     1     6    1
     9     1     2    1
    10     2     4    1
    11     2     3    2
    12     5     4    1
