@<TRIPOS>MOLECULE
/home/cewinharhar/GITHUB/reincatalyze/data/processed/docking_pred/2023-Apr-25-1630_maxeplen5_maxtrainstep200_exh32_gamma099_lrac3e-4_lrcr1e-3/f32d20faebe3d2be17d1bcf3c85c7c889e58fe23_ligand_2.pdbqt
 12 12 0 0 0
SMALL
GASTEIGER

@<TRIPOS>ATOM
      1  C          8.4050   -0.5590   -2.2600 C.3     1  UNL1        0.1270
      2  C          8.4630   -1.8860   -2.9180 C.2     1  UNL1        0.3030
      3  O          9.5420   -2.4870   -3.0420 O.2     1  UNL1       -0.2520
      4  O          7.3030   -2.4610   -3.4000 O.3     1  UNL1       -0.4810
      5  H          7.0770   -3.4400   -3.2470 H       1  UNL1        0.2960
      6  C          6.9800   -0.0700   -2.1810 C.3     1  UNL1        0.0470
      7  C          6.4810    0.0170   -0.7950 C.2     1  UNL1       -0.0470
      8  C          6.5960   -0.9870    0.1310 C.2     1  UNL1        0.0040
      9  C          5.8590    1.1820   -0.4140 C.2     1  UNL1        0.0040
     10  C          6.0980   -0.8200    1.4090 C.2     1  UNL1        0.0000
     11  C          5.3600    1.3670    0.8420 C.2     1  UNL1        0.0000
     12  C          5.4760    0.3580    1.7740 C.2     1  UNL1        0.0000
@<TRIPOS>BOND
     1     4     5    1
     2     4     2    1
     3     3     2    2
     4     2     1    1
     5     1     6    1
     6     6     7    1
     7     7     9    2
     8     7     8    1
     9     9    11    1
    10     8    10    2
    11    11    12    2
    12    10    12    1
