@<TRIPOS>MOLECULE
/home/cewinharhar/GITHUB/reincatalyze/data/processed/docking_pred/2023-Apr-25-1630_maxeplen5_maxtrainstep200_exh32_gamma099_lrac3e-4_lrcr1e-3/f32d20faebe3d2be17d1bcf3c85c7c889e58fe23_ligand_2.pdbqt
 12 12 0 0 0
SMALL
GASTEIGER

@<TRIPOS>ATOM
      1  C          8.3000   -1.0720   -1.6680 C.3     1  UNL1        0.1270
      2  C          8.3240   -2.0360   -2.7930 C.2     1  UNL1        0.3030
      3  O          7.2700   -2.4350   -3.3110 O.2     1  UNL1       -0.2520
      4  O          9.5360   -2.4970   -3.2710 O.3     1  UNL1       -0.4810
      5  H         10.1950   -3.0020   -2.6850 H       1  UNL1        0.2960
      6  C          7.3330   -1.5250   -0.6030 C.3     1  UNL1        0.0470
      7  C          6.5350   -0.4170   -0.0440 C.2     1  UNL1       -0.0470
      8  C          6.0370   -0.3910    1.2330 C.2     1  UNL1        0.0040
      9  C          6.2770    0.6570   -0.8630 C.2     1  UNL1        0.0040
     10  C          5.2970    0.6900    1.6720 C.2     1  UNL1        0.0000
     11  C          5.5490    1.7330   -0.4480 C.2     1  UNL1        0.0000
     12  C          5.0480    1.7590    0.8360 C.2     1  UNL1        0.0000
@<TRIPOS>BOND
     1     3     2    2
     2     4     2    1
     3     4     5    1
     4     2     1    1
     5     1     6    1
     6     9    11    1
     7     9     7    2
     8     6     7    1
     9    11    12    2
    10     7     8    1
    11    12    10    1
    12     8    10    2
