@<TRIPOS>MOLECULE
/home/cewinharhar/GITHUB/reincatalyze/data/processed/docking_pred/2023-Apr-25-1630_maxeplen5_maxtrainstep200_exh32_gamma099_lrac3e-4_lrcr1e-3/f32d20faebe3d2be17d1bcf3c85c7c889e58fe23_ligand_2.pdbqt
 12 12 0 0 0
SMALL
GASTEIGER

@<TRIPOS>ATOM
      1  C          8.3980   -0.6600   -2.1230 C.3     1  UNL1        0.1270
      2  C          8.4570   -1.9230   -2.8960 C.2     1  UNL1        0.3030
      3  O          9.5380   -2.5020   -3.0860 O.2     1  UNL1       -0.2520
      4  O          7.2940   -2.4620   -3.4110 O.3     1  UNL1       -0.4810
      5  H          6.5200   -2.7520   -2.8190 H       1  UNL1        0.2960
      6  C          7.0000   -0.0950   -2.1350 C.3     1  UNL1        0.0470
      7  C          6.4470    0.0930   -0.7800 C.2     1  UNL1       -0.0470
      8  C          5.8080    1.2310   -0.3590 C.2     1  UNL1        0.0040
      9  C          6.5850   -0.9410    0.1140 C.2     1  UNL1        0.0040
     10  C          5.3210    1.3220    0.9310 C.2     1  UNL1        0.0000
     11  C          6.1120   -0.8710    1.3910 C.2     1  UNL1        0.0000
     12  C          5.4690    0.2720    1.8150 C.2     1  UNL1        0.0000
@<TRIPOS>BOND
     1     4     2    1
     2     4     5    1
     3     3     2    2
     4     2     1    1
     5     6     1    1
     6     6     7    1
     7     7     8    2
     8     7     9    1
     9     8    10    1
    10     9    11    2
    11    10    12    2
    12    11    12    1
