@<TRIPOS>MOLECULE
/home/cewinharhar/GITHUB/reincatalyze/data/processed/docking_pred/2023-Apr-25-1630_maxeplen5_maxtrainstep200_exh32_gamma099_lrac3e-4_lrcr1e-3/f3c5d297feb9947f67baa3310bcd1cfc63c32b25_ligand_2.pdbqt
 12 12 0 0 0
SMALL
GASTEIGER

@<TRIPOS>ATOM
      1  C          8.4890   -0.7090   -2.0650 C.3     1  UNL1        0.1270
      2  C          8.5100   -1.9440   -2.8830 C.2     1  UNL1        0.3030
      3  O          9.5740   -2.5430   -3.1020 O.2     1  UNL1       -0.2520
      4  O          7.3300   -2.4350   -3.4080 O.3     1  UNL1       -0.4810
      5  H          6.6310   -2.8970   -2.8340 H       1  UNL1        0.2960
      6  C          7.1160   -0.0840   -2.0830 C.3     1  UNL1        0.0470
      7  C          6.5260    0.0430   -0.7360 C.2     1  UNL1       -0.0470
      8  C          6.6010   -0.9240    0.2330 C.2     1  UNL1        0.0040
      9  C          5.8590    1.2070   -0.4400 C.2     1  UNL1        0.0040
     10  C          6.0180   -0.7210    1.4690 C.2     1  UNL1        0.0000
     11  C          5.2760    1.4270    0.7730 C.2     1  UNL1        0.0000
     12  C          5.3520    0.4560    1.7480 C.2     1  UNL1        0.0000
@<TRIPOS>BOND
     1     4     2    1
     2     4     5    1
     3     3     2    2
     4     2     1    1
     5     6     1    1
     6     6     7    1
     7     7     9    2
     8     7     8    1
     9     9    11    1
    10     8    10    2
    11    11    12    2
    12    10    12    1
