@<TRIPOS>MOLECULE
/home/cewinharhar/GITHUB/reincatalyze/data/processed/docking_pred/2023-Apr-25-1630_maxeplen5_maxtrainstep200_exh32_gamma099_lrac3e-4_lrcr1e-3/f3c5d297feb9947f67baa3310bcd1cfc63c32b25_ligand_2.pdbqt
 12 12 0 0 0
SMALL
GASTEIGER

@<TRIPOS>ATOM
      1  C          5.0500    1.7210    0.6990 C.3     1  UNL1        0.1270
      2  C          4.5990    1.0300    1.9300 C.2     1  UNL1        0.3030
      3  O          5.3170    0.1810    2.4810 O.2     1  UNL1       -0.2520
      4  O          3.3650    1.3350    2.4710 O.3     1  UNL1       -0.4810
      5  H          3.1220    2.2740    2.7730 H       1  UNL1        0.2960
      6  C          6.5500    1.8790    0.6990 C.3     1  UNL1        0.0470
      7  C          7.2090    1.0940   -0.3630 C.2     1  UNL1       -0.0470
      8  C          8.5420    1.1810   -0.6730 C.2     1  UNL1        0.0040
      9  C          6.4310    0.2220   -1.0860 C.2     1  UNL1        0.0040
     10  C          9.0760    0.4070   -1.6850 C.2     1  UNL1        0.0000
     11  C          6.9380   -0.5500   -2.0890 C.2     1  UNL1        0.0000
     12  C          8.2780   -0.4640   -2.4010 C.2     1  UNL1        0.0000
@<TRIPOS>BOND
     1    12    11    2
     2    12    10    1
     3    11     9    1
     4    10     8    2
     5     9     7    2
     6     8     7    1
     7     7     6    1
     8     1     6    1
     9     1     2    1
    10     2     4    1
    11     2     3    2
    12     4     5    1
