@<TRIPOS>MOLECULE
/home/cewinharhar/GITHUB/reincatalyze/data/processed/docking_pred/2023-Apr-25-1630_maxeplen5_maxtrainstep200_exh32_gamma099_lrac3e-4_lrcr1e-3/f3c5d297feb9947f67baa3310bcd1cfc63c32b25_ligand_2.pdbqt
 12 12 0 0 0
SMALL
GASTEIGER

@<TRIPOS>ATOM
      1  C          8.3870   -0.7110   -2.0380 C.3     1  UNL1        0.1270
      2  C          8.3640   -1.9310   -2.8800 C.2     1  UNL1        0.3030
      3  O          7.2890   -2.4200   -3.2610 O.2     1  UNL1       -0.2520
      4  O          9.5540   -2.5300   -3.2450 O.3     1  UNL1       -0.4810
      5  H         10.1720   -2.9680   -2.5670 H       1  UNL1        0.2960
      6  C          7.0530   -0.0090   -2.0860 C.3     1  UNL1        0.0470
      7  C          6.4550    0.1760   -0.7490 C.2     1  UNL1       -0.0470
      8  C          5.7870    1.3050   -0.3520 C.2     1  UNL1        0.0040
      9  C          6.5810   -0.8540    0.1530 C.2     1  UNL1        0.0040
     10  C          5.2590    1.3940    0.9210 C.2     1  UNL1        0.0000
     11  C          6.0670   -0.7860    1.4140 C.2     1  UNL1        0.0000
     12  C          5.3950    0.3490    1.8140 C.2     1  UNL1        0.0000
@<TRIPOS>BOND
     1     3     2    2
     2     4     2    1
     3     4     5    1
     4     2     1    1
     5     6     1    1
     6     6     7    1
     7     7     8    2
     8     7     9    1
     9     8    10    1
    10     9    11    2
    11    10    12    2
    12    11    12    1
