@<TRIPOS>MOLECULE
/home/cewinharhar/GITHUB/reincatalyze/data/processed/docking_pred/2023-Apr-25-1630_maxeplen5_maxtrainstep200_exh32_gamma099_lrac3e-4_lrcr1e-3/f3c5d297feb9947f67baa3310bcd1cfc63c32b25_ligand_2.pdbqt
 12 12 0 0 0
SMALL
GASTEIGER

@<TRIPOS>ATOM
      1  C          8.2080    0.2800   -2.0300 C.3     1  UNL1        0.1270
      2  C          9.3940    0.3800   -1.1470 C.2     1  UNL1        0.3030
      3  O          9.5170   -0.3670   -0.1630 O.2     1  UNL1       -0.2520
      4  O         10.3730    1.3150   -1.4210 O.3     1  UNL1       -0.4810
      5  H         10.1530    2.2510   -1.7520 H       1  UNL1        0.2960
      6  C          7.1430   -0.5770   -1.3930 C.3     1  UNL1        0.0470
      7  C          6.3370    0.1570   -0.3990 C.2     1  UNL1       -0.0470
      8  C          5.7840    1.3940   -0.6150 C.2     1  UNL1        0.0040
      9  C          6.1300   -0.4420    0.8210 C.2     1  UNL1        0.0040
     10  C          5.0430    2.0100    0.3750 C.2     1  UNL1        0.0000
     11  C          5.4020    0.1500    1.8110 C.2     1  UNL1        0.0000
     12  C          4.8460    1.3930    1.5940 C.2     1  UNL1        0.0000
@<TRIPOS>BOND
     1     1     6    1
     2     1     2    1
     3     5     4    1
     4     4     2    1
     5     6     7    1
     6     2     3    2
     7     8     7    2
     8     8    10    1
     9     7     9    1
    10    10    12    2
    11     9    11    2
    12    12    11    1
