@<TRIPOS>MOLECULE
/home/cewinharhar/GITHUB/reincatalyze/data/processed/docking_pred/2023-Apr-25-1630_maxeplen5_maxtrainstep200_exh32_gamma099_lrac3e-4_lrcr1e-3/f3c5d297feb9947f67baa3310bcd1cfc63c32b25_ligand_2.pdbqt
 12 12 0 0 0
SMALL
GASTEIGER

@<TRIPOS>ATOM
      1  C          5.4590    2.9100    0.0470 C.3     1  UNL1        0.1270
      2  C          6.2610    3.8840    0.8250 C.2     1  UNL1        0.3030
      3  O          6.9080    4.7740    0.2530 O.2     1  UNL1       -0.2520
      4  O          6.2880    3.7980    2.2030 O.3     1  UNL1       -0.4810
      5  H          6.6110    2.9670    2.6900 H       1  UNL1        0.2960
      6  C          4.8740    1.8580    0.9570 C.3     1  UNL1        0.0470
      7  C          5.6680    0.6150    0.9790 C.2     1  UNL1       -0.0470
      8  C          5.7730   -0.2150    2.0650 C.2     1  UNL1        0.0040
      9  C          6.3460    0.2710   -0.1670 C.2     1  UNL1        0.0040
     10  C          6.5410   -1.3610    1.9980 C.2     1  UNL1        0.0000
     11  C          7.1100   -0.8550   -0.2540 C.2     1  UNL1        0.0000
     12  C          7.2150   -1.6900    0.8380 C.2     1  UNL1        0.0000
@<TRIPOS>BOND
     1    11     9    1
     2    11    12    2
     3     9     7    2
     4     1     2    1
     5     1     6    1
     6     3     2    2
     7     2     4    1
     8    12    10    1
     9     6     7    1
    10     7     8    1
    11    10     8    2
    12     4     5    1
