MODEL 1
REMARK VINA RESULT:      -7.3      0.000      0.000
REMARK SMILES O=C(O)CCc1ccccc1
REMARK SMILES IDX 4 1 2 2 1 3 3 4 5 6 6 7 7 8 11 9 8 10 10 11 9 12
REMARK H PARENT 3 5
REMARK Flexibility Score: inf
ROOT
ATOM      1  C   UNL     1       8.489  -0.709  -2.065  1.00  0.00     0.127 C 
ENDROOT
BRANCH   1   2
ATOM      2  C   UNL     1       8.510  -1.944  -2.883  1.00  0.00     0.303 C 
ATOM      3  O   UNL     1       9.574  -2.543  -3.102  1.00  0.00    -0.252 OA
BRANCH   2   4
ATOM      4  O   UNL     1       7.330  -2.435  -3.408  1.00  0.00    -0.481 OA
ATOM      5  H   UNL     1       6.631  -2.897  -2.834  1.00  0.00     0.296 HD
ENDBRANCH   2   4
ENDBRANCH   1   2
BRANCH   1   6
ATOM      6  C   UNL     1       7.116  -0.084  -2.083  1.00  0.00     0.047 C 
BRANCH   6   7
ATOM      7  C   UNL     1       6.526   0.043  -0.736  1.00  0.00    -0.047 A 
ATOM      8  C   UNL     1       6.601  -0.924   0.233  1.00  0.00     0.004 A 
ATOM      9  C   UNL     1       5.859   1.207  -0.440  1.00  0.00     0.004 A 
ATOM     10  C   UNL     1       6.018  -0.721   1.469  1.00  0.00     0.000 A 
ATOM     11  C   UNL     1       5.276   1.427   0.773  1.00  0.00     0.000 A 
ATOM     12  C   UNL     1       5.352   0.456   1.748  1.00  0.00     0.000 A 
ENDBRANCH   6   7
ENDBRANCH   1   6
TORSDOF 4
ENDMDL
MODEL 2
REMARK VINA RESULT:      -7.3      0.133      1.724
REMARK SMILES O=C(O)CCc1ccccc1
REMARK SMILES IDX 4 1 2 2 1 3 3 4 5 6 6 7 7 8 11 9 8 10 10 11 9 12
REMARK H PARENT 3 5
REMARK Flexibility Score: inf
ROOT
ATOM      1  C   UNL     1       8.387  -0.711  -2.038  1.00  0.00     0.127 C 
ENDROOT
BRANCH   1   2
ATOM      2  C   UNL     1       8.364  -1.931  -2.880  1.00  0.00     0.303 C 
ATOM      3  O   UNL     1       7.289  -2.420  -3.261  1.00  0.00    -0.252 OA
BRANCH   2   4
ATOM      4  O   UNL     1       9.554  -2.530  -3.245  1.00  0.00    -0.481 OA
ATOM      5  H   UNL     1      10.172  -2.968  -2.567  1.00  0.00     0.296 HD
ENDBRANCH   2   4
ENDBRANCH   1   2
BRANCH   1   6
ATOM      6  C   UNL     1       7.053  -0.009  -2.086  1.00  0.00     0.047 C 
BRANCH   6   7
ATOM      7  C   UNL     1       6.455   0.176  -0.749  1.00  0.00    -0.047 A 
ATOM      8  C   UNL     1       5.787   1.305  -0.352  1.00  0.00     0.004 A 
ATOM      9  C   UNL     1       6.581  -0.854   0.153  1.00  0.00     0.004 A 
ATOM     10  C   UNL     1       5.259   1.394   0.921  1.00  0.00     0.000 A 
ATOM     11  C   UNL     1       6.067  -0.786   1.414  1.00  0.00     0.000 A 
ATOM     12  C   UNL     1       5.395   0.349   1.814  1.00  0.00     0.000 A 
ENDBRANCH   6   7
ENDBRANCH   1   6
TORSDOF 4
ENDMDL
MODEL 3
REMARK VINA RESULT:      -6.7      3.336      5.048
REMARK SMILES O=C(O)CCc1ccccc1
REMARK SMILES IDX 4 1 2 2 1 3 3 4 5 6 6 7 7 8 11 9 8 10 10 11 9 12
REMARK H PARENT 3 5
REMARK Flexibility Score: inf
ROOT
ATOM      1  C   UNL     1       5.050   1.721   0.699  1.00  0.00     0.127 C 
ENDROOT
BRANCH   1   2
ATOM      2  C   UNL     1       4.599   1.030   1.930  1.00  0.00     0.303 C 
ATOM      3  O   UNL     1       5.317   0.181   2.481  1.00  0.00    -0.252 OA
BRANCH   2   4
ATOM      4  O   UNL     1       3.365   1.335   2.471  1.00  0.00    -0.481 OA
ATOM      5  H   UNL     1       3.122   2.274   2.773  1.00  0.00     0.296 HD
ENDBRANCH   2   4
ENDBRANCH   1   2
BRANCH   1   6
ATOM      6  C   UNL     1       6.550   1.879   0.699  1.00  0.00     0.047 C 
BRANCH   6   7
ATOM      7  C   UNL     1       7.209   1.094  -0.363  1.00  0.00    -0.047 A 
ATOM      8  C   UNL     1       8.542   1.181  -0.673  1.00  0.00     0.004 A 
ATOM      9  C   UNL     1       6.431   0.222  -1.086  1.00  0.00     0.004 A 
ATOM     10  C   UNL     1       9.076   0.407  -1.685  1.00  0.00     0.000 A 
ATOM     11  C   UNL     1       6.938  -0.550  -2.089  1.00  0.00     0.000 A 
ATOM     12  C   UNL     1       8.278  -0.464  -2.401  1.00  0.00     0.000 A 
ENDBRANCH   6   7
ENDBRANCH   1   6
TORSDOF 4
ENDMDL
MODEL 4
REMARK VINA RESULT:      -6.6      3.820      4.955
REMARK SMILES O=C(O)CCc1ccccc1
REMARK SMILES IDX 4 1 2 2 1 3 3 4 5 6 6 7 7 8 11 9 8 10 10 11 9 12
REMARK H PARENT 3 5
REMARK Flexibility Score: inf
ROOT
ATOM      1  C   UNL     1       5.459   2.910   0.047  1.00  0.00     0.127 C 
ENDROOT
BRANCH   1   2
ATOM      2  C   UNL     1       6.261   3.884   0.825  1.00  0.00     0.303 C 
ATOM      3  O   UNL     1       6.908   4.774   0.253  1.00  0.00    -0.252 OA
BRANCH   2   4
ATOM      4  O   UNL     1       6.288   3.798   2.203  1.00  0.00    -0.481 OA
ATOM      5  H   UNL     1       6.611   2.967   2.690  1.00  0.00     0.296 HD
ENDBRANCH   2   4
ENDBRANCH   1   2
BRANCH   1   6
ATOM      6  C   UNL     1       4.874   1.858   0.957  1.00  0.00     0.047 C 
BRANCH   6   7
ATOM      7  C   UNL     1       5.668   0.615   0.979  1.00  0.00    -0.047 A 
ATOM      8  C   UNL     1       5.773  -0.215   2.065  1.00  0.00     0.004 A 
ATOM      9  C   UNL     1       6.346   0.271  -0.167  1.00  0.00     0.004 A 
ATOM     10  C   UNL     1       6.541  -1.361   1.998  1.00  0.00     0.000 A 
ATOM     11  C   UNL     1       7.110  -0.855  -0.254  1.00  0.00     0.000 A 
ATOM     12  C   UNL     1       7.215  -1.690   0.838  1.00  0.00     0.000 A 
ENDBRANCH   6   7
ENDBRANCH   1   6
TORSDOF 4
ENDMDL
MODEL 5
REMARK VINA RESULT:      -6.6      1.970      2.636
REMARK SMILES O=C(O)CCc1ccccc1
REMARK SMILES IDX 4 1 2 2 1 3 3 4 5 6 6 7 7 8 11 9 8 10 10 11 9 12
REMARK H PARENT 3 5
REMARK Flexibility Score: inf
ROOT
ATOM      1  C   UNL     1       8.208   0.280  -2.030  1.00  0.00     0.127 C 
ENDROOT
BRANCH   1   2
ATOM      2  C   UNL     1       9.394   0.380  -1.147  1.00  0.00     0.303 C 
ATOM      3  O   UNL     1       9.517  -0.367  -0.163  1.00  0.00    -0.252 OA
BRANCH   2   4
ATOM      4  O   UNL     1      10.373   1.315  -1.421  1.00  0.00    -0.481 OA
ATOM      5  H   UNL     1      10.153   2.251  -1.752  1.00  0.00     0.296 HD
ENDBRANCH   2   4
ENDBRANCH   1   2
BRANCH   1   6
ATOM      6  C   UNL     1       7.143  -0.577  -1.393  1.00  0.00     0.047 C 
BRANCH   6   7
ATOM      7  C   UNL     1       6.337   0.157  -0.399  1.00  0.00    -0.047 A 
ATOM      8  C   UNL     1       5.784   1.394  -0.615  1.00  0.00     0.004 A 
ATOM      9  C   UNL     1       6.130  -0.442   0.821  1.00  0.00     0.004 A 
ATOM     10  C   UNL     1       5.043   2.010   0.375  1.00  0.00     0.000 A 
ATOM     11  C   UNL     1       5.402   0.150   1.811  1.00  0.00     0.000 A 
ATOM     12  C   UNL     1       4.846   1.393   1.594  1.00  0.00     0.000 A 
ENDBRANCH   6   7
ENDBRANCH   1   6
TORSDOF 4
ENDMDL
