MODEL 1
REMARK VINA RESULT:      -7.3      0.000      0.000
REMARK SMILES O=C(O)CCc1ccccc1
REMARK SMILES IDX 4 1 2 2 1 3 3 4 5 6 6 7 7 8 11 9 8 10 10 11 9 12
REMARK H PARENT 3 5
REMARK Flexibility Score: inf
ROOT
ATOM      1  C   UNL     1       8.412  -0.652  -2.121  1.00  0.00     0.127 C 
ENDROOT
BRANCH   1   2
ATOM      2  C   UNL     1       8.467  -1.910  -2.904  1.00  0.00     0.303 C 
ATOM      3  O   UNL     1       9.546  -2.491  -3.097  1.00  0.00    -0.252 OA
BRANCH   2   4
ATOM      4  O   UNL     1       7.302  -2.441  -3.424  1.00  0.00    -0.481 OA
ATOM      5  H   UNL     1       7.007  -2.270  -4.381  1.00  0.00     0.296 HD
ENDBRANCH   2   4
ENDBRANCH   1   2
BRANCH   1   6
ATOM      6  C   UNL     1       7.016  -0.080  -2.135  1.00  0.00     0.047 C 
BRANCH   6   7
ATOM      7  C   UNL     1       6.459   0.103  -0.781  1.00  0.00    -0.047 A 
ATOM      8  C   UNL     1       5.820   1.240  -0.357  1.00  0.00     0.004 A 
ATOM      9  C   UNL     1       6.594  -0.936   0.109  1.00  0.00     0.004 A 
ATOM     10  C   UNL     1       5.329   1.325   0.932  1.00  0.00     0.000 A 
ATOM     11  C   UNL     1       6.117  -0.871   1.385  1.00  0.00     0.000 A 
ATOM     12  C   UNL     1       5.473   0.271   1.812  1.00  0.00     0.000 A 
ENDBRANCH   6   7
ENDBRANCH   1   6
TORSDOF 4
ENDMDL
MODEL 2
REMARK VINA RESULT:      -7.3      0.084      1.429
REMARK SMILES O=C(O)CCc1ccccc1
REMARK SMILES IDX 4 1 2 2 1 3 3 4 5 6 6 7 7 8 11 9 8 10 10 11 9 12
REMARK H PARENT 3 5
REMARK Flexibility Score: inf
ROOT
ATOM      1  C   UNL     1       8.429  -0.609  -2.180  1.00  0.00     0.127 C 
ENDROOT
BRANCH   1   2
ATOM      2  C   UNL     1       8.476  -1.899  -2.908  1.00  0.00     0.303 C 
ATOM      3  O   UNL     1       9.552  -2.494  -3.076  1.00  0.00    -0.252 OA
BRANCH   2   4
ATOM      4  O   UNL     1       7.308  -2.445  -3.405  1.00  0.00    -0.481 OA
ATOM      5  H   UNL     1       7.208  -3.440  -3.584  1.00  0.00     0.296 HD
ENDBRANCH   2   4
ENDBRANCH   1   2
BRANCH   1   6
ATOM      6  C   UNL     1       7.013  -0.094  -2.106  1.00  0.00     0.047 C 
BRANCH   6   7
ATOM      7  C   UNL     1       6.497  -0.033  -0.724  1.00  0.00    -0.047 A 
ATOM      8  C   UNL     1       6.612  -1.050   0.188  1.00  0.00     0.004 A 
ATOM      9  C   UNL     1       5.860   1.120  -0.332  1.00  0.00     0.004 A 
ATOM     10  C   UNL     1       6.098  -0.907   1.462  1.00  0.00     0.000 A 
ATOM     11  C   UNL     1       5.346   1.281   0.920  1.00  0.00     0.000 A 
ATOM     12  C   UNL     1       5.462   0.259   1.838  1.00  0.00     0.000 A 
ENDBRANCH   6   7
ENDBRANCH   1   6
TORSDOF 4
ENDMDL
MODEL 3
REMARK VINA RESULT:      -7.0      1.000      1.909
REMARK SMILES O=C(O)CCc1ccccc1
REMARK SMILES IDX 4 1 2 2 1 3 3 4 5 6 6 7 7 8 11 9 8 10 10 11 9 12
REMARK H PARENT 3 5
REMARK Flexibility Score: inf
ROOT
ATOM      1  C   UNL     1       7.338  -1.259  -2.159  1.00  0.00     0.127 C 
ENDROOT
BRANCH   1   2
ATOM      2  C   UNL     1       8.774  -1.323  -2.521  1.00  0.00     0.303 C 
ATOM      3  O   UNL     1       9.567  -0.452  -2.130  1.00  0.00    -0.252 OA
BRANCH   2   4
ATOM      4  O   UNL     1       9.234  -2.365  -3.302  1.00  0.00    -0.481 OA
ATOM      5  H   UNL     1      10.223  -2.512  -3.483  1.00  0.00     0.296 HD
ENDBRANCH   2   4
ENDBRANCH   1   2
BRANCH   1   6
ATOM      6  C   UNL     1       7.157  -1.434  -0.672  1.00  0.00     0.047 C 
BRANCH   6   7
ATOM      7  C   UNL     1       6.401  -0.328  -0.053  1.00  0.00    -0.047 A 
ATOM      8  C   UNL     1       5.939  -0.337   1.238  1.00  0.00     0.004 A 
ATOM      9  C   UNL     1       6.144   0.779  -0.826  1.00  0.00     0.004 A 
ATOM     10  C   UNL     1       5.237   0.744   1.736  1.00  0.00     0.000 A 
ATOM     11  C   UNL     1       5.452   1.855  -0.353  1.00  0.00     0.000 A 
ATOM     12  C   UNL     1       4.989   1.848   0.945  1.00  0.00     0.000 A 
ENDBRANCH   6   7
ENDBRANCH   1   6
TORSDOF 4
ENDMDL
MODEL 4
REMARK VINA RESULT:      -6.8      3.383      5.061
REMARK SMILES O=C(O)CCc1ccccc1
REMARK SMILES IDX 4 1 2 2 1 3 3 4 5 6 6 7 7 8 11 9 8 10 10 11 9 12
REMARK H PARENT 3 5
REMARK Flexibility Score: inf
ROOT
ATOM      1  C   UNL     1       5.014   1.778   0.731  1.00  0.00     0.127 C 
ENDROOT
BRANCH   1   2
ATOM      2  C   UNL     1       4.491   1.092   1.935  1.00  0.00     0.303 C 
ATOM      3  O   UNL     1       5.143   0.192   2.487  1.00  0.00    -0.252 OA
BRANCH   2   4
ATOM      4  O   UNL     1       3.262   1.458   2.450  1.00  0.00    -0.481 OA
ATOM      5  H   UNL     1       3.039   1.373   3.438  1.00  0.00     0.296 HD
ENDBRANCH   2   4
ENDBRANCH   1   2
BRANCH   1   6
ATOM      6  C   UNL     1       6.519   1.866   0.782  1.00  0.00     0.047 C 
BRANCH   6   7
ATOM      7  C   UNL     1       7.173   1.120  -0.310  1.00  0.00    -0.047 A 
ATOM      8  C   UNL     1       8.499   1.237  -0.638  1.00  0.00     0.004 A 
ATOM      9  C   UNL     1       6.398   0.254  -1.044  1.00  0.00     0.004 A 
ATOM     10  C   UNL     1       9.029   0.500  -1.679  1.00  0.00     0.000 A 
ATOM     11  C   UNL     1       6.901  -0.482  -2.076  1.00  0.00     0.000 A 
ATOM     12  C   UNL     1       8.235  -0.365  -2.405  1.00  0.00     0.000 A 
ENDBRANCH   6   7
ENDBRANCH   1   6
TORSDOF 4
ENDMDL
MODEL 5
REMARK VINA RESULT:      -6.6      1.950      2.312
REMARK SMILES O=C(O)CCc1ccccc1
REMARK SMILES IDX 4 1 2 2 1 3 3 4 5 6 6 7 7 8 11 9 8 10 10 11 9 12
REMARK H PARENT 3 5
REMARK Flexibility Score: inf
ROOT
ATOM      1  C   UNL     1       8.293   0.139  -2.153  1.00  0.00     0.127 C 
ENDROOT
BRANCH   1   2
ATOM      2  C   UNL     1       9.411   0.355  -1.205  1.00  0.00     0.303 C 
ATOM      3  O   UNL     1       9.527  -0.348  -0.189  1.00  0.00    -0.252 OA
BRANCH   2   4
ATOM      4  O   UNL     1      10.335   1.352  -1.454  1.00  0.00    -0.481 OA
ATOM      5  H   UNL     1      10.072   2.330  -1.529  1.00  0.00     0.296 HD
ENDBRANCH   2   4
ENDBRANCH   1   2
BRANCH   1   6
ATOM      6  C   UNL     1       7.172  -0.619  -1.487  1.00  0.00     0.047 C 
BRANCH   6   7
ATOM      7  C   UNL     1       6.372   0.223  -0.578  1.00  0.00    -0.047 A 
ATOM      8  C   UNL     1       5.812   1.425  -0.930  1.00  0.00     0.004 A 
ATOM      9  C   UNL     1       6.179  -0.230   0.706  1.00  0.00     0.004 A 
ATOM     10  C   UNL     1       5.078   2.150  -0.012  1.00  0.00     0.000 A 
ATOM     11  C   UNL     1       5.458   0.471   1.627  1.00  0.00     0.000 A 
ATOM     12  C   UNL     1       4.895   1.678   1.273  1.00  0.00     0.000 A 
ENDBRANCH   6   7
ENDBRANCH   1   6
TORSDOF 4
ENDMDL
