@<TRIPOS>MOLECULE
/home/cewinharhar/GITHUB/reincatalyze/data/processed/docking_pred/2023-Apr-25-1630_maxeplen5_maxtrainstep200_exh32_gamma099_lrac3e-4_lrcr1e-3/f43d8cd6194682d8f3e5600fbc578d0750565092_ligand_2.pdbqt
 12 12 0 0 0
SMALL
GASTEIGER

@<TRIPOS>ATOM
      1  C          7.3380   -1.2590   -2.1590 C.3     1  UNL1        0.1270
      2  C          8.7740   -1.3230   -2.5210 C.2     1  UNL1        0.3030
      3  O          9.5670   -0.4520   -2.1300 O.2     1  UNL1       -0.2520
      4  O          9.2340   -2.3650   -3.3020 O.3     1  UNL1       -0.4810
      5  H         10.2230   -2.5120   -3.4830 H       1  UNL1        0.2960
      6  C          7.1570   -1.4340   -0.6720 C.3     1  UNL1        0.0470
      7  C          6.4010   -0.3280   -0.0530 C.2     1  UNL1       -0.0470
      8  C          5.9390   -0.3370    1.2380 C.2     1  UNL1        0.0040
      9  C          6.1440    0.7790   -0.8260 C.2     1  UNL1        0.0040
     10  C          5.2370    0.7440    1.7360 C.2     1  UNL1        0.0000
     11  C          5.4520    1.8550   -0.3530 C.2     1  UNL1        0.0000
     12  C          4.9890    1.8480    0.9450 C.2     1  UNL1        0.0000
@<TRIPOS>BOND
     1     5     4    1
     2     4     2    1
     3     2     1    1
     4     2     3    2
     5     1     6    1
     6     9    11    1
     7     9     7    2
     8     6     7    1
     9    11    12    2
    10     7     8    1
    11    12    10    1
    12     8    10    2
