@<TRIPOS>MOLECULE
/home/cewinharhar/GITHUB/reincatalyze/data/processed/docking_pred/2023-Apr-25-1630_maxeplen5_maxtrainstep200_exh32_gamma099_lrac3e-4_lrcr1e-3/f43d8cd6194682d8f3e5600fbc578d0750565092_ligand_2.pdbqt
 12 12 0 0 0
SMALL
GASTEIGER

@<TRIPOS>ATOM
      1  C          5.0140    1.7780    0.7310 C.3     1  UNL1        0.1270
      2  C          4.4910    1.0920    1.9350 C.2     1  UNL1        0.3030
      3  O          5.1430    0.1920    2.4870 O.2     1  UNL1       -0.2520
      4  O          3.2620    1.4580    2.4500 O.3     1  UNL1       -0.4810
      5  H          3.0390    1.3730    3.4380 H       1  UNL1        0.2960
      6  C          6.5190    1.8660    0.7820 C.3     1  UNL1        0.0470
      7  C          7.1730    1.1200   -0.3100 C.2     1  UNL1       -0.0470
      8  C          8.4990    1.2370   -0.6380 C.2     1  UNL1        0.0040
      9  C          6.3980    0.2540   -1.0440 C.2     1  UNL1        0.0040
     10  C          9.0290    0.5000   -1.6790 C.2     1  UNL1        0.0000
     11  C          6.9010   -0.4820   -2.0760 C.2     1  UNL1        0.0000
     12  C          8.2350   -0.3650   -2.4050 C.2     1  UNL1        0.0000
@<TRIPOS>BOND
     1    12    11    2
     2    12    10    1
     3    11     9    1
     4    10     8    2
     5     9     7    2
     6     8     7    1
     7     7     6    1
     8     1     6    1
     9     1     2    1
    10     2     4    1
    11     2     3    2
    12     4     5    1
