@<TRIPOS>MOLECULE
/home/cewinharhar/GITHUB/reincatalyze/data/processed/docking_pred/2023-Apr-25-1630_maxeplen5_maxtrainstep200_exh32_gamma099_lrac3e-4_lrcr1e-3/f43d8cd6194682d8f3e5600fbc578d0750565092_ligand_2.pdbqt
 12 12 0 0 0
SMALL
GASTEIGER

@<TRIPOS>ATOM
      1  C          8.4290   -0.6090   -2.1800 C.3     1  UNL1        0.1270
      2  C          8.4760   -1.8990   -2.9080 C.2     1  UNL1        0.3030
      3  O          9.5520   -2.4940   -3.0760 O.2     1  UNL1       -0.2520
      4  O          7.3080   -2.4450   -3.4050 O.3     1  UNL1       -0.4810
      5  H          7.2080   -3.4400   -3.5840 H       1  UNL1        0.2960
      6  C          7.0130   -0.0940   -2.1060 C.3     1  UNL1        0.0470
      7  C          6.4970   -0.0330   -0.7240 C.2     1  UNL1       -0.0470
      8  C          6.6120   -1.0500    0.1880 C.2     1  UNL1        0.0040
      9  C          5.8600    1.1200   -0.3320 C.2     1  UNL1        0.0040
     10  C          6.0980   -0.9070    1.4620 C.2     1  UNL1        0.0000
     11  C          5.3460    1.2810    0.9200 C.2     1  UNL1        0.0000
     12  C          5.4620    0.2590    1.8380 C.2     1  UNL1        0.0000
@<TRIPOS>BOND
     1     5     4    1
     2     4     2    1
     3     3     2    2
     4     2     1    1
     5     1     6    1
     6     6     7    1
     7     7     9    2
     8     7     8    1
     9     9    11    1
    10     8    10    2
    11    11    12    2
    12    10    12    1
