@<TRIPOS>MOLECULE
/home/cewinharhar/GITHUB/reincatalyze/data/processed/docking_pred/2023-Apr-25-1630_maxeplen5_maxtrainstep200_exh32_gamma099_lrac3e-4_lrcr1e-3/f43d8cd6194682d8f3e5600fbc578d0750565092_ligand_2.pdbqt
 12 12 0 0 0
SMALL
GASTEIGER

@<TRIPOS>ATOM
      1  C          8.2930    0.1390   -2.1530 C.3     1  UNL1        0.1270
      2  C          9.4110    0.3550   -1.2050 C.2     1  UNL1        0.3030
      3  O          9.5270   -0.3480   -0.1890 O.2     1  UNL1       -0.2520
      4  O         10.3350    1.3520   -1.4540 O.3     1  UNL1       -0.4810
      5  H         10.0720    2.3300   -1.5290 H       1  UNL1        0.2960
      6  C          7.1720   -0.6190   -1.4870 C.3     1  UNL1        0.0470
      7  C          6.3720    0.2230   -0.5780 C.2     1  UNL1       -0.0470
      8  C          5.8120    1.4250   -0.9300 C.2     1  UNL1        0.0040
      9  C          6.1790   -0.2300    0.7060 C.2     1  UNL1        0.0040
     10  C          5.0780    2.1500   -0.0120 C.2     1  UNL1        0.0000
     11  C          5.4580    0.4710    1.6270 C.2     1  UNL1        0.0000
     12  C          4.8950    1.6780    1.2730 C.2     1  UNL1        0.0000
@<TRIPOS>BOND
     1     1     6    1
     2     1     2    1
     3     5     4    1
     4     6     7    1
     5     4     2    1
     6     2     3    2
     7     8     7    2
     8     8    10    1
     9     7     9    1
    10    10    12    2
    11     9    11    2
    12    12    11    1
