@<TRIPOS>MOLECULE
/home/cewinharhar/GITHUB/reincatalyze/data/processed/docking_pred/2023-Apr-25-1630_maxeplen5_maxtrainstep200_exh32_gamma099_lrac3e-4_lrcr1e-3/f5fb071253116e33fb6a6057d91faa3d89d34546_ligand_2.pdbqt
 12 12 0 0 0
SMALL
GASTEIGER

@<TRIPOS>ATOM
      1  C          8.4070   -0.7150   -2.0570 C.3     1  UNL1        0.1270
      2  C          8.4570   -1.9560   -2.8650 C.2     1  UNL1        0.3030
      3  O          9.5340   -2.5370   -3.0720 O.2     1  UNL1       -0.2520
      4  O          7.2900   -2.4720   -3.3960 O.3     1  UNL1       -0.4810
      5  H          7.1640   -2.6160   -4.3940 H       1  UNL1        0.2960
      6  C          7.0240   -0.1160   -2.0910 C.3     1  UNL1        0.0470
      7  C          6.4530    0.0860   -0.7450 C.2     1  UNL1       -0.0470
      8  C          5.8120    1.2290   -0.3410 C.2     1  UNL1        0.0040
      9  C          6.5770   -0.9410    0.1600 C.2     1  UNL1        0.0040
     10  C          5.3090    1.3330    0.9410 C.2     1  UNL1        0.0000
     11  C          6.0880   -0.8590    1.4300 C.2     1  UNL1        0.0000
     12  C          5.4430    0.2900    1.8360 C.2     1  UNL1        0.0000
@<TRIPOS>BOND
     1     5     4    1
     2     4     2    1
     3     3     2    2
     4     2     1    1
     5     6     1    1
     6     6     7    1
     7     7     8    2
     8     7     9    1
     9     8    10    1
    10     9    11    2
    11    10    12    2
    12    11    12    1
