@<TRIPOS>MOLECULE
/home/cewinharhar/GITHUB/reincatalyze/data/processed/docking_pred/2023-Apr-25-1630_maxeplen5_maxtrainstep200_exh32_gamma099_lrac3e-4_lrcr1e-3/f5fb071253116e33fb6a6057d91faa3d89d34546_ligand_2.pdbqt
 12 12 0 0 0
SMALL
GASTEIGER

@<TRIPOS>ATOM
      1  C          5.4320    2.9170    0.0440 C.3     1  UNL1        0.1270
      2  C          6.2480    3.8800    0.8200 C.2     1  UNL1        0.3030
      3  O          6.8900    4.7750    0.2470 O.2     1  UNL1       -0.2520
      4  O          6.2950    3.7820    2.1970 O.3     1  UNL1       -0.4810
      5  H          6.7700    4.4690    2.7750 H       1  UNL1        0.2960
      6  C          4.8910    1.8350    0.9450 C.3     1  UNL1        0.0470
      7  C          5.7070    0.6060    0.9190 C.2     1  UNL1       -0.0470
      8  C          6.3940    0.1590   -0.1800 C.2     1  UNL1        0.0040
      9  C          5.7790   -0.1350    2.0740 C.2     1  UNL1        0.0040
     10  C          7.1340   -1.0060   -0.1160 C.2     1  UNL1        0.0000
     11  C          6.5040   -1.2880    2.1590 C.2     1  UNL1        0.0000
     12  C          7.1950   -1.7370    1.0540 C.2     1  UNL1        0.0000
@<TRIPOS>BOND
     1     8    10    1
     2     8     7    2
     3    10    12    2
     4     1     2    1
     5     1     6    1
     6     3     2    2
     7     2     4    1
     8     7     6    1
     9     7     9    1
    10    12    11    1
    11     9    11    2
    12     4     5    1
