@<TRIPOS>MOLECULE
/home/cewinharhar/GITHUB/reincatalyze/data/processed/docking_pred/2023-Apr-25-1630_maxeplen5_maxtrainstep200_exh32_gamma099_lrac3e-4_lrcr1e-3/f5fb071253116e33fb6a6057d91faa3d89d34546_ligand_2.pdbqt
 12 12 0 0 0
SMALL
GASTEIGER

@<TRIPOS>ATOM
      1  C          5.0360    1.6790    0.7110 C.3     1  UNL1        0.1270
      2  C          4.5790    1.0000    1.9470 C.2     1  UNL1        0.3030
      3  O          5.2860    0.1430    2.4990 O.2     1  UNL1       -0.2520
      4  O          3.3510    1.3260    2.4900 O.3     1  UNL1       -0.4810
      5  H          2.4910    1.2860    1.9510 H       1  UNL1        0.2960
      6  C          6.5350    1.8430    0.7200 C.3     1  UNL1        0.0470
      7  C          7.2010    1.0730   -0.3480 C.2     1  UNL1       -0.0470
      8  C          8.5320    1.1810   -0.6620 C.2     1  UNL1        0.0040
      9  C          6.4340    0.1930   -1.0730 C.2     1  UNL1        0.0040
     10  C          9.0730    0.4210   -1.6810 C.2     1  UNL1        0.0000
     11  C          6.9490   -0.5660   -2.0820 C.2     1  UNL1        0.0000
     12  C          8.2860   -0.4580   -2.3980 C.2     1  UNL1        0.0000
@<TRIPOS>BOND
     1    12    11    2
     2    12    10    1
     3    11     9    1
     4    10     8    2
     5     9     7    2
     6     8     7    1
     7     7     6    1
     8     1     6    1
     9     1     2    1
    10     2     4    1
    11     2     3    2
    12     5     4    1
