@<TRIPOS>MOLECULE
/home/cewinharhar/GITHUB/reincatalyze/data/processed/docking_pred/2023-Apr-25-1630_maxeplen5_maxtrainstep200_exh32_gamma099_lrac3e-4_lrcr1e-3/f5fb071253116e33fb6a6057d91faa3d89d34546_ligand_2.pdbqt
 12 12 0 0 0
SMALL
GASTEIGER

@<TRIPOS>ATOM
      1  C          8.1610   -0.9020   -1.9030 C.3     1  UNL1        0.1270
      2  C          8.3470   -2.0160   -2.8620 C.2     1  UNL1        0.3030
      3  O          9.4730   -2.4920   -3.0730 O.2     1  UNL1       -0.2520
      4  O          7.2520   -2.5310   -3.5300 O.3     1  UNL1       -0.4810
      5  H          7.3430   -3.0820   -4.3790 H       1  UNL1        0.2960
      6  C          7.4860   -1.3910   -0.6460 C.3     1  UNL1        0.0470
      7  C          6.6120   -0.3720   -0.0320 C.2     1  UNL1       -0.0470
      8  C          6.1220   -0.4440    1.2460 C.2     1  UNL1        0.0040
      9  C          6.2700    0.7180   -0.7970 C.2     1  UNL1        0.0040
     10  C          5.3080    0.5570    1.7400 C.2     1  UNL1        0.0000
     11  C          5.4680    1.7160   -0.3280 C.2     1  UNL1        0.0000
     12  C          4.9760    1.6440    0.9580 C.2     1  UNL1        0.0000
@<TRIPOS>BOND
     1     5     4    1
     2     4     2    1
     3     3     2    2
     4     2     1    1
     5     1     6    1
     6     9    11    1
     7     9     7    2
     8     6     7    1
     9    11    12    2
    10     7     8    1
    11    12    10    1
    12     8    10    2
