@<TRIPOS>MOLECULE
/home/cewinharhar/GITHUB/reincatalyze/data/processed/docking_pred/2023-Apr-25-1630_maxeplen5_maxtrainstep200_exh32_gamma099_lrac3e-4_lrcr1e-3/f5fb071253116e33fb6a6057d91faa3d89d34546_ligand_2.pdbqt
 12 12 0 0 0
SMALL
GASTEIGER

@<TRIPOS>ATOM
      1  C          8.4240   -0.6500   -2.1320 C.3     1  UNL1        0.1270
      2  C          8.3860   -1.9170   -2.9000 C.2     1  UNL1        0.3030
      3  O          7.3050   -2.4250   -3.2350 O.2     1  UNL1       -0.2520
      4  O          9.5700   -2.5390   -3.2480 O.3     1  UNL1       -0.4810
      5  H         10.3040   -2.0610   -3.7630 H       1  UNL1        0.2960
      6  C          7.0580   -0.0100   -2.0980 C.3     1  UNL1        0.0470
      7  C          6.4980    0.0730   -0.7350 C.2     1  UNL1       -0.0470
      8  C          6.5900   -0.9260    0.1990 C.2     1  UNL1        0.0040
      9  C          5.8430    1.2300   -0.3860 C.2     1  UNL1        0.0040
     10  C          6.0340   -0.7630    1.4530 C.2     1  UNL1        0.0000
     11  C          5.2870    1.4100    0.8470 C.2     1  UNL1        0.0000
     12  C          5.3790    0.4060    1.7870 C.2     1  UNL1        0.0000
@<TRIPOS>BOND
     1     5     4    1
     2     4     2    1
     3     3     2    2
     4     2     1    1
     5     1     6    1
     6     6     7    1
     7     7     9    2
     8     7     8    1
     9     9    11    1
    10     8    10    2
    11    11    12    2
    12    10    12    1
