@<TRIPOS>MOLECULE
/home/cewinharhar/GITHUB/reincatalyze/data/processed/docking_pred/2023-Apr-25-1630_maxeplen5_maxtrainstep200_exh32_gamma099_lrac3e-4_lrcr1e-3/f6e3ea477952fa895fac814ddb6280364cb1460b_ligand_2.pdbqt
 12 12 0 0 0
SMALL
GASTEIGER

@<TRIPOS>ATOM
      1  C          5.4530    2.9150   -0.0020 C.3     1  UNL1        0.1270
      2  C          6.2490    3.8810    0.7920 C.2     1  UNL1        0.3030
      3  O          6.9040    4.7750    0.2340 O.2     1  UNL1       -0.2520
      4  O          6.2630    3.7830    2.1700 O.3     1  UNL1       -0.4810
      5  H          6.3280    2.8900    2.6510 H       1  UNL1        0.2960
      6  C          4.8930    1.8330    0.8860 C.3     1  UNL1        0.0470
      7  C          5.7110    0.6050    0.8780 C.2     1  UNL1       -0.0470
      8  C          6.4710    0.1910   -0.1850 C.2     1  UNL1        0.0040
      9  C          5.7060   -0.1710    2.0130 C.2     1  UNL1        0.0040
     10  C          7.2070   -0.9750   -0.1060 C.2     1  UNL1        0.0000
     11  C          6.4250   -1.3260    2.1110 C.2     1  UNL1        0.0000
     12  C          7.1900   -1.7420    1.0420 C.2     1  UNL1        0.0000
@<TRIPOS>BOND
     1     8    10    1
     2     8     7    2
     3    10    12    2
     4     1     2    1
     5     1     6    1
     6     3     2    2
     7     2     4    1
     8     7     6    1
     9     7     9    1
    10    12    11    1
    11     9    11    2
    12     4     5    1
