@<TRIPOS>MOLECULE
/home/cewinharhar/GITHUB/reincatalyze/data/processed/docking_pred/2023-Apr-25-1630_maxeplen5_maxtrainstep200_exh32_gamma099_lrac3e-4_lrcr1e-3/f6e3ea477952fa895fac814ddb6280364cb1460b_ligand_2.pdbqt
 12 12 0 0 0
SMALL
GASTEIGER

@<TRIPOS>ATOM
      1  C          8.2590    0.2430   -2.1860 C.3     1  UNL1        0.1270
      2  C          9.3920    0.3530   -1.2380 C.2     1  UNL1        0.3030
      3  O          9.4650   -0.3890   -0.2460 O.2     1  UNL1       -0.2520
      4  O         10.3790    1.2940   -1.4610 O.3     1  UNL1       -0.4810
      5  H         11.1790    1.1110   -2.0600 H       1  UNL1        0.2960
      6  C          7.1290   -0.5470   -1.5730 C.3     1  UNL1        0.0470
      7  C          6.3550    0.2320   -0.5880 C.2     1  UNL1       -0.0470
      8  C          6.1230   -0.1690    0.7030 C.2     1  UNL1        0.0040
      9  C          5.8330    1.4360   -0.9960 C.2     1  UNL1        0.0040
     10  C          5.3840    0.6250    1.5590 C.2     1  UNL1        0.0000
     11  C          5.1010    2.2340   -0.1670 C.2     1  UNL1        0.0000
     12  C          4.8680    1.8320    1.1310 C.2     1  UNL1        0.0000
@<TRIPOS>BOND
     1     1     6    1
     2     1     2    1
     3     5     4    1
     4     6     7    1
     5     4     2    1
     6     2     3    2
     7     9     7    2
     8     9    11    1
     9     7     8    1
    10    11    12    2
    11     8    10    2
    12    12    10    1
