@<TRIPOS>MOLECULE
/home/cewinharhar/GITHUB/reincatalyze/data/processed/docking_pred/2023-Apr-25-1630_maxeplen5_maxtrainstep200_exh32_gamma099_lrac3e-4_lrcr1e-3/f6e3ea477952fa895fac814ddb6280364cb1460b_ligand_2.pdbqt
 12 12 0 0 0
SMALL
GASTEIGER

@<TRIPOS>ATOM
      1  C          8.4050   -0.6650   -2.1010 C.3     1  UNL1        0.1270
      2  C          8.4600   -1.9150   -2.8950 C.2     1  UNL1        0.3030
      3  O          9.5390   -2.4940   -3.0940 O.2     1  UNL1       -0.2520
      4  O          7.2950   -2.4420   -3.4190 O.3     1  UNL1       -0.4810
      5  H          7.2560   -3.3720   -3.8270 H       1  UNL1        0.2960
      6  C          7.0120   -0.0860   -2.1210 C.3     1  UNL1        0.0470
      7  C          6.4530    0.1060   -0.7690 C.2     1  UNL1       -0.0470
      8  C          5.8080    1.2420   -0.3540 C.2     1  UNL1        0.0040
      9  C          6.5910   -0.9260    0.1300 C.2     1  UNL1        0.0040
     10  C          5.3150    1.3360    0.9340 C.2     1  UNL1        0.0000
     11  C          6.1130   -0.8530    1.4050 C.2     1  UNL1        0.0000
     12  C          5.4630    0.2900    1.8220 C.2     1  UNL1        0.0000
@<TRIPOS>BOND
     1     5     4    1
     2     4     2    1
     3     3     2    2
     4     2     1    1
     5     6     1    1
     6     6     7    1
     7     7     8    2
     8     7     9    1
     9     8    10    1
    10     9    11    2
    11    10    12    2
    12    11    12    1
