@<TRIPOS>MOLECULE
/home/cewinharhar/GITHUB/reincatalyze/data/processed/docking_pred/2023-Apr-25-1630_maxeplen5_maxtrainstep200_exh32_gamma099_lrac3e-4_lrcr1e-3/f6e3ea477952fa895fac814ddb6280364cb1460b_ligand_2.pdbqt
 12 12 0 0 0
SMALL
GASTEIGER

@<TRIPOS>ATOM
      1  C          4.9800    1.7370    0.6980 C.3     1  UNL1        0.1270
      2  C          4.4750    1.0800    1.9260 C.2     1  UNL1        0.3030
      3  O          5.1330    0.1900    2.4870 O.2     1  UNL1       -0.2520
      4  O          3.2570    1.4630    2.4530 O.3     1  UNL1       -0.4810
      5  H          3.1770    2.1640    3.1850 H       1  UNL1        0.2960
      6  C          6.4870    1.7960    0.7090 C.3     1  UNL1        0.0470
      7  C          7.1000    0.9930   -0.3670 C.2     1  UNL1       -0.0470
      8  C          6.4310    0.0470   -1.1000 C.2     1  UNL1        0.0040
      9  C          8.4280    1.2120   -0.6480 C.2     1  UNL1        0.0040
     10  C          7.0850   -0.6600   -2.0910 C.2     1  UNL1        0.0000
     11  C          9.0910    0.5240   -1.6210 C.2     1  UNL1        0.0000
     12  C          8.4190   -0.4270   -2.3590 C.2     1  UNL1        0.0000
@<TRIPOS>BOND
     1    12    10    2
     2    12    11    1
     3    10     8    1
     4    11     9    2
     5     8     7    2
     6     9     7    1
     7     7     6    1
     8     1     6    1
     9     1     2    1
    10     2     4    1
    11     2     3    2
    12     4     5    1
