MODEL 1
REMARK VINA RESULT:      -7.4      0.000      0.000
REMARK SMILES O=C(O)CCc1ccccc1
REMARK SMILES IDX 4 1 2 2 1 3 3 4 5 6 6 7 7 8 11 9 8 10 10 11 9 12
REMARK H PARENT 3 5
REMARK Flexibility Score: inf
ROOT
ATOM      1  C   UNL     1       8.470  -0.678  -2.086  1.00  0.00     0.127 C 
ENDROOT
BRANCH   1   2
ATOM      2  C   UNL     1       8.487  -1.915  -2.902  1.00  0.00     0.303 C 
ATOM      3  O   UNL     1       9.548  -2.524  -3.111  1.00  0.00    -0.252 OA
BRANCH   2   4
ATOM      4  O   UNL     1       7.307  -2.396  -3.438  1.00  0.00    -0.481 OA
ATOM      5  H   UNL     1       6.682  -1.812  -3.985  1.00  0.00     0.296 HD
ENDBRANCH   2   4
ENDBRANCH   1   2
BRANCH   1   6
ATOM      6  C   UNL     1       7.096  -0.054  -2.099  1.00  0.00     0.047 C 
BRANCH   6   7
ATOM      7  C   UNL     1       6.512   0.070  -0.750  1.00  0.00    -0.047 A 
ATOM      8  C   UNL     1       6.634  -0.877   0.235  1.00  0.00     0.004 A 
ATOM      9  C   UNL     1       5.798   1.210  -0.468  1.00  0.00     0.004 A 
ATOM     10  C   UNL     1       6.052  -0.678   1.471  1.00  0.00     0.000 A 
ATOM     11  C   UNL     1       5.215   1.425   0.746  1.00  0.00     0.000 A 
ATOM     12  C   UNL     1       5.338   0.474   1.737  1.00  0.00     0.000 A 
ENDBRANCH   6   7
ENDBRANCH   1   6
TORSDOF 4
ENDMDL
MODEL 2
REMARK VINA RESULT:      -7.3      0.135      1.429
REMARK SMILES O=C(O)CCc1ccccc1
REMARK SMILES IDX 4 1 2 2 1 3 3 4 5 6 6 7 7 8 11 9 8 10 10 11 9 12
REMARK H PARENT 3 5
REMARK Flexibility Score: inf
ROOT
ATOM      1  C   UNL     1       8.405  -0.665  -2.101  1.00  0.00     0.127 C 
ENDROOT
BRANCH   1   2
ATOM      2  C   UNL     1       8.460  -1.915  -2.895  1.00  0.00     0.303 C 
ATOM      3  O   UNL     1       9.539  -2.494  -3.094  1.00  0.00    -0.252 OA
BRANCH   2   4
ATOM      4  O   UNL     1       7.295  -2.442  -3.419  1.00  0.00    -0.481 OA
ATOM      5  H   UNL     1       7.256  -3.372  -3.827  1.00  0.00     0.296 HD
ENDBRANCH   2   4
ENDBRANCH   1   2
BRANCH   1   6
ATOM      6  C   UNL     1       7.012  -0.086  -2.121  1.00  0.00     0.047 C 
BRANCH   6   7
ATOM      7  C   UNL     1       6.453   0.106  -0.769  1.00  0.00    -0.047 A 
ATOM      8  C   UNL     1       5.808   1.242  -0.354  1.00  0.00     0.004 A 
ATOM      9  C   UNL     1       6.591  -0.926   0.130  1.00  0.00     0.004 A 
ATOM     10  C   UNL     1       5.315   1.336   0.934  1.00  0.00     0.000 A 
ATOM     11  C   UNL     1       6.113  -0.853   1.405  1.00  0.00     0.000 A 
ATOM     12  C   UNL     1       5.463   0.290   1.822  1.00  0.00     0.000 A 
ENDBRANCH   6   7
ENDBRANCH   1   6
TORSDOF 4
ENDMDL
MODEL 3
REMARK VINA RESULT:      -6.8      3.366      5.075
REMARK SMILES O=C(O)CCc1ccccc1
REMARK SMILES IDX 4 1 2 2 1 3 3 4 5 6 6 7 7 8 11 9 8 10 10 11 9 12
REMARK H PARENT 3 5
REMARK Flexibility Score: inf
ROOT
ATOM      1  C   UNL     1       4.980   1.737   0.698  1.00  0.00     0.127 C 
ENDROOT
BRANCH   1   2
ATOM      2  C   UNL     1       4.475   1.080   1.926  1.00  0.00     0.303 C 
ATOM      3  O   UNL     1       5.133   0.190   2.487  1.00  0.00    -0.252 OA
BRANCH   2   4
ATOM      4  O   UNL     1       3.257   1.463   2.453  1.00  0.00    -0.481 OA
ATOM      5  H   UNL     1       3.177   2.164   3.185  1.00  0.00     0.296 HD
ENDBRANCH   2   4
ENDBRANCH   1   2
BRANCH   1   6
ATOM      6  C   UNL     1       6.487   1.796   0.709  1.00  0.00     0.047 C 
BRANCH   6   7
ATOM      7  C   UNL     1       7.100   0.993  -0.367  1.00  0.00    -0.047 A 
ATOM      8  C   UNL     1       6.431   0.047  -1.100  1.00  0.00     0.004 A 
ATOM      9  C   UNL     1       8.428   1.212  -0.648  1.00  0.00     0.004 A 
ATOM     10  C   UNL     1       7.085  -0.660  -2.091  1.00  0.00     0.000 A 
ATOM     11  C   UNL     1       9.091   0.524  -1.621  1.00  0.00     0.000 A 
ATOM     12  C   UNL     1       8.419  -0.427  -2.359  1.00  0.00     0.000 A 
ENDBRANCH   6   7
ENDBRANCH   1   6
TORSDOF 4
ENDMDL
MODEL 4
REMARK VINA RESULT:      -6.7      3.820      4.998
REMARK SMILES O=C(O)CCc1ccccc1
REMARK SMILES IDX 4 1 2 2 1 3 3 4 5 6 6 7 7 8 11 9 8 10 10 11 9 12
REMARK H PARENT 3 5
REMARK Flexibility Score: inf
ROOT
ATOM      1  C   UNL     1       5.453   2.915  -0.002  1.00  0.00     0.127 C 
ENDROOT
BRANCH   1   2
ATOM      2  C   UNL     1       6.249   3.881   0.792  1.00  0.00     0.303 C 
ATOM      3  O   UNL     1       6.904   4.775   0.234  1.00  0.00    -0.252 OA
BRANCH   2   4
ATOM      4  O   UNL     1       6.263   3.783   2.170  1.00  0.00    -0.481 OA
ATOM      5  H   UNL     1       6.328   2.890   2.651  1.00  0.00     0.296 HD
ENDBRANCH   2   4
ENDBRANCH   1   2
BRANCH   1   6
ATOM      6  C   UNL     1       4.893   1.833   0.886  1.00  0.00     0.047 C 
BRANCH   6   7
ATOM      7  C   UNL     1       5.711   0.605   0.878  1.00  0.00    -0.047 A 
ATOM      8  C   UNL     1       6.471   0.191  -0.185  1.00  0.00     0.004 A 
ATOM      9  C   UNL     1       5.706  -0.171   2.013  1.00  0.00     0.004 A 
ATOM     10  C   UNL     1       7.207  -0.975  -0.106  1.00  0.00     0.000 A 
ATOM     11  C   UNL     1       6.425  -1.326   2.111  1.00  0.00     0.000 A 
ATOM     12  C   UNL     1       7.190  -1.742   1.042  1.00  0.00     0.000 A 
ENDBRANCH   6   7
ENDBRANCH   1   6
TORSDOF 4
ENDMDL
MODEL 5
REMARK VINA RESULT:      -6.7      1.931      2.284
REMARK SMILES O=C(O)CCc1ccccc1
REMARK SMILES IDX 4 1 2 2 1 3 3 4 5 6 6 7 7 8 11 9 8 10 10 11 9 12
REMARK H PARENT 3 5
REMARK Flexibility Score: inf
ROOT
ATOM      1  C   UNL     1       8.259   0.243  -2.186  1.00  0.00     0.127 C 
ENDROOT
BRANCH   1   2
ATOM      2  C   UNL     1       9.392   0.353  -1.238  1.00  0.00     0.303 C 
ATOM      3  O   UNL     1       9.465  -0.389  -0.246  1.00  0.00    -0.252 OA
BRANCH   2   4
ATOM      4  O   UNL     1      10.379   1.294  -1.461  1.00  0.00    -0.481 OA
ATOM      5  H   UNL     1      11.179   1.111  -2.060  1.00  0.00     0.296 HD
ENDBRANCH   2   4
ENDBRANCH   1   2
BRANCH   1   6
ATOM      6  C   UNL     1       7.129  -0.547  -1.573  1.00  0.00     0.047 C 
BRANCH   6   7
ATOM      7  C   UNL     1       6.355   0.232  -0.588  1.00  0.00    -0.047 A 
ATOM      8  C   UNL     1       6.123  -0.169   0.703  1.00  0.00     0.004 A 
ATOM      9  C   UNL     1       5.833   1.436  -0.996  1.00  0.00     0.004 A 
ATOM     10  C   UNL     1       5.384   0.625   1.559  1.00  0.00     0.000 A 
ATOM     11  C   UNL     1       5.101   2.234  -0.167  1.00  0.00     0.000 A 
ATOM     12  C   UNL     1       4.868   1.832   1.131  1.00  0.00     0.000 A 
ENDBRANCH   6   7
ENDBRANCH   1   6
TORSDOF 4
ENDMDL
