@<TRIPOS>MOLECULE
/home/cewinharhar/GITHUB/reincatalyze/data/processed/docking_pred/2023-Apr-25-1630_maxeplen5_maxtrainstep200_exh32_gamma099_lrac3e-4_lrcr1e-3/f6e3ea477952fa895fac814ddb6280364cb1460b_ligand_2.pdbqt
 12 12 0 0 0
SMALL
GASTEIGER

@<TRIPOS>ATOM
      1  C          8.4700   -0.6780   -2.0860 C.3     1  UNL1        0.1270
      2  C          8.4870   -1.9150   -2.9020 C.2     1  UNL1        0.3030
      3  O          9.5480   -2.5240   -3.1110 O.2     1  UNL1       -0.2520
      4  O          7.3070   -2.3960   -3.4380 O.3     1  UNL1       -0.4810
      5  H          6.6820   -1.8120   -3.9850 H       1  UNL1        0.2960
      6  C          7.0960   -0.0540   -2.0990 C.3     1  UNL1        0.0470
      7  C          6.5120    0.0700   -0.7500 C.2     1  UNL1       -0.0470
      8  C          6.6340   -0.8770    0.2350 C.2     1  UNL1        0.0040
      9  C          5.7980    1.2100   -0.4680 C.2     1  UNL1        0.0040
     10  C          6.0520   -0.6780    1.4710 C.2     1  UNL1        0.0000
     11  C          5.2150    1.4250    0.7460 C.2     1  UNL1        0.0000
     12  C          5.3380    0.4740    1.7370 C.2     1  UNL1        0.0000
@<TRIPOS>BOND
     1     5     4    1
     2     4     2    1
     3     3     2    2
     4     2     1    1
     5     6     1    1
     6     6     7    1
     7     7     9    2
     8     7     8    1
     9     9    11    1
    10     8    10    2
    11    11    12    2
    12    10    12    1
