@<TRIPOS>MOLECULE
/home/cewinharhar/GITHUB/reincatalyze/data/processed/docking_pred/2023-Apr-25-1630_maxeplen5_maxtrainstep200_exh32_gamma099_lrac3e-4_lrcr1e-3/f74925e0f2dbd9eb14447f51d5c862455f02ecd6_ligand_2.pdbqt
 12 12 0 0 0
SMALL
GASTEIGER

@<TRIPOS>ATOM
      1  C          8.1320   -0.9150   -1.9050 C.3     1  UNL1        0.1270
      2  C          8.3500   -2.0110   -2.8780 C.2     1  UNL1        0.3030
      3  O          9.4910   -2.4470   -3.0980 O.2     1  UNL1       -0.2520
      4  O          7.2710   -2.5530   -3.5480 O.3     1  UNL1       -0.4810
      5  H          6.3240   -2.2060   -3.4240 H       1  UNL1        0.2960
      6  C          7.3450   -1.4090   -0.7170 C.3     1  UNL1        0.0470
      7  C          6.5320   -0.3510   -0.0880 C.2     1  UNL1       -0.0470
      8  C          6.0570   -0.4030    1.1970 C.2     1  UNL1        0.0040
      9  C          6.2330    0.7570   -0.8450 C.2     1  UNL1        0.0040
     10  C          5.3000    0.6350    1.7050 C.2     1  UNL1        0.0000
     11  C          5.4870    1.7920   -0.3620 C.2     1  UNL1        0.0000
     12  C          5.0100    1.7400    0.9300 C.2     1  UNL1        0.0000
@<TRIPOS>BOND
     1     4     5    1
     2     4     2    1
     3     3     2    2
     4     2     1    1
     5     1     6    1
     6     9    11    1
     7     9     7    2
     8     6     7    1
     9    11    12    2
    10     7     8    1
    11    12    10    1
    12     8    10    2
