MODEL 1
REMARK VINA RESULT:      -7.3      0.000      0.000
REMARK SMILES O=C(O)CCc1ccccc1
REMARK SMILES IDX 4 1 2 2 1 3 3 4 5 6 6 7 7 8 11 9 8 10 10 11 9 12
REMARK H PARENT 3 5
REMARK Flexibility Score: inf
ROOT
ATOM      1  C   UNL     1       8.463  -0.642  -2.168  1.00  0.00     0.127 C 
ENDROOT
BRANCH   1   2
ATOM      2  C   UNL     1       8.488  -1.920  -2.917  1.00  0.00     0.303 C 
ATOM      3  O   UNL     1       9.550  -2.539  -3.083  1.00  0.00    -0.252 OA
BRANCH   2   4
ATOM      4  O   UNL     1       7.313  -2.428  -3.439  1.00  0.00    -0.481 OA
ATOM      5  H   UNL     1       6.557  -1.829  -3.759  1.00  0.00     0.296 HD
ENDBRANCH   2   4
ENDBRANCH   1   2
BRANCH   1   6
ATOM      6  C   UNL     1       7.061  -0.088  -2.110  1.00  0.00     0.047 C 
BRANCH   6   7
ATOM      7  C   UNL     1       6.530  -0.018  -0.735  1.00  0.00    -0.047 A 
ATOM      8  C   UNL     1       6.666  -1.014   0.197  1.00  0.00     0.004 A 
ATOM      9  C   UNL     1       5.854   1.123  -0.371  1.00  0.00     0.004 A 
ATOM     10  C   UNL     1       6.135  -0.864   1.463  1.00  0.00     0.000 A 
ATOM     11  C   UNL     1       5.322   1.291   0.874  1.00  0.00     0.000 A 
ATOM     12  C   UNL     1       5.460   0.289   1.811  1.00  0.00     0.000 A 
ENDBRANCH   6   7
ENDBRANCH   1   6
TORSDOF 4
ENDMDL
MODEL 2
REMARK VINA RESULT:      -7.3      0.165      1.728
REMARK SMILES O=C(O)CCc1ccccc1
REMARK SMILES IDX 4 1 2 2 1 3 3 4 5 6 6 7 7 8 11 9 8 10 10 11 9 12
REMARK H PARENT 3 5
REMARK Flexibility Score: inf
ROOT
ATOM      1  C   UNL     1       8.386  -0.747  -1.992  1.00  0.00     0.127 C 
ENDROOT
BRANCH   1   2
ATOM      2  C   UNL     1       8.360  -1.944  -2.866  1.00  0.00     0.303 C 
ATOM      3  O   UNL     1       7.284  -2.417  -3.264  1.00  0.00    -0.252 OA
BRANCH   2   4
ATOM      4  O   UNL     1       9.549  -2.539  -3.242  1.00  0.00    -0.481 OA
ATOM      5  H   UNL     1       9.692  -3.544  -3.192  1.00  0.00     0.296 HD
ENDBRANCH   2   4
ENDBRANCH   1   2
BRANCH   1   6
ATOM      6  C   UNL     1       7.067  -0.017  -2.055  1.00  0.00     0.047 C 
BRANCH   6   7
ATOM      7  C   UNL     1       6.455   0.174  -0.726  1.00  0.00    -0.047 A 
ATOM      8  C   UNL     1       5.776   1.303  -0.343  1.00  0.00     0.004 A 
ATOM      9  C   UNL     1       6.578  -0.848   0.185  1.00  0.00     0.004 A 
ATOM     10  C   UNL     1       5.235   1.397   0.924  1.00  0.00     0.000 A 
ATOM     11  C   UNL     1       6.052  -0.775   1.441  1.00  0.00     0.000 A 
ATOM     12  C   UNL     1       5.368   0.360   1.825  1.00  0.00     0.000 A 
ENDBRANCH   6   7
ENDBRANCH   1   6
TORSDOF 4
ENDMDL
MODEL 3
REMARK VINA RESULT:      -7.2      0.641      1.158
REMARK SMILES O=C(O)CCc1ccccc1
REMARK SMILES IDX 4 1 2 2 1 3 3 4 5 6 6 7 7 8 11 9 8 10 10 11 9 12
REMARK H PARENT 3 5
REMARK Flexibility Score: inf
ROOT
ATOM      1  C   UNL     1       8.132  -0.915  -1.905  1.00  0.00     0.127 C 
ENDROOT
BRANCH   1   2
ATOM      2  C   UNL     1       8.350  -2.011  -2.878  1.00  0.00     0.303 C 
ATOM      3  O   UNL     1       9.491  -2.447  -3.098  1.00  0.00    -0.252 OA
BRANCH   2   4
ATOM      4  O   UNL     1       7.271  -2.553  -3.548  1.00  0.00    -0.481 OA
ATOM      5  H   UNL     1       6.324  -2.206  -3.424  1.00  0.00     0.296 HD
ENDBRANCH   2   4
ENDBRANCH   1   2
BRANCH   1   6
ATOM      6  C   UNL     1       7.345  -1.409  -0.717  1.00  0.00     0.047 C 
BRANCH   6   7
ATOM      7  C   UNL     1       6.532  -0.351  -0.088  1.00  0.00    -0.047 A 
ATOM      8  C   UNL     1       6.057  -0.403   1.197  1.00  0.00     0.004 A 
ATOM      9  C   UNL     1       6.233   0.757  -0.845  1.00  0.00     0.004 A 
ATOM     10  C   UNL     1       5.300   0.635   1.705  1.00  0.00     0.000 A 
ATOM     11  C   UNL     1       5.487   1.792  -0.362  1.00  0.00     0.000 A 
ATOM     12  C   UNL     1       5.010   1.740   0.930  1.00  0.00     0.000 A 
ENDBRANCH   6   7
ENDBRANCH   1   6
TORSDOF 4
ENDMDL
MODEL 4
REMARK VINA RESULT:      -6.8      3.384      5.077
REMARK SMILES O=C(O)CCc1ccccc1
REMARK SMILES IDX 4 1 2 2 1 3 3 4 5 6 6 7 7 8 11 9 8 10 10 11 9 12
REMARK H PARENT 3 5
REMARK Flexibility Score: inf
ROOT
ATOM      1  C   UNL     1       5.011   1.763   0.709  1.00  0.00     0.127 C 
ENDROOT
BRANCH   1   2
ATOM      2  C   UNL     1       4.507   1.089   1.928  1.00  0.00     0.303 C 
ATOM      3  O   UNL     1       5.175   0.206   2.488  1.00  0.00    -0.252 OA
BRANCH   2   4
ATOM      4  O   UNL     1       3.278   1.448   2.448  1.00  0.00    -0.481 OA
ATOM      5  H   UNL     1       2.630   0.766   2.831  1.00  0.00     0.296 HD
ENDBRANCH   2   4
ENDBRANCH   1   2
BRANCH   1   6
ATOM      6  C   UNL     1       6.514   1.881   0.750  1.00  0.00     0.047 C 
BRANCH   6   7
ATOM      7  C   UNL     1       7.177   1.127  -0.331  1.00  0.00    -0.047 A 
ATOM      8  C   UNL     1       8.513   1.218  -0.628  1.00  0.00     0.004 A 
ATOM      9  C   UNL     1       6.401   0.282  -1.087  1.00  0.00     0.004 A 
ATOM     10  C   UNL     1       9.051   0.475  -1.661  1.00  0.00     0.000 A 
ATOM     11  C   UNL     1       6.913  -0.460  -2.111  1.00  0.00     0.000 A 
ATOM     12  C   UNL     1       8.256  -0.369  -2.410  1.00  0.00     0.000 A 
ENDBRANCH   6   7
ENDBRANCH   1   6
TORSDOF 4
ENDMDL
MODEL 5
REMARK VINA RESULT:      -6.7      1.954      2.337
REMARK SMILES O=C(O)CCc1ccccc1
REMARK SMILES IDX 4 1 2 2 1 3 3 4 5 6 6 7 7 8 11 9 8 10 10 11 9 12
REMARK H PARENT 3 5
REMARK Flexibility Score: inf
ROOT
ATOM      1  C   UNL     1       8.258   0.326  -2.164  1.00  0.00     0.127 C 
ENDROOT
BRANCH   1   2
ATOM      2  C   UNL     1       9.387   0.362  -1.204  1.00  0.00     0.303 C 
ATOM      3  O   UNL     1       9.430  -0.423  -0.244  1.00  0.00    -0.252 OA
BRANCH   2   4
ATOM      4  O   UNL     1      10.402   1.282  -1.379  1.00  0.00    -0.481 OA
ATOM      5  H   UNL     1      10.689   1.922  -0.643  1.00  0.00     0.296 HD
ENDBRANCH   2   4
ENDBRANCH   1   2
BRANCH   1   6
ATOM      6  C   UNL     1       7.109  -0.474  -1.601  1.00  0.00     0.047 C 
BRANCH   6   7
ATOM      7  C   UNL     1       6.335   0.271  -0.590  1.00  0.00    -0.047 A 
ATOM      8  C   UNL     1       6.101  -0.176   0.686  1.00  0.00     0.004 A 
ATOM      9  C   UNL     1       5.816   1.490  -0.955  1.00  0.00     0.004 A 
ATOM     10  C   UNL     1       5.362   0.588   1.569  1.00  0.00     0.000 A 
ATOM     11  C   UNL     1       5.084   2.259  -0.099  1.00  0.00     0.000 A 
ATOM     12  C   UNL     1       4.849   1.811   1.184  1.00  0.00     0.000 A 
ENDBRANCH   6   7
ENDBRANCH   1   6
TORSDOF 4
ENDMDL
