@<TRIPOS>MOLECULE
/home/cewinharhar/GITHUB/reincatalyze/data/processed/docking_pred/2023-Apr-25-1630_maxeplen5_maxtrainstep200_exh32_gamma099_lrac3e-4_lrcr1e-3/f74925e0f2dbd9eb14447f51d5c862455f02ecd6_ligand_2.pdbqt
 12 12 0 0 0
SMALL
GASTEIGER

@<TRIPOS>ATOM
      1  C          5.0110    1.7630    0.7090 C.3     1  UNL1        0.1270
      2  C          4.5070    1.0890    1.9280 C.2     1  UNL1        0.3030
      3  O          5.1750    0.2060    2.4880 O.2     1  UNL1       -0.2520
      4  O          3.2780    1.4480    2.4480 O.3     1  UNL1       -0.4810
      5  H          2.6300    0.7660    2.8310 H       1  UNL1        0.2960
      6  C          6.5140    1.8810    0.7500 C.3     1  UNL1        0.0470
      7  C          7.1770    1.1270   -0.3310 C.2     1  UNL1       -0.0470
      8  C          8.5130    1.2180   -0.6280 C.2     1  UNL1        0.0040
      9  C          6.4010    0.2820   -1.0870 C.2     1  UNL1        0.0040
     10  C          9.0510    0.4750   -1.6610 C.2     1  UNL1        0.0000
     11  C          6.9130   -0.4600   -2.1110 C.2     1  UNL1        0.0000
     12  C          8.2560   -0.3690   -2.4100 C.2     1  UNL1        0.0000
@<TRIPOS>BOND
     1    12    11    2
     2    12    10    1
     3    11     9    1
     4    10     8    2
     5     9     7    2
     6     8     7    1
     7     7     6    1
     8     1     6    1
     9     1     2    1
    10     2     4    1
    11     2     3    2
    12     4     5    1
