@<TRIPOS>MOLECULE
/home/cewinharhar/GITHUB/reincatalyze/data/processed/docking_pred/2023-Apr-25-1630_maxeplen5_maxtrainstep200_exh32_gamma099_lrac3e-4_lrcr1e-3/f74925e0f2dbd9eb14447f51d5c862455f02ecd6_ligand_2.pdbqt
 12 12 0 0 0
SMALL
GASTEIGER

@<TRIPOS>ATOM
      1  C          8.3860   -0.7470   -1.9920 C.3     1  UNL1        0.1270
      2  C          8.3600   -1.9440   -2.8660 C.2     1  UNL1        0.3030
      3  O          7.2840   -2.4170   -3.2640 O.2     1  UNL1       -0.2520
      4  O          9.5490   -2.5390   -3.2420 O.3     1  UNL1       -0.4810
      5  H          9.6920   -3.5440   -3.1920 H       1  UNL1        0.2960
      6  C          7.0670   -0.0170   -2.0550 C.3     1  UNL1        0.0470
      7  C          6.4550    0.1740   -0.7260 C.2     1  UNL1       -0.0470
      8  C          5.7760    1.3030   -0.3430 C.2     1  UNL1        0.0040
      9  C          6.5780   -0.8480    0.1850 C.2     1  UNL1        0.0040
     10  C          5.2350    1.3970    0.9240 C.2     1  UNL1        0.0000
     11  C          6.0520   -0.7750    1.4410 C.2     1  UNL1        0.0000
     12  C          5.3680    0.3600    1.8250 C.2     1  UNL1        0.0000
@<TRIPOS>BOND
     1     3     2    2
     2     4     5    1
     3     4     2    1
     4     2     1    1
     5     6     1    1
     6     6     7    1
     7     7     8    2
     8     7     9    1
     9     8    10    1
    10     9    11    2
    11    10    12    2
    12    11    12    1
