@<TRIPOS>MOLECULE
/home/cewinharhar/GITHUB/reincatalyze/data/processed/docking_pred/2023-Apr-25-1630_maxeplen5_maxtrainstep200_exh32_gamma099_lrac3e-4_lrcr1e-3/f74925e0f2dbd9eb14447f51d5c862455f02ecd6_ligand_2.pdbqt
 12 12 0 0 0
SMALL
GASTEIGER

@<TRIPOS>ATOM
      1  C          8.2580    0.3260   -2.1640 C.3     1  UNL1        0.1270
      2  C          9.3870    0.3620   -1.2040 C.2     1  UNL1        0.3030
      3  O          9.4300   -0.4230   -0.2440 O.2     1  UNL1       -0.2520
      4  O         10.4020    1.2820   -1.3790 O.3     1  UNL1       -0.4810
      5  H         10.6890    1.9220   -0.6430 H       1  UNL1        0.2960
      6  C          7.1090   -0.4740   -1.6010 C.3     1  UNL1        0.0470
      7  C          6.3350    0.2710   -0.5900 C.2     1  UNL1       -0.0470
      8  C          6.1010   -0.1760    0.6860 C.2     1  UNL1        0.0040
      9  C          5.8160    1.4900   -0.9550 C.2     1  UNL1        0.0040
     10  C          5.3620    0.5880    1.5690 C.2     1  UNL1        0.0000
     11  C          5.0840    2.2590   -0.0990 C.2     1  UNL1        0.0000
     12  C          4.8490    1.8110    1.1840 C.2     1  UNL1        0.0000
@<TRIPOS>BOND
     1     1     6    1
     2     1     2    1
     3     6     7    1
     4     4     2    1
     5     4     5    1
     6     2     3    2
     7     9     7    2
     8     9    11    1
     9     7     8    1
    10    11    12    2
    11     8    10    2
    12    12    10    1
