MODEL 1
REMARK VINA RESULT:      -7.4      0.000      0.000
REMARK SMILES O=C(O)CCc1ccccc1
REMARK SMILES IDX 4 1 2 2 1 3 3 4 5 6 6 7 7 8 11 9 8 10 10 11 9 12
REMARK H PARENT 3 5
REMARK Flexibility Score: inf
ROOT
ATOM      1  C   UNL     1       8.435  -0.673  -2.092  1.00  0.00     0.127 C 
ENDROOT
BRANCH   1   2
ATOM      2  C   UNL     1       8.486  -1.919  -2.892  1.00  0.00     0.303 C 
ATOM      3  O   UNL     1       9.566  -2.490  -3.111  1.00  0.00    -0.252 OA
BRANCH   2   4
ATOM      4  O   UNL     1       7.317  -2.451  -3.401  1.00  0.00    -0.481 OA
ATOM      5  H   UNL     1       6.430  -1.959  -3.352  1.00  0.00     0.296 HD
ENDBRANCH   2   4
ENDBRANCH   1   2
BRANCH   1   6
ATOM      6  C   UNL     1       7.058  -0.062  -2.149  1.00  0.00     0.047 C 
BRANCH   6   7
ATOM      7  C   UNL     1       6.470   0.151  -0.813  1.00  0.00    -0.047 A 
ATOM      8  C   UNL     1       5.794   1.284  -0.438  1.00  0.00     0.004 A 
ATOM      9  C   UNL     1       6.612  -0.855   0.114  1.00  0.00     0.004 A 
ATOM     10  C   UNL     1       5.276   1.399   0.838  1.00  0.00     0.000 A 
ATOM     11  C   UNL     1       6.109  -0.760   1.378  1.00  0.00     0.000 A 
ATOM     12  C   UNL     1       5.429   0.378   1.755  1.00  0.00     0.000 A 
ENDBRANCH   6   7
ENDBRANCH   1   6
TORSDOF 4
ENDMDL
MODEL 2
REMARK VINA RESULT:      -7.3      0.081      1.428
REMARK SMILES O=C(O)CCc1ccccc1
REMARK SMILES IDX 4 1 2 2 1 3 3 4 5 6 6 7 7 8 11 9 8 10 10 11 9 12
REMARK H PARENT 3 5
REMARK Flexibility Score: inf
ROOT
ATOM      1  C   UNL     1       8.437  -0.617  -2.194  1.00  0.00     0.127 C 
ENDROOT
BRANCH   1   2
ATOM      2  C   UNL     1       8.489  -1.916  -2.907  1.00  0.00     0.303 C 
ATOM      3  O   UNL     1       9.565  -2.516  -3.056  1.00  0.00    -0.252 OA
BRANCH   2   4
ATOM      4  O   UNL     1       7.326  -2.464  -3.412  1.00  0.00    -0.481 OA
ATOM      5  H   UNL     1       6.522  -2.667  -2.825  1.00  0.00     0.296 HD
ENDBRANCH   2   4
ENDBRANCH   1   2
BRANCH   1   6
ATOM      6  C   UNL     1       7.025  -0.090  -2.156  1.00  0.00     0.047 C 
BRANCH   6   7
ATOM      7  C   UNL     1       6.494   0.025  -0.784  1.00  0.00    -0.047 A 
ATOM      8  C   UNL     1       6.597  -0.957   0.169  1.00  0.00     0.004 A 
ATOM      9  C   UNL     1       5.854   1.193  -0.444  1.00  0.00     0.004 A 
ATOM     10  C   UNL     1       6.068  -0.764   1.430  1.00  0.00     0.000 A 
ATOM     11  C   UNL     1       5.325   1.402   0.796  1.00  0.00     0.000 A 
ATOM     12  C   UNL     1       5.429   0.416   1.754  1.00  0.00     0.000 A 
ENDBRANCH   6   7
ENDBRANCH   1   6
TORSDOF 4
ENDMDL
MODEL 3
REMARK VINA RESULT:      -6.8      3.367      5.079
REMARK SMILES O=C(O)CCc1ccccc1
REMARK SMILES IDX 4 1 2 2 1 3 3 4 5 6 6 7 7 8 11 9 8 10 10 11 9 12
REMARK H PARENT 3 5
REMARK Flexibility Score: inf
ROOT
ATOM      1  C   UNL     1       4.993   1.797   0.734  1.00  0.00     0.127 C 
ENDROOT
BRANCH   1   2
ATOM      2  C   UNL     1       4.484   1.095   1.935  1.00  0.00     0.303 C 
ATOM      3  O   UNL     1       5.148   0.195   2.473  1.00  0.00    -0.252 OA
BRANCH   2   4
ATOM      4  O   UNL     1       3.257   1.447   2.463  1.00  0.00    -0.481 OA
ATOM      5  H   UNL     1       2.666   2.156   2.038  1.00  0.00     0.296 HD
ENDBRANCH   2   4
ENDBRANCH   1   2
BRANCH   1   6
ATOM      6  C   UNL     1       6.501   1.829   0.737  1.00  0.00     0.047 C 
BRANCH   6   7
ATOM      7  C   UNL     1       7.093   1.029  -0.352  1.00  0.00    -0.047 A 
ATOM      8  C   UNL     1       6.405   0.100  -1.089  1.00  0.00     0.004 A 
ATOM      9  C   UNL     1       8.422   1.230  -0.640  1.00  0.00     0.004 A 
ATOM     10  C   UNL     1       7.041  -0.607  -2.092  1.00  0.00     0.000 A 
ATOM     11  C   UNL     1       9.068   0.542  -1.625  1.00  0.00     0.000 A 
ATOM     12  C   UNL     1       8.376  -0.391  -2.367  1.00  0.00     0.000 A 
ENDBRANCH   6   7
ENDBRANCH   1   6
TORSDOF 4
ENDMDL
MODEL 4
REMARK VINA RESULT:      -6.6      3.822      4.973
REMARK SMILES O=C(O)CCc1ccccc1
REMARK SMILES IDX 4 1 2 2 1 3 3 4 5 6 6 7 7 8 11 9 8 10 10 11 9 12
REMARK H PARENT 3 5
REMARK Flexibility Score: inf
ROOT
ATOM      1  C   UNL     1       5.539   2.778   0.013  1.00  0.00     0.127 C 
ENDROOT
BRANCH   1   2
ATOM      2  C   UNL     1       6.280   3.796   0.794  1.00  0.00     0.303 C 
ATOM      3  O   UNL     1       6.812   4.765   0.231  1.00  0.00    -0.252 OA
BRANCH   2   4
ATOM      4  O   UNL     1       6.379   3.665   2.166  1.00  0.00    -0.481 OA
ATOM      5  H   UNL     1       6.490   2.761   2.618  1.00  0.00     0.296 HD
ENDBRANCH   2   4
ENDBRANCH   1   2
BRANCH   1   6
ATOM      6  C   UNL     1       4.958   1.728   0.927  1.00  0.00     0.047 C 
BRANCH   6   7
ATOM      7  C   UNL     1       5.767   0.495   0.970  1.00  0.00    -0.047 A 
ATOM      8  C   UNL     1       5.753  -0.403   2.006  1.00  0.00     0.004 A 
ATOM      9  C   UNL     1       6.588   0.234  -0.102  1.00  0.00     0.004 A 
ATOM     10  C   UNL     1       6.546  -1.533   1.963  1.00  0.00     0.000 A 
ATOM     11  C   UNL     1       7.379  -0.876  -0.164  1.00  0.00     0.000 A 
ATOM     12  C   UNL     1       7.364  -1.778   0.878  1.00  0.00     0.000 A 
ENDBRANCH   6   7
ENDBRANCH   1   6
TORSDOF 4
ENDMDL
MODEL 5
REMARK VINA RESULT:      -6.6      1.890      2.792
REMARK SMILES O=C(O)CCc1ccccc1
REMARK SMILES IDX 4 1 2 2 1 3 3 4 5 6 6 7 7 8 11 9 8 10 10 11 9 12
REMARK H PARENT 3 5
REMARK Flexibility Score: inf
ROOT
ATOM      1  C   UNL     1       8.264  -1.604   1.013  1.00  0.00     0.127 C 
ENDROOT
BRANCH   1   2
ATOM      2  C   UNL     1       8.555  -2.858   0.279  1.00  0.00     0.303 C 
ATOM      3  O   UNL     1       9.204  -3.770   0.814  1.00  0.00    -0.252 OA
BRANCH   2   4
ATOM      4  O   UNL     1       8.100  -3.012  -1.016  1.00  0.00    -0.481 OA
ATOM      5  H   UNL     1       8.723  -2.979  -1.818  1.00  0.00     0.296 HD
ENDBRANCH   2   4
ENDBRANCH   1   2
BRANCH   1   6
ATOM      6  C   UNL     1       6.789  -1.494   1.310  1.00  0.00     0.047 C 
BRANCH   6   7
ATOM      7  C   UNL     1       6.202  -0.227   0.833  1.00  0.00    -0.047 A 
ATOM      8  C   UNL     1       5.414   0.595   1.598  1.00  0.00     0.004 A 
ATOM      9  C   UNL     1       6.463   0.148  -0.463  1.00  0.00     0.004 A 
ATOM     10  C   UNL     1       4.904   1.765   1.069  1.00  0.00     0.000 A 
ATOM     11  C   UNL     1       5.969   1.298  -1.005  1.00  0.00     0.000 A 
ATOM     12  C   UNL     1       5.178   2.125  -0.236  1.00  0.00     0.000 A 
ENDBRANCH   6   7
ENDBRANCH   1   6
TORSDOF 4
ENDMDL
