@<TRIPOS>MOLECULE
/home/cewinharhar/GITHUB/reincatalyze/data/processed/docking_pred/2023-Apr-25-1630_maxeplen5_maxtrainstep200_exh32_gamma099_lrac3e-4_lrcr1e-3/fbb46063794dc265e75c2cefc4e8ae8bb502d9b1_ligand_2.pdbqt
 12 12 0 0 0
SMALL
GASTEIGER

@<TRIPOS>ATOM
      1  C          8.4350   -0.6730   -2.0920 C.3     1  UNL1        0.1270
      2  C          8.4860   -1.9190   -2.8920 C.2     1  UNL1        0.3030
      3  O          9.5660   -2.4900   -3.1110 O.2     1  UNL1       -0.2520
      4  O          7.3170   -2.4510   -3.4010 O.3     1  UNL1       -0.4810
      5  H          6.4300   -1.9590   -3.3520 H       1  UNL1        0.2960
      6  C          7.0580   -0.0620   -2.1490 C.3     1  UNL1        0.0470
      7  C          6.4700    0.1510   -0.8130 C.2     1  UNL1       -0.0470
      8  C          5.7940    1.2840   -0.4380 C.2     1  UNL1        0.0040
      9  C          6.6120   -0.8550    0.1140 C.2     1  UNL1        0.0040
     10  C          5.2760    1.3990    0.8380 C.2     1  UNL1        0.0000
     11  C          6.1090   -0.7600    1.3780 C.2     1  UNL1        0.0000
     12  C          5.4290    0.3780    1.7550 C.2     1  UNL1        0.0000
@<TRIPOS>BOND
     1     4     5    1
     2     4     2    1
     3     3     2    2
     4     2     1    1
     5     6     1    1
     6     6     7    1
     7     7     8    2
     8     7     9    1
     9     8    10    1
    10     9    11    2
    11    10    12    2
    12    11    12    1
