@<TRIPOS>MOLECULE
/home/cewinharhar/GITHUB/reincatalyze/data/processed/docking_pred/2023-Apr-25-1630_maxeplen5_maxtrainstep200_exh32_gamma099_lrac3e-4_lrcr1e-3/fbb46063794dc265e75c2cefc4e8ae8bb502d9b1_ligand_2.pdbqt
 12 12 0 0 0
SMALL
GASTEIGER

@<TRIPOS>ATOM
      1  C          8.2640   -1.6040    1.0130 C.3     1  UNL1        0.1270
      2  C          8.5550   -2.8580    0.2790 C.2     1  UNL1        0.3030
      3  O          9.2040   -3.7700    0.8140 O.2     1  UNL1       -0.2520
      4  O          8.1000   -3.0120   -1.0160 O.3     1  UNL1       -0.4810
      5  H          8.7230   -2.9790   -1.8180 H       1  UNL1        0.2960
      6  C          6.7890   -1.4940    1.3100 C.3     1  UNL1        0.0470
      7  C          6.2020   -0.2270    0.8330 C.2     1  UNL1       -0.0470
      8  C          5.4140    0.5950    1.5980 C.2     1  UNL1        0.0040
      9  C          6.4630    0.1480   -0.4630 C.2     1  UNL1        0.0040
     10  C          4.9040    1.7650    1.0690 C.2     1  UNL1        0.0000
     11  C          5.9690    1.2980   -1.0050 C.2     1  UNL1        0.0000
     12  C          5.1780    2.1250   -0.2360 C.2     1  UNL1        0.0000
@<TRIPOS>BOND
     1     5     4    1
     2     4     2    1
     3    11     9    1
     4    11    12    2
     5     9     7    2
     6    12    10    1
     7     2     3    2
     8     2     1    1
     9     7     6    1
    10     7     8    1
    11     1     6    1
    12    10     8    2
