@<TRIPOS>MOLECULE
/home/cewinharhar/GITHUB/reincatalyze/data/processed/docking_pred/2023-Apr-25-1630_maxeplen5_maxtrainstep200_exh32_gamma099_lrac3e-4_lrcr1e-3/fbb46063794dc265e75c2cefc4e8ae8bb502d9b1_ligand_2.pdbqt
 12 12 0 0 0
SMALL
GASTEIGER

@<TRIPOS>ATOM
      1  C          4.9930    1.7970    0.7340 C.3     1  UNL1        0.1270
      2  C          4.4840    1.0950    1.9350 C.2     1  UNL1        0.3030
      3  O          5.1480    0.1950    2.4730 O.2     1  UNL1       -0.2520
      4  O          3.2570    1.4470    2.4630 O.3     1  UNL1       -0.4810
      5  H          2.6660    2.1560    2.0380 H       1  UNL1        0.2960
      6  C          6.5010    1.8290    0.7370 C.3     1  UNL1        0.0470
      7  C          7.0930    1.0290   -0.3520 C.2     1  UNL1       -0.0470
      8  C          6.4050    0.1000   -1.0890 C.2     1  UNL1        0.0040
      9  C          8.4220    1.2300   -0.6400 C.2     1  UNL1        0.0040
     10  C          7.0410   -0.6070   -2.0920 C.2     1  UNL1        0.0000
     11  C          9.0680    0.5420   -1.6250 C.2     1  UNL1        0.0000
     12  C          8.3760   -0.3910   -2.3670 C.2     1  UNL1        0.0000
@<TRIPOS>BOND
     1    12    10    2
     2    12    11    1
     3    10     8    1
     4    11     9    2
     5     8     7    2
     6     9     7    1
     7     7     6    1
     8     1     6    1
     9     1     2    1
    10     2     4    1
    11     2     3    2
    12     5     4    1
