@<TRIPOS>MOLECULE
/home/cewinharhar/GITHUB/reincatalyze/data/processed/docking_pred/2023-Apr-25-1630_maxeplen5_maxtrainstep200_exh32_gamma099_lrac3e-4_lrcr1e-3/fbb46063794dc265e75c2cefc4e8ae8bb502d9b1_ligand_2.pdbqt
 12 12 0 0 0
SMALL
GASTEIGER

@<TRIPOS>ATOM
      1  C          8.4370   -0.6170   -2.1940 C.3     1  UNL1        0.1270
      2  C          8.4890   -1.9160   -2.9070 C.2     1  UNL1        0.3030
      3  O          9.5650   -2.5160   -3.0560 O.2     1  UNL1       -0.2520
      4  O          7.3260   -2.4640   -3.4120 O.3     1  UNL1       -0.4810
      5  H          6.5220   -2.6670   -2.8250 H       1  UNL1        0.2960
      6  C          7.0250   -0.0900   -2.1560 C.3     1  UNL1        0.0470
      7  C          6.4940    0.0250   -0.7840 C.2     1  UNL1       -0.0470
      8  C          6.5970   -0.9570    0.1690 C.2     1  UNL1        0.0040
      9  C          5.8540    1.1930   -0.4440 C.2     1  UNL1        0.0040
     10  C          6.0680   -0.7640    1.4300 C.2     1  UNL1        0.0000
     11  C          5.3250    1.4020    0.7960 C.2     1  UNL1        0.0000
     12  C          5.4290    0.4160    1.7540 C.2     1  UNL1        0.0000
@<TRIPOS>BOND
     1     4     2    1
     2     4     5    1
     3     3     2    2
     4     2     1    1
     5     1     6    1
     6     6     7    1
     7     7     9    2
     8     7     8    1
     9     9    11    1
    10     8    10    2
    11    11    12    2
    12    10    12    1
