@<TRIPOS>MOLECULE
/home/cewinharhar/GITHUB/reincatalyze/data/processed/docking_pred/2023-Apr-25-1630_maxeplen5_maxtrainstep200_exh32_gamma099_lrac3e-4_lrcr1e-3/fd0126b23dad862f417327e64da043fff24e40de_ligand_2.pdbqt
 12 12 0 0 0
SMALL
GASTEIGER

@<TRIPOS>ATOM
      1  C          8.2410    0.2530   -2.2130 C.3     1  UNL1        0.1270
      2  C          9.3640    0.3420   -1.2500 C.2     1  UNL1        0.3030
      3  O          9.4240   -0.4170   -0.2700 O.2     1  UNL1       -0.2520
      4  O         10.3570    1.2830   -1.4450 O.3     1  UNL1       -0.4810
      5  H         10.6340    1.9390   -0.7200 H       1  UNL1        0.2960
      6  C          7.0930   -0.5230   -1.6170 C.3     1  UNL1        0.0470
      7  C          6.3330    0.2550   -0.6190 C.2     1  UNL1       -0.0470
      8  C          6.0940   -0.1610    0.6650 C.2     1  UNL1        0.0040
      9  C          5.8330    1.4740   -1.0090 C.2     1  UNL1        0.0040
     10  C          5.3700    0.6320    1.5340 C.2     1  UNL1        0.0000
     11  C          5.1150    2.2720   -0.1680 C.2     1  UNL1        0.0000
     12  C          4.8760    1.8550    1.1240 C.2     1  UNL1        0.0000
@<TRIPOS>BOND
     1     1     6    1
     2     1     2    1
     3     6     7    1
     4     4     2    1
     5     4     5    1
     6     2     3    2
     7     9     7    2
     8     9    11    1
     9     7     8    1
    10    11    12    2
    11     8    10    2
    12    12    10    1
