@<TRIPOS>MOLECULE
/home/cewinharhar/GITHUB/reincatalyze/data/processed/docking_pred/2023-Apr-25-1630_maxeplen5_maxtrainstep200_exh32_gamma099_lrac3e-4_lrcr1e-3/fd0126b23dad862f417327e64da043fff24e40de_ligand_2.pdbqt
 12 12 0 0 0
SMALL
GASTEIGER

@<TRIPOS>ATOM
      1  C          8.4050   -0.6830   -2.0790 C.3     1  UNL1        0.1270
      2  C          8.3380   -1.9000   -2.9220 C.2     1  UNL1        0.3030
      3  O          7.2460   -2.3520   -3.2990 O.2     1  UNL1       -0.2520
      4  O          9.5060   -2.5390   -3.2910 O.3     1  UNL1       -0.4810
      5  H         10.3430   -2.5160   -2.7160 H       1  UNL1        0.2960
      6  C          7.0810    0.0410   -2.0880 C.3     1  UNL1        0.0470
      7  C          6.5000    0.1880   -0.7390 C.2     1  UNL1       -0.0470
      8  C          5.8490    1.3110   -0.2970 C.2     1  UNL1        0.0040
      9  C          6.6240   -0.8730    0.1270 C.2     1  UNL1        0.0040
     10  C          5.3360    1.3620    0.9850 C.2     1  UNL1        0.0000
     11  C          6.1250   -0.8420    1.3960 C.2     1  UNL1        0.0000
     12  C          5.4700    0.2870    1.8400 C.2     1  UNL1        0.0000
@<TRIPOS>BOND
     1     3     2    2
     2     4     2    1
     3     4     5    1
     4     2     1    1
     5     6     1    1
     6     6     7    1
     7     7     8    2
     8     7     9    1
     9     8    10    1
    10     9    11    2
    11    10    12    2
    12    11    12    1
