@<TRIPOS>MOLECULE
/home/cewinharhar/GITHUB/reincatalyze/data/processed/docking_pred/2023-Apr-25-1630_maxeplen5_maxtrainstep200_exh32_gamma099_lrac3e-4_lrcr1e-3/fd0126b23dad862f417327e64da043fff24e40de_ligand_2.pdbqt
 12 12 0 0 0
SMALL
GASTEIGER

@<TRIPOS>ATOM
      1  C          8.2800   -0.9430   -1.8680 C.3     1  UNL1        0.1270
      2  C          8.4210   -2.0490   -2.8450 C.2     1  UNL1        0.3030
      3  O          9.5290   -2.5580   -3.0720 O.2     1  UNL1       -0.2520
      4  O          7.3040   -2.5180   -3.5100 O.3     1  UNL1       -0.4810
      5  H          6.4270   -2.7070   -3.0330 H       1  UNL1        0.2960
      6  C          7.4420   -1.3780   -0.6920 C.3     1  UNL1        0.0470
      7  C          6.5930   -0.2940   -0.1620 C.2     1  UNL1       -0.0470
      8  C          6.2350    0.8240   -0.8710 C.2     1  UNL1        0.0040
      9  C          6.1350   -0.4160    1.1290 C.2     1  UNL1        0.0040
     10  C          5.4370    1.7920   -0.2940 C.2     1  UNL1        0.0000
     11  C          5.3460    0.5280    1.7170 C.2     1  UNL1        0.0000
     12  C          4.9860    1.6520    1.0040 C.2     1  UNL1        0.0000
@<TRIPOS>BOND
     1     4     5    1
     2     4     2    1
     3     3     2    2
     4     2     1    1
     5     1     6    1
     6     8    10    1
     7     8     7    2
     8     6     7    1
     9    10    12    2
    10     7     9    1
    11    12    11    1
    12     9    11    2
