@<TRIPOS>MOLECULE
/home/cewinharhar/GITHUB/reincatalyze/data/processed/docking_pred/2023-Apr-25-1630_maxeplen5_maxtrainstep200_exh32_gamma099_lrac3e-4_lrcr1e-3/fd0126b23dad862f417327e64da043fff24e40de_ligand_2.pdbqt
 12 12 0 0 0
SMALL
GASTEIGER

@<TRIPOS>ATOM
      1  C          8.4680   -0.5980   -2.2270 C.3     1  UNL1        0.1270
      2  C          8.5090   -1.9020   -2.9310 C.2     1  UNL1        0.3030
      3  O          9.5820   -2.5040   -3.0910 O.2     1  UNL1       -0.2520
      4  O          7.3380   -2.4530   -3.4150 O.3     1  UNL1       -0.4810
      5  H          6.5650   -1.8820   -3.7440 H       1  UNL1        0.2960
      6  C          7.0570   -0.0690   -2.1740 C.3     1  UNL1        0.0470
      7  C          6.5290    0.0170   -0.7980 C.2     1  UNL1       -0.0470
      8  C          6.6270   -0.9880    0.1300 C.2     1  UNL1        0.0040
      9  C          5.8980    1.1810   -0.4290 C.2     1  UNL1        0.0040
     10  C          6.1030   -0.8220    1.3970 C.2     1  UNL1        0.0000
     11  C          5.3730    1.3650    0.8160 C.2     1  UNL1        0.0000
     12  C          5.4720    0.3550    1.7500 C.2     1  UNL1        0.0000
@<TRIPOS>BOND
     1     5     4    1
     2     4     2    1
     3     3     2    2
     4     2     1    1
     5     1     6    1
     6     6     7    1
     7     7     9    2
     8     7     8    1
     9     9    11    1
    10     8    10    2
    11    11    12    2
    12    10    12    1
