MODEL 1
REMARK VINA RESULT:      -7.3      0.000      0.000
REMARK SMILES O=C(O)CCc1ccccc1
REMARK SMILES IDX 4 1 2 2 1 3 3 4 5 6 6 7 7 8 11 9 8 10 10 11 9 12
REMARK H PARENT 3 5
REMARK Flexibility Score: inf
ROOT
ATOM      1  C   UNL     1       8.468  -0.598  -2.227  1.00  0.00     0.127 C 
ENDROOT
BRANCH   1   2
ATOM      2  C   UNL     1       8.509  -1.902  -2.931  1.00  0.00     0.303 C 
ATOM      3  O   UNL     1       9.582  -2.504  -3.091  1.00  0.00    -0.252 OA
BRANCH   2   4
ATOM      4  O   UNL     1       7.338  -2.453  -3.415  1.00  0.00    -0.481 OA
ATOM      5  H   UNL     1       6.565  -1.882  -3.744  1.00  0.00     0.296 HD
ENDBRANCH   2   4
ENDBRANCH   1   2
BRANCH   1   6
ATOM      6  C   UNL     1       7.057  -0.069  -2.174  1.00  0.00     0.047 C 
BRANCH   6   7
ATOM      7  C   UNL     1       6.529   0.017  -0.798  1.00  0.00    -0.047 A 
ATOM      8  C   UNL     1       6.627  -0.988   0.130  1.00  0.00     0.004 A 
ATOM      9  C   UNL     1       5.898   1.181  -0.429  1.00  0.00     0.004 A 
ATOM     10  C   UNL     1       6.103  -0.822   1.397  1.00  0.00     0.000 A 
ATOM     11  C   UNL     1       5.373   1.365   0.816  1.00  0.00     0.000 A 
ATOM     12  C   UNL     1       5.472   0.355   1.750  1.00  0.00     0.000 A 
ENDBRANCH   6   7
ENDBRANCH   1   6
TORSDOF 4
ENDMDL
MODEL 2
REMARK VINA RESULT:      -7.2      0.162      1.727
REMARK SMILES O=C(O)CCc1ccccc1
REMARK SMILES IDX 4 1 2 2 1 3 3 4 5 6 6 7 7 8 11 9 8 10 10 11 9 12
REMARK H PARENT 3 5
REMARK Flexibility Score: inf
ROOT
ATOM      1  C   UNL     1       8.405  -0.683  -2.079  1.00  0.00     0.127 C 
ENDROOT
BRANCH   1   2
ATOM      2  C   UNL     1       8.338  -1.900  -2.922  1.00  0.00     0.303 C 
ATOM      3  O   UNL     1       7.246  -2.352  -3.299  1.00  0.00    -0.252 OA
BRANCH   2   4
ATOM      4  O   UNL     1       9.506  -2.539  -3.291  1.00  0.00    -0.481 OA
ATOM      5  H   UNL     1      10.343  -2.516  -2.716  1.00  0.00     0.296 HD
ENDBRANCH   2   4
ENDBRANCH   1   2
BRANCH   1   6
ATOM      6  C   UNL     1       7.081   0.041  -2.088  1.00  0.00     0.047 C 
BRANCH   6   7
ATOM      7  C   UNL     1       6.500   0.188  -0.739  1.00  0.00    -0.047 A 
ATOM      8  C   UNL     1       5.849   1.311  -0.297  1.00  0.00     0.004 A 
ATOM      9  C   UNL     1       6.624  -0.873   0.127  1.00  0.00     0.004 A 
ATOM     10  C   UNL     1       5.336   1.362   0.985  1.00  0.00     0.000 A 
ATOM     11  C   UNL     1       6.125  -0.842   1.396  1.00  0.00     0.000 A 
ATOM     12  C   UNL     1       5.470   0.287   1.840  1.00  0.00     0.000 A 
ENDBRANCH   6   7
ENDBRANCH   1   6
TORSDOF 4
ENDMDL
MODEL 3
REMARK VINA RESULT:      -7.2      0.657      1.610
REMARK SMILES O=C(O)CCc1ccccc1
REMARK SMILES IDX 4 1 2 2 1 3 3 4 5 6 6 7 7 8 11 9 8 10 10 11 9 12
REMARK H PARENT 3 5
REMARK Flexibility Score: inf
ROOT
ATOM      1  C   UNL     1       8.280  -0.943  -1.868  1.00  0.00     0.127 C 
ENDROOT
BRANCH   1   2
ATOM      2  C   UNL     1       8.421  -2.049  -2.845  1.00  0.00     0.303 C 
ATOM      3  O   UNL     1       9.529  -2.558  -3.072  1.00  0.00    -0.252 OA
BRANCH   2   4
ATOM      4  O   UNL     1       7.304  -2.518  -3.510  1.00  0.00    -0.481 OA
ATOM      5  H   UNL     1       6.427  -2.707  -3.033  1.00  0.00     0.296 HD
ENDBRANCH   2   4
ENDBRANCH   1   2
BRANCH   1   6
ATOM      6  C   UNL     1       7.442  -1.378  -0.692  1.00  0.00     0.047 C 
BRANCH   6   7
ATOM      7  C   UNL     1       6.593  -0.294  -0.162  1.00  0.00    -0.047 A 
ATOM      8  C   UNL     1       6.235   0.824  -0.871  1.00  0.00     0.004 A 
ATOM      9  C   UNL     1       6.135  -0.416   1.129  1.00  0.00     0.004 A 
ATOM     10  C   UNL     1       5.437   1.792  -0.294  1.00  0.00     0.000 A 
ATOM     11  C   UNL     1       5.346   0.528   1.717  1.00  0.00     0.000 A 
ATOM     12  C   UNL     1       4.986   1.652   1.004  1.00  0.00     0.000 A 
ENDBRANCH   6   7
ENDBRANCH   1   6
TORSDOF 4
ENDMDL
MODEL 4
REMARK VINA RESULT:      -6.8      3.373      5.065
REMARK SMILES O=C(O)CCc1ccccc1
REMARK SMILES IDX 4 1 2 2 1 3 3 4 5 6 6 7 7 8 11 9 8 10 10 11 9 12
REMARK H PARENT 3 5
REMARK Flexibility Score: inf
ROOT
ATOM      1  C   UNL     1       5.002   1.818   0.724  1.00  0.00     0.127 C 
ENDROOT
BRANCH   1   2
ATOM      2  C   UNL     1       4.499   1.111   1.925  1.00  0.00     0.303 C 
ATOM      3  O   UNL     1       5.169   0.214   2.461  1.00  0.00    -0.252 OA
BRANCH   2   4
ATOM      4  O   UNL     1       3.270   1.453   2.454  1.00  0.00    -0.481 OA
ATOM      5  H   UNL     1       2.814   2.336   2.241  1.00  0.00     0.296 HD
ENDBRANCH   2   4
ENDBRANCH   1   2
BRANCH   1   6
ATOM      6  C   UNL     1       6.510   1.854   0.722  1.00  0.00     0.047 C 
BRANCH   6   7
ATOM      7  C   UNL     1       7.101   1.049  -0.364  1.00  0.00    -0.047 A 
ATOM      8  C   UNL     1       6.406   0.134  -1.112  1.00  0.00     0.004 A 
ATOM      9  C   UNL     1       8.436   1.232  -0.638  1.00  0.00     0.004 A 
ATOM     10  C   UNL     1       7.042  -0.578  -2.111  1.00  0.00     0.000 A 
ATOM     11  C   UNL     1       9.081   0.539  -1.620  1.00  0.00     0.000 A 
ATOM     12  C   UNL     1       8.383  -0.381  -2.373  1.00  0.00     0.000 A 
ENDBRANCH   6   7
ENDBRANCH   1   6
TORSDOF 4
ENDMDL
MODEL 5
REMARK VINA RESULT:      -6.7      1.924      2.306
REMARK SMILES O=C(O)CCc1ccccc1
REMARK SMILES IDX 4 1 2 2 1 3 3 4 5 6 6 7 7 8 11 9 8 10 10 11 9 12
REMARK H PARENT 3 5
REMARK Flexibility Score: inf
ROOT
ATOM      1  C   UNL     1       8.241   0.253  -2.213  1.00  0.00     0.127 C 
ENDROOT
BRANCH   1   2
ATOM      2  C   UNL     1       9.364   0.342  -1.250  1.00  0.00     0.303 C 
ATOM      3  O   UNL     1       9.424  -0.417  -0.270  1.00  0.00    -0.252 OA
BRANCH   2   4
ATOM      4  O   UNL     1      10.357   1.283  -1.445  1.00  0.00    -0.481 OA
ATOM      5  H   UNL     1      10.634   1.939  -0.720  1.00  0.00     0.296 HD
ENDBRANCH   2   4
ENDBRANCH   1   2
BRANCH   1   6
ATOM      6  C   UNL     1       7.093  -0.523  -1.617  1.00  0.00     0.047 C 
BRANCH   6   7
ATOM      7  C   UNL     1       6.333   0.255  -0.619  1.00  0.00    -0.047 A 
ATOM      8  C   UNL     1       6.094  -0.161   0.665  1.00  0.00     0.004 A 
ATOM      9  C   UNL     1       5.833   1.474  -1.009  1.00  0.00     0.004 A 
ATOM     10  C   UNL     1       5.370   0.632   1.534  1.00  0.00     0.000 A 
ATOM     11  C   UNL     1       5.115   2.272  -0.168  1.00  0.00     0.000 A 
ATOM     12  C   UNL     1       4.876   1.855   1.124  1.00  0.00     0.000 A 
ENDBRANCH   6   7
ENDBRANCH   1   6
TORSDOF 4
ENDMDL
