@<TRIPOS>MOLECULE
/home/cewinharhar/GITHUB/reincatalyze/data/processed/docking_pred/2023-Apr-25-1630_maxeplen5_maxtrainstep200_exh32_gamma099_lrac3e-4_lrcr1e-3/fd0126b23dad862f417327e64da043fff24e40de_ligand_2.pdbqt
 12 12 0 0 0
SMALL
GASTEIGER

@<TRIPOS>ATOM
      1  C          5.0020    1.8180    0.7240 C.3     1  UNL1        0.1270
      2  C          4.4990    1.1110    1.9250 C.2     1  UNL1        0.3030
      3  O          5.1690    0.2140    2.4610 O.2     1  UNL1       -0.2520
      4  O          3.2700    1.4530    2.4540 O.3     1  UNL1       -0.4810
      5  H          2.8140    2.3360    2.2410 H       1  UNL1        0.2960
      6  C          6.5100    1.8540    0.7220 C.3     1  UNL1        0.0470
      7  C          7.1010    1.0490   -0.3640 C.2     1  UNL1       -0.0470
      8  C          6.4060    0.1340   -1.1120 C.2     1  UNL1        0.0040
      9  C          8.4360    1.2320   -0.6380 C.2     1  UNL1        0.0040
     10  C          7.0420   -0.5780   -2.1110 C.2     1  UNL1        0.0000
     11  C          9.0810    0.5390   -1.6200 C.2     1  UNL1        0.0000
     12  C          8.3830   -0.3810   -2.3730 C.2     1  UNL1        0.0000
@<TRIPOS>BOND
     1    12    10    2
     2    12    11    1
     3    10     8    1
     4    11     9    2
     5     8     7    2
     6     9     7    1
     7     7     6    1
     8     6     1    1
     9     1     2    1
    10     2     4    1
    11     2     3    2
    12     5     4    1
