MODEL 1
REMARK VINA RESULT:      -7.3      0.000      0.000
REMARK SMILES O=C(O)CCc1ccccc1
REMARK SMILES IDX 4 1 2 2 1 3 3 4 5 6 6 7 7 8 11 9 8 10 10 11 9 12
REMARK H PARENT 3 5
REMARK Flexibility Score: inf
ROOT
ATOM      1  C   UNL     1       8.413  -0.664  -2.102  1.00  0.00     0.127 C 
ENDROOT
BRANCH   1   2
ATOM      2  C   UNL     1       8.452  -1.915  -2.896  1.00  0.00     0.303 C 
ATOM      3  O   UNL     1       9.521  -2.516  -3.083  1.00  0.00    -0.252 OA
BRANCH   2   4
ATOM      4  O   UNL     1       7.283  -2.418  -3.434  1.00  0.00    -0.481 OA
ATOM      5  H   UNL     1       6.391  -1.940  -3.339  1.00  0.00     0.296 HD
ENDBRANCH   2   4
ENDBRANCH   1   2
BRANCH   1   6
ATOM      6  C   UNL     1       7.026  -0.072  -2.113  1.00  0.00     0.047 C 
BRANCH   6   7
ATOM      7  C   UNL     1       6.463   0.091  -0.759  1.00  0.00    -0.047 A 
ATOM      8  C   UNL     1       5.817   1.219  -0.322  1.00  0.00     0.004 A 
ATOM      9  C   UNL     1       6.598  -0.959   0.118  1.00  0.00     0.004 A 
ATOM     10  C   UNL     1       5.321   1.286   0.965  1.00  0.00     0.000 A 
ATOM     11  C   UNL     1       6.116  -0.912   1.393  1.00  0.00     0.000 A 
ATOM     12  C   UNL     1       5.466   0.222   1.832  1.00  0.00     0.000 A 
ENDBRANCH   6   7
ENDBRANCH   1   6
TORSDOF 4
ENDMDL
MODEL 2
REMARK VINA RESULT:      -7.3      0.092      1.428
REMARK SMILES O=C(O)CCc1ccccc1
REMARK SMILES IDX 4 1 2 2 1 3 3 4 5 6 6 7 7 8 11 9 8 10 10 11 9 12
REMARK H PARENT 3 5
REMARK Flexibility Score: inf
ROOT
ATOM      1  C   UNL     1       8.438  -0.628  -2.175  1.00  0.00     0.127 C 
ENDROOT
BRANCH   1   2
ATOM      2  C   UNL     1       8.480  -1.911  -2.915  1.00  0.00     0.303 C 
ATOM      3  O   UNL     1       9.556  -2.499  -3.106  1.00  0.00    -0.252 OA
BRANCH   2   4
ATOM      4  O   UNL     1       7.308  -2.459  -3.399  1.00  0.00    -0.481 OA
ATOM      5  H   UNL     1       7.001  -2.326  -4.358  1.00  0.00     0.296 HD
ENDBRANCH   2   4
ENDBRANCH   1   2
BRANCH   1   6
ATOM      6  C   UNL     1       7.030  -0.089  -2.129  1.00  0.00     0.047 C 
BRANCH   6   7
ATOM      7  C   UNL     1       6.497   0.003  -0.756  1.00  0.00    -0.047 A 
ATOM      8  C   UNL     1       6.604  -0.991   0.182  1.00  0.00     0.004 A 
ATOM      9  C   UNL     1       5.851   1.164  -0.400  1.00  0.00     0.004 A 
ATOM     10  C   UNL     1       6.074  -0.819   1.446  1.00  0.00     0.000 A 
ATOM     11  C   UNL     1       5.320   1.353   0.842  1.00  0.00     0.000 A 
ATOM     12  C   UNL     1       5.428   0.354   1.786  1.00  0.00     0.000 A 
ENDBRANCH   6   7
ENDBRANCH   1   6
TORSDOF 4
ENDMDL
MODEL 3
REMARK VINA RESULT:      -6.8      1.054      1.658
REMARK SMILES O=C(O)CCc1ccccc1
REMARK SMILES IDX 4 1 2 2 1 3 3 4 5 6 6 7 7 8 11 9 8 10 10 11 9 12
REMARK H PARENT 3 5
REMARK Flexibility Score: inf
ROOT
ATOM      1  C   UNL     1       7.298  -1.370  -2.137  1.00  0.00     0.127 C 
ENDROOT
BRANCH   1   2
ATOM      2  C   UNL     1       8.739  -1.385  -2.484  1.00  0.00     0.303 C 
ATOM      3  O   UNL     1       9.217  -2.298  -3.175  1.00  0.00    -0.252 OA
BRANCH   2   4
ATOM      4  O   UNL     1       9.559  -0.369  -2.034  1.00  0.00    -0.481 OA
ATOM      5  H   UNL     1      10.535  -0.296  -2.308  1.00  0.00     0.296 HD
ENDBRANCH   2   4
ENDBRANCH   1   2
BRANCH   1   6
ATOM      6  C   UNL     1       7.114  -1.397  -0.640  1.00  0.00     0.047 C 
BRANCH   6   7
ATOM      7  C   UNL     1       6.370  -0.228  -0.134  1.00  0.00    -0.047 A 
ATOM      8  C   UNL     1       6.116   0.903  -0.868  1.00  0.00     0.004 A 
ATOM      9  C   UNL     1       5.904  -0.279   1.158  1.00  0.00     0.004 A 
ATOM     10  C   UNL     1       5.411   1.953  -0.313  1.00  0.00     0.000 A 
ATOM     11  C   UNL     1       5.206   0.747   1.725  1.00  0.00     0.000 A 
ATOM     12  C   UNL     1       4.951   1.883   0.987  1.00  0.00     0.000 A 
ENDBRANCH   6   7
ENDBRANCH   1   6
TORSDOF 4
ENDMDL
MODEL 4
REMARK VINA RESULT:      -6.8      3.377      5.081
REMARK SMILES O=C(O)CCc1ccccc1
REMARK SMILES IDX 4 1 2 2 1 3 3 4 5 6 6 7 7 8 11 9 8 10 10 11 9 12
REMARK H PARENT 3 5
REMARK Flexibility Score: inf
ROOT
ATOM      1  C   UNL     1       4.991   1.789   0.714  1.00  0.00     0.127 C 
ENDROOT
BRANCH   1   2
ATOM      2  C   UNL     1       4.489   1.103   1.928  1.00  0.00     0.303 C 
ATOM      3  O   UNL     1       5.159   0.215   2.478  1.00  0.00    -0.252 OA
BRANCH   2   4
ATOM      4  O   UNL     1       3.261   1.456   2.452  1.00  0.00    -0.481 OA
ATOM      5  H   UNL     1       2.491   0.797   2.523  1.00  0.00     0.296 HD
ENDBRANCH   2   4
ENDBRANCH   1   2
BRANCH   1   6
ATOM      6  C   UNL     1       6.499   1.840   0.719  1.00  0.00     0.047 C 
BRANCH   6   7
ATOM      7  C   UNL     1       7.102   1.034  -0.361  1.00  0.00    -0.047 A 
ATOM      8  C   UNL     1       6.422   0.099  -1.098  1.00  0.00     0.004 A 
ATOM      9  C   UNL     1       8.432   1.238  -0.640  1.00  0.00     0.004 A 
ATOM     10  C   UNL     1       7.068  -0.611  -2.092  1.00  0.00     0.000 A 
ATOM     11  C   UNL     1       9.088   0.546  -1.616  1.00  0.00     0.000 A 
ATOM     12  C   UNL     1       8.405  -0.393  -2.358  1.00  0.00     0.000 A 
ENDBRANCH   6   7
ENDBRANCH   1   6
TORSDOF 4
ENDMDL
MODEL 5
REMARK VINA RESULT:      -6.7      1.961      2.676
REMARK SMILES O=C(O)CCc1ccccc1
REMARK SMILES IDX 4 1 2 2 1 3 3 4 5 6 6 7 7 8 11 9 8 10 10 11 9 12
REMARK H PARENT 3 5
REMARK Flexibility Score: inf
ROOT
ATOM      1  C   UNL     1       8.299   0.263  -2.150  1.00  0.00     0.127 C 
ENDROOT
BRANCH   1   2
ATOM      2  C   UNL     1       9.428   0.371  -1.196  1.00  0.00     0.303 C 
ATOM      3  O   UNL     1       9.495  -0.371  -0.204  1.00  0.00    -0.252 OA
BRANCH   2   4
ATOM      4  O   UNL     1      10.418   1.310  -1.414  1.00  0.00    -0.481 OA
ATOM      5  H   UNL     1      10.578   2.088  -0.780  1.00  0.00     0.296 HD
ENDBRANCH   2   4
ENDBRANCH   1   2
BRANCH   1   6
ATOM      6  C   UNL     1       7.178  -0.552  -1.554  1.00  0.00     0.047 C 
BRANCH   6   7
ATOM      7  C   UNL     1       6.388   0.202  -0.561  1.00  0.00    -0.047 A 
ATOM      8  C   UNL     1       6.155  -0.223   0.722  1.00  0.00     0.004 A 
ATOM      9  C   UNL     1       5.853   1.406  -0.953  1.00  0.00     0.004 A 
ATOM     10  C   UNL     1       5.401   0.547   1.587  1.00  0.00     0.000 A 
ATOM     11  C   UNL     1       5.106   2.180  -0.115  1.00  0.00     0.000 A 
ATOM     12  C   UNL     1       4.872   1.754   1.175  1.00  0.00     0.000 A 
ENDBRANCH   6   7
ENDBRANCH   1   6
TORSDOF 4
ENDMDL
