@<TRIPOS>MOLECULE
/home/cewinharhar/GITHUB/reincatalyze/data/processed/docking_pred/2023-Apr-25-1630_maxeplen5_maxtrainstep200_exh32_gamma099_lrac3e-4_lrcr1e-3/fd751eb3811fc03d22e30b1993ea0072812fb772_ligand_2.pdbqt
 12 12 0 0 0
SMALL
GASTEIGER

@<TRIPOS>ATOM
      1  C          7.2980   -1.3700   -2.1370 C.3     1  UNL1        0.1270
      2  C          8.7390   -1.3850   -2.4840 C.2     1  UNL1        0.3030
      3  O          9.2170   -2.2980   -3.1750 O.2     1  UNL1       -0.2520
      4  O          9.5590   -0.3690   -2.0340 O.3     1  UNL1       -0.4810
      5  H         10.5350   -0.2960   -2.3080 H       1  UNL1        0.2960
      6  C          7.1140   -1.3970   -0.6400 C.3     1  UNL1        0.0470
      7  C          6.3700   -0.2280   -0.1340 C.2     1  UNL1       -0.0470
      8  C          6.1160    0.9030   -0.8680 C.2     1  UNL1        0.0040
      9  C          5.9040   -0.2790    1.1580 C.2     1  UNL1        0.0040
     10  C          5.4110    1.9530   -0.3130 C.2     1  UNL1        0.0000
     11  C          5.2060    0.7470    1.7250 C.2     1  UNL1        0.0000
     12  C          4.9510    1.8830    0.9870 C.2     1  UNL1        0.0000
@<TRIPOS>BOND
     1     3     2    2
     2     2     1    1
     3     2     4    1
     4     5     4    1
     5     1     6    1
     6     8    10    1
     7     8     7    2
     8     6     7    1
     9    10    12    2
    10     7     9    1
    11    12    11    1
    12     9    11    2
