@<TRIPOS>MOLECULE
/home/cewinharhar/GITHUB/reincatalyze/data/processed/docking_pred/2023-Apr-25-1630_maxeplen5_maxtrainstep200_exh32_gamma099_lrac3e-4_lrcr1e-3/fd751eb3811fc03d22e30b1993ea0072812fb772_ligand_2.pdbqt
 12 12 0 0 0
SMALL
GASTEIGER

@<TRIPOS>ATOM
      1  C          4.9910    1.7890    0.7140 C.3     1  UNL1        0.1270
      2  C          4.4890    1.1030    1.9280 C.2     1  UNL1        0.3030
      3  O          5.1590    0.2150    2.4780 O.2     1  UNL1       -0.2520
      4  O          3.2610    1.4560    2.4520 O.3     1  UNL1       -0.4810
      5  H          2.4910    0.7970    2.5230 H       1  UNL1        0.2960
      6  C          6.4990    1.8400    0.7190 C.3     1  UNL1        0.0470
      7  C          7.1020    1.0340   -0.3610 C.2     1  UNL1       -0.0470
      8  C          6.4220    0.0990   -1.0980 C.2     1  UNL1        0.0040
      9  C          8.4320    1.2380   -0.6400 C.2     1  UNL1        0.0040
     10  C          7.0680   -0.6110   -2.0920 C.2     1  UNL1        0.0000
     11  C          9.0880    0.5460   -1.6160 C.2     1  UNL1        0.0000
     12  C          8.4050   -0.3930   -2.3580 C.2     1  UNL1        0.0000
@<TRIPOS>BOND
     1    12    10    2
     2    12    11    1
     3    10     8    1
     4    11     9    2
     5     8     7    2
     6     9     7    1
     7     7     6    1
     8     1     6    1
     9     1     2    1
    10     2     4    1
    11     2     3    2
    12     4     5    1
