@<TRIPOS>MOLECULE
/home/cewinharhar/GITHUB/reincatalyze/data/processed/docking_pred/2023-Apr-25-1630_maxeplen5_maxtrainstep200_exh32_gamma099_lrac3e-4_lrcr1e-3/fd751eb3811fc03d22e30b1993ea0072812fb772_ligand_2.pdbqt
 12 12 0 0 0
SMALL
GASTEIGER

@<TRIPOS>ATOM
      1  C          8.2990    0.2630   -2.1500 C.3     1  UNL1        0.1270
      2  C          9.4280    0.3710   -1.1960 C.2     1  UNL1        0.3030
      3  O          9.4950   -0.3710   -0.2040 O.2     1  UNL1       -0.2520
      4  O         10.4180    1.3100   -1.4140 O.3     1  UNL1       -0.4810
      5  H         10.5780    2.0880   -0.7800 H       1  UNL1        0.2960
      6  C          7.1780   -0.5520   -1.5540 C.3     1  UNL1        0.0470
      7  C          6.3880    0.2020   -0.5610 C.2     1  UNL1       -0.0470
      8  C          6.1550   -0.2230    0.7220 C.2     1  UNL1        0.0040
      9  C          5.8530    1.4060   -0.9530 C.2     1  UNL1        0.0040
     10  C          5.4010    0.5470    1.5870 C.2     1  UNL1        0.0000
     11  C          5.1060    2.1800   -0.1150 C.2     1  UNL1        0.0000
     12  C          4.8720    1.7540    1.1750 C.2     1  UNL1        0.0000
@<TRIPOS>BOND
     1     1     6    1
     2     1     2    1
     3     6     7    1
     4     4     2    1
     5     4     5    1
     6     2     3    2
     7     9     7    2
     8     9    11    1
     9     7     8    1
    10    11    12    2
    11     8    10    2
    12    12    10    1
