@<TRIPOS>MOLECULE
/home/cewinharhar/GITHUB/reincatalyze/data/processed/docking_pred/2023-Apr-25-1630_maxeplen5_maxtrainstep200_exh32_gamma099_lrac3e-4_lrcr1e-3/fd751eb3811fc03d22e30b1993ea0072812fb772_ligand_2.pdbqt
 12 12 0 0 0
SMALL
GASTEIGER

@<TRIPOS>ATOM
      1  C          8.4380   -0.6280   -2.1750 C.3     1  UNL1        0.1270
      2  C          8.4800   -1.9110   -2.9150 C.2     1  UNL1        0.3030
      3  O          9.5560   -2.4990   -3.1060 O.2     1  UNL1       -0.2520
      4  O          7.3080   -2.4590   -3.3990 O.3     1  UNL1       -0.4810
      5  H          7.0010   -2.3260   -4.3580 H       1  UNL1        0.2960
      6  C          7.0300   -0.0890   -2.1290 C.3     1  UNL1        0.0470
      7  C          6.4970    0.0030   -0.7560 C.2     1  UNL1       -0.0470
      8  C          6.6040   -0.9910    0.1820 C.2     1  UNL1        0.0040
      9  C          5.8510    1.1640   -0.4000 C.2     1  UNL1        0.0040
     10  C          6.0740   -0.8190    1.4460 C.2     1  UNL1        0.0000
     11  C          5.3200    1.3530    0.8420 C.2     1  UNL1        0.0000
     12  C          5.4280    0.3540    1.7860 C.2     1  UNL1        0.0000
@<TRIPOS>BOND
     1     5     4    1
     2     4     2    1
     3     3     2    2
     4     2     1    1
     5     1     6    1
     6     6     7    1
     7     7     9    2
     8     7     8    1
     9     9    11    1
    10     8    10    2
    11    11    12    2
    12    10    12    1
