@<TRIPOS>MOLECULE
/home/cewinharhar/GITHUB/reincatalyze/data/processed/docking_pred/2023-Apr-25-1630_maxeplen5_maxtrainstep200_exh32_gamma099_lrac3e-4_lrcr1e-3/ff0363d9ee1910d446632d9597fe578fef33cb13_ligand_2.pdbqt
 12 12 0 0 0
SMALL
GASTEIGER

@<TRIPOS>ATOM
      1  C          5.4180    2.9040    0.0320 C.3     1  UNL1        0.1270
      2  C          6.2220    3.8330    0.8610 C.2     1  UNL1        0.3030
      3  O          6.1820    3.7760    2.1000 O.2     1  UNL1       -0.2520
      4  O          7.0270    4.7730    0.2470 O.3     1  UNL1       -0.4810
      5  H          7.5370    4.5760   -0.6100 H       1  UNL1        0.2960
      6  C          4.8460    1.7960    0.8810 C.3     1  UNL1        0.0470
      7  C          5.6750    0.5760    0.8650 C.2     1  UNL1       -0.0470
      8  C          6.3520    0.1170   -0.2350 C.2     1  UNL1        0.0040
      9  C          5.7690   -0.1460    2.0320 C.2     1  UNL1        0.0040
     10  C          7.1050   -1.0390   -0.1610 C.2     1  UNL1        0.0000
     11  C          6.5070   -1.2890    2.1260 C.2     1  UNL1        0.0000
     12  C          7.1890   -1.7500    1.0200 C.2     1  UNL1        0.0000
@<TRIPOS>BOND
     1     5     4    1
     2     8    10    1
     3     8     7    2
     4    10    12    2
     5     1     2    1
     6     1     6    1
     7     4     2    1
     8     2     3    2
     9     7     6    1
    10     7     9    1
    11    12    11    1
    12     9    11    2
