@<TRIPOS>MOLECULE
/home/cewinharhar/GITHUB/reincatalyze/data/processed/docking_pred/2023-Apr-25-1630_maxeplen5_maxtrainstep200_exh32_gamma099_lrac3e-4_lrcr1e-3/ff0363d9ee1910d446632d9597fe578fef33cb13_ligand_2.pdbqt
 12 12 0 0 0
SMALL
GASTEIGER

@<TRIPOS>ATOM
      1  C          8.4370   -0.6170   -2.1820 C.3     1  UNL1        0.1270
      2  C          8.4850   -1.9010   -2.9200 C.2     1  UNL1        0.3030
      3  O          9.5610   -2.4940   -3.0940 O.2     1  UNL1       -0.2520
      4  O          7.3180   -2.4440   -3.4220 O.3     1  UNL1       -0.4810
      5  H          6.9150   -3.3010   -3.0540 H       1  UNL1        0.2960
      6  C          7.0280   -0.0780   -2.1470 C.3     1  UNL1        0.0470
      7  C          6.4900    0.0270   -0.7770 C.2     1  UNL1       -0.0470
      8  C          6.5930   -0.9580    0.1710 C.2     1  UNL1        0.0040
      9  C          5.8440    1.1910   -0.4340 C.2     1  UNL1        0.0040
     10  C          6.0580   -0.7740    1.4320 C.2     1  UNL1        0.0000
     11  C          5.3080    1.3920    0.8040 C.2     1  UNL1        0.0000
     12  C          5.4120    0.4020    1.7570 C.2     1  UNL1        0.0000
@<TRIPOS>BOND
     1     4     5    1
     2     4     2    1
     3     3     2    2
     4     2     1    1
     5     1     6    1
     6     6     7    1
     7     7     9    2
     8     7     8    1
     9     9    11    1
    10     8    10    2
    11    11    12    2
    12    10    12    1
