@<TRIPOS>MOLECULE
/home/cewinharhar/GITHUB/reincatalyze/data/processed/docking_pred/2023-Apr-25-1630_maxeplen5_maxtrainstep200_exh32_gamma099_lrac3e-4_lrcr1e-3/ff0363d9ee1910d446632d9597fe578fef33cb13_ligand_2.pdbqt
 12 12 0 0 0
SMALL
GASTEIGER

@<TRIPOS>ATOM
      1  C          5.0550    1.7400    0.7050 C.3     1  UNL1        0.1270
      2  C          4.6030    1.0370    1.9290 C.2     1  UNL1        0.3030
      3  O          5.3210    0.1820    2.4720 O.2     1  UNL1       -0.2520
      4  O          3.3680    1.3350    2.4710 O.3     1  UNL1       -0.4810
      5  H          3.1750    2.2230    2.9260 H       1  UNL1        0.2960
      6  C          6.5560    1.8890    0.7030 C.3     1  UNL1        0.0470
      7  C          7.2070    1.1050   -0.3640 C.2     1  UNL1       -0.0470
      8  C          8.5410    1.1830   -0.6740 C.2     1  UNL1        0.0040
      9  C          6.4210    0.2440   -1.0920 C.2     1  UNL1        0.0040
     10  C          9.0670    0.4110   -1.6920 C.2     1  UNL1        0.0000
     11  C          6.9220   -0.5250   -2.1010 C.2     1  UNL1        0.0000
     12  C          8.2620   -0.4480   -2.4120 C.2     1  UNL1        0.0000
@<TRIPOS>BOND
     1    12    11    2
     2    12    10    1
     3    11     9    1
     4    10     8    2
     5     9     7    2
     6     8     7    1
     7     7     6    1
     8     6     1    1
     9     1     2    1
    10     2     4    1
    11     2     3    2
    12     4     5    1
