@<TRIPOS>MOLECULE
/home/cewinharhar/GITHUB/reincatalyze/data/processed/docking_pred/2023-Apr-25-1630_maxeplen5_maxtrainstep200_exh32_gamma099_lrac3e-4_lrcr1e-3/ff0363d9ee1910d446632d9597fe578fef33cb13_ligand_2.pdbqt
 12 12 0 0 0
SMALL
GASTEIGER

@<TRIPOS>ATOM
      1  C          8.2470   -0.9760   -1.8290 C.3     1  UNL1        0.1270
      2  C          8.4220   -2.0420   -2.8450 C.2     1  UNL1        0.3030
      3  O          9.5490   -2.4890   -3.1080 O.2     1  UNL1       -0.2520
      4  O          7.3170   -2.5420   -3.5060 O.3     1  UNL1       -0.4810
      5  H          6.5620   -1.9450   -3.8320 H       1  UNL1        0.2960
      6  C          7.2520   -1.4040   -0.7800 C.3     1  UNL1        0.0470
      7  C          6.4770   -0.2740   -0.2320 C.2     1  UNL1       -0.0470
      8  C          6.1590    0.8590   -0.9380 C.2     1  UNL1        0.0040
      9  C          6.0490   -0.3660    1.0710 C.2     1  UNL1        0.0040
     10  C          5.4290    1.8700   -0.3440 C.2     1  UNL1        0.0000
     11  C          5.3280    0.6210    1.6750 C.2     1  UNL1        0.0000
     12  C          5.0080    1.7590    0.9660 C.2     1  UNL1        0.0000
@<TRIPOS>BOND
     1     5     4    1
     2     4     2    1
     3     3     2    2
     4     2     1    1
     5     1     6    1
     6     8    10    1
     7     8     7    2
     8     6     7    1
     9    10    12    2
    10     7     9    1
    11    12    11    1
    12     9    11    2
