MODEL 1
REMARK VINA RESULT:      -7.4      0.000      0.000
REMARK SMILES O=C(O)CCc1ccccc1
REMARK SMILES IDX 4 1 2 2 1 3 3 4 5 6 6 7 7 8 11 9 8 10 10 11 9 12
REMARK H PARENT 3 5
REMARK Flexibility Score: inf
ROOT
ATOM      1  C   UNL     1       8.437  -0.617  -2.182  1.00  0.00     0.127 C 
ENDROOT
BRANCH   1   2
ATOM      2  C   UNL     1       8.485  -1.901  -2.920  1.00  0.00     0.303 C 
ATOM      3  O   UNL     1       9.561  -2.494  -3.094  1.00  0.00    -0.252 OA
BRANCH   2   4
ATOM      4  O   UNL     1       7.318  -2.444  -3.422  1.00  0.00    -0.481 OA
ATOM      5  H   UNL     1       6.915  -3.301  -3.054  1.00  0.00     0.296 HD
ENDBRANCH   2   4
ENDBRANCH   1   2
BRANCH   1   6
ATOM      6  C   UNL     1       7.028  -0.078  -2.147  1.00  0.00     0.047 C 
BRANCH   6   7
ATOM      7  C   UNL     1       6.490   0.027  -0.777  1.00  0.00    -0.047 A 
ATOM      8  C   UNL     1       6.593  -0.958   0.171  1.00  0.00     0.004 A 
ATOM      9  C   UNL     1       5.844   1.191  -0.434  1.00  0.00     0.004 A 
ATOM     10  C   UNL     1       6.058  -0.774   1.432  1.00  0.00     0.000 A 
ATOM     11  C   UNL     1       5.308   1.392   0.804  1.00  0.00     0.000 A 
ATOM     12  C   UNL     1       5.412   0.402   1.757  1.00  0.00     0.000 A 
ENDBRANCH   6   7
ENDBRANCH   1   6
TORSDOF 4
ENDMDL
MODEL 2
REMARK VINA RESULT:      -7.3      0.070      1.428
REMARK SMILES O=C(O)CCc1ccccc1
REMARK SMILES IDX 4 1 2 2 1 3 3 4 5 6 6 7 7 8 11 9 8 10 10 11 9 12
REMARK H PARENT 3 5
REMARK Flexibility Score: inf
ROOT
ATOM      1  C   UNL     1       8.426  -0.685  -2.097  1.00  0.00     0.127 C 
ENDROOT
BRANCH   1   2
ATOM      2  C   UNL     1       8.481  -1.931  -2.897  1.00  0.00     0.303 C 
ATOM      3  O   UNL     1       9.559  -2.512  -3.096  1.00  0.00    -0.252 OA
BRANCH   2   4
ATOM      4  O   UNL     1       7.317  -2.453  -3.428  1.00  0.00    -0.481 OA
ATOM      5  H   UNL     1       6.481  -2.598  -2.868  1.00  0.00     0.296 HD
ENDBRANCH   2   4
ENDBRANCH   1   2
BRANCH   1   6
ATOM      6  C   UNL     1       7.042  -0.088  -2.140  1.00  0.00     0.047 C 
BRANCH   6   7
ATOM      7  C   UNL     1       6.466   0.121  -0.797  1.00  0.00    -0.047 A 
ATOM      8  C   UNL     1       5.813   1.261  -0.406  1.00  0.00     0.004 A 
ATOM      9  C   UNL     1       6.598  -0.896   0.118  1.00  0.00     0.004 A 
ATOM     10  C   UNL     1       5.305   1.372   0.874  1.00  0.00     0.000 A 
ATOM     11  C   UNL     1       6.105  -0.807   1.386  1.00  0.00     0.000 A 
ATOM     12  C   UNL     1       5.447   0.339   1.779  1.00  0.00     0.000 A 
ENDBRANCH   6   7
ENDBRANCH   1   6
TORSDOF 4
ENDMDL
MODEL 3
REMARK VINA RESULT:      -7.2      0.663      1.606
REMARK SMILES O=C(O)CCc1ccccc1
REMARK SMILES IDX 4 1 2 2 1 3 3 4 5 6 6 7 7 8 11 9 8 10 10 11 9 12
REMARK H PARENT 3 5
REMARK Flexibility Score: inf
ROOT
ATOM      1  C   UNL     1       8.247  -0.976  -1.829  1.00  0.00     0.127 C 
ENDROOT
BRANCH   1   2
ATOM      2  C   UNL     1       8.422  -2.042  -2.845  1.00  0.00     0.303 C 
ATOM      3  O   UNL     1       9.549  -2.489  -3.108  1.00  0.00    -0.252 OA
BRANCH   2   4
ATOM      4  O   UNL     1       7.317  -2.542  -3.506  1.00  0.00    -0.481 OA
ATOM      5  H   UNL     1       6.562  -1.945  -3.832  1.00  0.00     0.296 HD
ENDBRANCH   2   4
ENDBRANCH   1   2
BRANCH   1   6
ATOM      6  C   UNL     1       7.252  -1.404  -0.780  1.00  0.00     0.047 C 
BRANCH   6   7
ATOM      7  C   UNL     1       6.477  -0.274  -0.232  1.00  0.00    -0.047 A 
ATOM      8  C   UNL     1       6.159   0.859  -0.938  1.00  0.00     0.004 A 
ATOM      9  C   UNL     1       6.049  -0.366   1.071  1.00  0.00     0.004 A 
ATOM     10  C   UNL     1       5.429   1.870  -0.344  1.00  0.00     0.000 A 
ATOM     11  C   UNL     1       5.328   0.621   1.675  1.00  0.00     0.000 A 
ATOM     12  C   UNL     1       5.008   1.759   0.966  1.00  0.00     0.000 A 
ENDBRANCH   6   7
ENDBRANCH   1   6
TORSDOF 4
ENDMDL
MODEL 4
REMARK VINA RESULT:      -6.7      3.342      5.039
REMARK SMILES O=C(O)CCc1ccccc1
REMARK SMILES IDX 4 1 2 2 1 3 3 4 5 6 6 7 7 8 11 9 8 10 10 11 9 12
REMARK H PARENT 3 5
REMARK Flexibility Score: inf
ROOT
ATOM      1  C   UNL     1       5.055   1.740   0.705  1.00  0.00     0.127 C 
ENDROOT
BRANCH   1   2
ATOM      2  C   UNL     1       4.603   1.037   1.929  1.00  0.00     0.303 C 
ATOM      3  O   UNL     1       5.321   0.182   2.472  1.00  0.00    -0.252 OA
BRANCH   2   4
ATOM      4  O   UNL     1       3.368   1.335   2.471  1.00  0.00    -0.481 OA
ATOM      5  H   UNL     1       3.175   2.223   2.926  1.00  0.00     0.296 HD
ENDBRANCH   2   4
ENDBRANCH   1   2
BRANCH   1   6
ATOM      6  C   UNL     1       6.556   1.889   0.703  1.00  0.00     0.047 C 
BRANCH   6   7
ATOM      7  C   UNL     1       7.207   1.105  -0.364  1.00  0.00    -0.047 A 
ATOM      8  C   UNL     1       8.541   1.183  -0.674  1.00  0.00     0.004 A 
ATOM      9  C   UNL     1       6.421   0.244  -1.092  1.00  0.00     0.004 A 
ATOM     10  C   UNL     1       9.067   0.411  -1.692  1.00  0.00     0.000 A 
ATOM     11  C   UNL     1       6.922  -0.525  -2.101  1.00  0.00     0.000 A 
ATOM     12  C   UNL     1       8.262  -0.448  -2.412  1.00  0.00     0.000 A 
ENDBRANCH   6   7
ENDBRANCH   1   6
TORSDOF 4
ENDMDL
MODEL 5
REMARK VINA RESULT:      -6.7      3.818      4.998
REMARK SMILES O=C(O)CCc1ccccc1
REMARK SMILES IDX 4 1 2 2 1 3 3 4 5 6 6 7 7 8 11 9 8 10 10 11 9 12
REMARK H PARENT 3 5
REMARK Flexibility Score: inf
ROOT
ATOM      1  C   UNL     1       5.418   2.904   0.032  1.00  0.00     0.127 C 
ENDROOT
BRANCH   1   2
ATOM      2  C   UNL     1       6.222   3.833   0.861  1.00  0.00     0.303 C 
ATOM      3  O   UNL     1       6.182   3.776   2.100  1.00  0.00    -0.252 OA
BRANCH   2   4
ATOM      4  O   UNL     1       7.027   4.773   0.247  1.00  0.00    -0.481 OA
ATOM      5  H   UNL     1       7.537   4.576  -0.610  1.00  0.00     0.296 HD
ENDBRANCH   2   4
ENDBRANCH   1   2
BRANCH   1   6
ATOM      6  C   UNL     1       4.846   1.796   0.881  1.00  0.00     0.047 C 
BRANCH   6   7
ATOM      7  C   UNL     1       5.675   0.576   0.865  1.00  0.00    -0.047 A 
ATOM      8  C   UNL     1       6.352   0.117  -0.235  1.00  0.00     0.004 A 
ATOM      9  C   UNL     1       5.769  -0.146   2.032  1.00  0.00     0.004 A 
ATOM     10  C   UNL     1       7.105  -1.039  -0.161  1.00  0.00     0.000 A 
ATOM     11  C   UNL     1       6.507  -1.289   2.126  1.00  0.00     0.000 A 
ATOM     12  C   UNL     1       7.189  -1.750   1.020  1.00  0.00     0.000 A 
ENDBRANCH   6   7
ENDBRANCH   1   6
TORSDOF 4
ENDMDL
