@<TRIPOS>MOLECULE
/home/cewinharhar/GITHUB/reincatalyze/data/processed/docking_pred/2023-Apr-25-1630_maxeplen5_maxtrainstep200_exh32_gamma099_lrac3e-4_lrcr1e-3/ff0363d9ee1910d446632d9597fe578fef33cb13_ligand_2.pdbqt
 12 12 0 0 0
SMALL
GASTEIGER

@<TRIPOS>ATOM
      1  C          8.4260   -0.6850   -2.0970 C.3     1  UNL1        0.1270
      2  C          8.4810   -1.9310   -2.8970 C.2     1  UNL1        0.3030
      3  O          9.5590   -2.5120   -3.0960 O.2     1  UNL1       -0.2520
      4  O          7.3170   -2.4530   -3.4280 O.3     1  UNL1       -0.4810
      5  H          6.4810   -2.5980   -2.8680 H       1  UNL1        0.2960
      6  C          7.0420   -0.0880   -2.1400 C.3     1  UNL1        0.0470
      7  C          6.4660    0.1210   -0.7970 C.2     1  UNL1       -0.0470
      8  C          5.8130    1.2610   -0.4060 C.2     1  UNL1        0.0040
      9  C          6.5980   -0.8960    0.1180 C.2     1  UNL1        0.0040
     10  C          5.3050    1.3720    0.8740 C.2     1  UNL1        0.0000
     11  C          6.1050   -0.8070    1.3860 C.2     1  UNL1        0.0000
     12  C          5.4470    0.3390    1.7790 C.2     1  UNL1        0.0000
@<TRIPOS>BOND
     1     4     2    1
     2     4     5    1
     3     3     2    2
     4     2     1    1
     5     6     1    1
     6     6     7    1
     7     7     8    2
     8     7     9    1
     9     8    10    1
    10     9    11    2
    11    10    12    2
    12    11    12    1
