REMARK SMILES COc1cc(CCC(=O)O)ccc1O
REMARK SMILES IDX 6 1 5 2 3 3 4 4 13 5 12 6 11 7 2 8 1 9 14 10 7 12 8 13 9 14
REMARK SMILES IDX 10 15
REMARK H PARENT 14 11 10 16
REMARK Flexibility Score: inf
ROOT
ATOM      1  C   UNL     1       1.761   0.447   0.005  1.00  0.00     0.047 C 
ENDROOT
BRANCH   1   2
ATOM      2  C   UNL     1       0.386   0.221   0.552  1.00  0.00    -0.043 A 
ATOM      3  C   UNL     1      -1.992   0.177   0.294  1.00  0.00     0.160 A 
ATOM      4  C   UNL     1      -0.736   0.391  -0.230  1.00  0.00     0.054 A 
ATOM      5  C   UNL     1      -2.148  -0.211   1.608  1.00  0.00     0.157 A 
ATOM      6  C   UNL     1      -1.023  -0.388   2.415  1.00  0.00     0.050 A 
ATOM      7  C   UNL     1       0.218  -0.166   1.860  1.00  0.00     0.008 A 
BRANCH   3   8
ATOM      8  O   UNL     1      -3.137   0.340  -0.467  1.00  0.00    -0.493 OA
ATOM      9  C   UNL     1      -3.072   0.736  -1.827  1.00  0.00     0.278 C 
ENDBRANCH   3   8
BRANCH   5  10
ATOM     10  O   UNL     1      -3.410  -0.428   2.142  1.00  0.00    -0.504 OA
ATOM     11  H   UNL     1      -4.215  -0.295   1.545  1.00  0.00     0.293 HD
ENDBRANCH   5  10
ENDBRANCH   1   2
BRANCH   1  12
ATOM     12  C   UNL     1       2.273  -0.852  -0.568  1.00  0.00     0.127 C 
BRANCH  12  13
ATOM     13  C   UNL     1       3.617  -0.740  -1.132  1.00  0.00     0.303 C 
ATOM     14  O   UNL     1       4.146  -1.762  -1.638  1.00  0.00    -0.252 OA
BRANCH  13  15
ATOM     15  O   UNL     1       4.343   0.427  -1.141  1.00  0.00    -0.481 OA
ATOM     16  H   UNL     1       4.898   0.760  -0.366  1.00  0.00     0.296 HD
ENDBRANCH  13  15
ENDBRANCH  12  13
ENDBRANCH   1  12
TORSDOF 6
