REMARK SMILES O=C(O)Cc1ccccc1
REMARK SMILES IDX 4 1 2 2 1 3 3 4 5 6 6 7 10 8 7 9 9 10 8 11
REMARK H PARENT 3 5
REMARK Flexibility Score: inf
ROOT
ATOM      1  C   UNL     1       1.522  -0.550  -0.328  1.00  0.00     0.158 C 
ENDROOT
BRANCH   1   2
ATOM      2  C   UNL     1       2.244   0.740  -0.318  1.00  0.00     0.307 C 
ATOM      3  O   UNL     1       1.618   1.813  -0.130  1.00  0.00    -0.252 OA
BRANCH   2   4
ATOM      4  O   UNL     1       3.613   0.845  -0.508  1.00  0.00    -0.481 OA
ATOM      5  H   UNL     1       4.166   1.016   0.336  1.00  0.00     0.296 HD
ENDBRANCH   2   4
ENDBRANCH   1   2
BRANCH   1   6
ATOM      6  C   UNL     1       0.070  -0.355  -0.098  1.00  0.00    -0.037 A 
ATOM      7  C   UNL     1      -0.463  -0.366   1.179  1.00  0.00     0.004 A 
ATOM      8  C   UNL     1      -0.813  -0.155  -1.145  1.00  0.00     0.004 A 
ATOM      9  C   UNL     1      -1.811  -0.187   1.416  1.00  0.00     0.000 A 
ATOM     10  C   UNL     1      -2.160   0.023  -0.900  1.00  0.00     0.000 A 
ATOM     11  C   UNL     1      -2.691   0.012   0.374  1.00  0.00     0.000 A 
ENDBRANCH   1   6
TORSDOF 3
