REMARK SMILES O=C(O)CCc1ccccc1
REMARK SMILES IDX 4 1 2 2 1 3 3 4 5 6 6 7 7 8 11 9 8 10 10 11 9 12
REMARK H PARENT 3 5
REMARK Flexibility Score: inf
ROOT
ATOM      1  C   UNL     1       1.725   0.272  -0.698  1.00  0.00     0.127 C 
ENDROOT
BRANCH   1   2
ATOM      2  C   UNL     1       3.124  -0.216  -0.669  1.00  0.00     0.303 C 
ATOM      3  O   UNL     1       3.429  -1.283  -0.081  1.00  0.00    -0.252 OA
BRANCH   2   4
ATOM      4  O   UNL     1       4.137   0.495  -1.292  1.00  0.00    -0.481 OA
ATOM      5  H   UNL     1       4.414   1.406  -0.916  1.00  0.00     0.296 HD
ENDBRANCH   2   4
ENDBRANCH   1   2
BRANCH   1   6
ATOM      6  C   UNL     1       0.871  -0.702   0.055  1.00  0.00     0.047 C 
BRANCH   6   7
ATOM      7  C   UNL     1      -0.544  -0.338   0.104  1.00  0.00    -0.047 A 
ATOM      8  C   UNL     1      -1.415  -0.768  -0.870  1.00  0.00     0.004 A 
ATOM      9  C   UNL     1      -1.001   0.442   1.141  1.00  0.00     0.004 A 
ATOM     10  C   UNL     1      -2.753  -0.383  -0.759  1.00  0.00     0.000 A 
ATOM     11  C   UNL     1      -2.324   0.822   1.249  1.00  0.00     0.000 A 
ATOM     12  C   UNL     1      -3.203   0.396   0.277  1.00  0.00     0.000 A 
ENDBRANCH   6   7
ENDBRANCH   1   6
TORSDOF 4
