REMARK SMILES COc1cccc(CCC(=O)O)c1
REMARK SMILES IDX 8 1 7 2 3 3 4 4 13 5 5 6 6 7 2 8 1 9 9 10 10 11 11 12 12 13
REMARK H PARENT 12 14
REMARK Flexibility Score: inf
ROOT
ATOM      1  C   UNL     1      -1.757  -0.002  -0.534  1.00  0.00     0.047 C 
ENDROOT
BRANCH   1   2
ATOM      2  C   UNL     1      -0.428   0.389  -0.103  1.00  0.00    -0.044 A 
ATOM      3  C   UNL     1       1.954  -0.063  -0.107  1.00  0.00     0.119 A 
ATOM      4  C   UNL     1       2.196   1.045   0.672  1.00  0.00     0.046 A 
ATOM      5  C   UNL     1       0.671  -0.388  -0.489  1.00  0.00     0.050 A 
ATOM      6  C   UNL     1       1.102   1.819   1.057  1.00  0.00     0.004 A 
ATOM      7  C   UNL     1      -0.182   1.496   0.676  1.00  0.00     0.004 A 
BRANCH   3   8
ATOM      8  O   UNL     1       3.012  -0.859  -0.512  1.00  0.00    -0.497 OA
ATOM      9  C   UNL     1       4.342  -0.532  -0.123  1.00  0.00     0.278 C 
ENDBRANCH   3   8
ENDBRANCH   1   2
BRANCH   1  10
ATOM     10  C   UNL     1      -2.488  -0.928   0.385  1.00  0.00     0.127 C 
BRANCH  10  11
ATOM     11  C   UNL     1      -3.825  -1.245  -0.170  1.00  0.00     0.303 C 
ATOM     12  O   UNL     1      -4.029  -2.086  -1.079  1.00  0.00    -0.252 OA
BRANCH  11  13
ATOM     13  O   UNL     1      -4.930  -0.575   0.343  1.00  0.00    -0.481 OA
ATOM     14  H   UNL     1      -5.027   0.441   0.278  1.00  0.00     0.296 HD
ENDBRANCH  11  13
ENDBRANCH  10  11
ENDBRANCH   1  10
TORSDOF 5
