@<TRIPOS>MOLECULE
/home/cewinharhar/GITHUB/reincatalyze/data/processed/docking_pred/2023-May-22-1902_sub9_nm5_bs15_s42_ex16_mel10_mts1000_k50_ec02_g099_lra9e-4_lrc1e-3/00fabcb6e86abbd64330e8a307762c5d347247e8_ligand_9.pdbqt
 14 15 0 0 0
SMALL
GASTEIGER

@<TRIPOS>ATOM
      1  C          5.4600    2.9020    0.0580 C.3     1  UNL1        0.0800
      2  C          6.2800    3.8040    0.9140 C.2     1  UNL1        0.1300
      3  C          7.2480    4.7700    0.3290 C.3     1  UNL1        0.0870
      4  O          6.1810    3.7740    2.1300 O.2     1  UNL1       -0.3000
      5  C          5.1550    1.5980    0.7660 C.3     1  UNL1        0.0430
      6  C          5.9890    0.4930    0.2610 C.2     1  UNL1       -0.0440
      7  C          6.3070   -0.6100    1.0610 C.2     1  UNL1        0.0080
      8  C          6.4710    0.5360   -1.0280 C.2     1  UNL1        0.0540
      9  C          7.0940   -1.6180    0.5330 C.2     1  UNL1        0.0510
     10  C          7.2660   -0.4850   -1.5570 C.2     1  UNL1        0.1660
     11  C          7.5800   -1.5710   -0.7700 C.2     1  UNL1        0.1650
     12  O          7.8580   -0.6730   -2.7880 O.2     1  UNL1       -0.4540
     13  O          8.3660   -2.4120   -1.5420 O.2     1  UNL1       -0.4540
     14  C          8.4920   -1.9240   -2.8570 C.3     1  UNL1        0.4680
@<TRIPOS>BOND
     1    14    12    1
     2    14    13    1
     3    12    10    1
     4    10     8    1
     5    10    11    2
     6    13    11    1
     7     8     6    2
     8    11     9    1
     9     1     5    1
    10     1     2    1
    11     6     5    1
    12     6     7    1
    13     3     2    1
    14     9     7    2
    15     2     4    2
