@<TRIPOS>MOLECULE
/home/cewinharhar/GITHUB/reincatalyze/data/processed/docking_pred/2023-May-22-1902_sub9_nm5_bs15_s42_ex16_mel10_mts1000_k50_ec02_g099_lra9e-4_lrc1e-3/00fabcb6e86abbd64330e8a307762c5d347247e8_ligand_9.pdbqt
 14 15 0 0 0
SMALL
GASTEIGER

@<TRIPOS>ATOM
      1  C          5.7590    1.3140   -0.3790 C.3     1  UNL1        0.0800
      2  C          5.1700    1.3160    0.9890 C.2     1  UNL1        0.1300
      3  C          5.3500    0.1690    1.9180 C.3     1  UNL1        0.0870
      4  O          4.5170    2.2670    1.3880 O.2     1  UNL1       -0.3000
      5  C          7.2580    1.0930   -0.3330 C.3     1  UNL1        0.0430
      6  C          7.6370   -0.2080   -0.9130 C.2     1  UNL1       -0.0440
      7  C          7.7370   -0.3910   -2.2970 C.2     1  UNL1        0.0080
      8  C          7.9020   -1.2740   -0.0840 C.2     1  UNL1        0.0540
      9  C          8.0980   -1.6340   -2.7850 C.2     1  UNL1        0.0510
     10  C          8.2670   -2.5280   -0.5820 C.2     1  UNL1        0.1660
     11  C          8.3650   -2.7100   -1.9440 C.2     1  UNL1        0.1650
     12  O          8.5760   -3.7270    0.0250 O.2     1  UNL1       -0.4540
     13  O          8.7370   -4.0300   -2.1460 O.2     1  UNL1       -0.4540
     14  C          8.9700   -4.6860   -0.9230 C.3     1  UNL1        0.4680
@<TRIPOS>BOND
     1     9     7    1
     2     9    11    2
     3     7     6    2
     4    13    11    1
     5    13    14    1
     6    11    10    1
     7    14    12    1
     8     6     5    1
     9     6     8    1
    10    10     8    2
    11    10    12    1
    12     1     5    1
    13     1     2    1
    14     2     4    2
    15     2     3    1
