MODEL 1
REMARK VINA RESULT:      -7.9      0.000      0.000
REMARK SMILES CC(=O)CCc1ccc2c(c1)OCO2
REMARK SMILES IDX 4 1 2 2 1 3 3 4 5 5 6 6 7 7 11 8 8 9 10 10 9 11 12 12 14 13
REMARK SMILES IDX 13 14
REMARK H PARENT
REMARK Flexibility Score: inf
ROOT
ATOM      1  C   UNL     1       5.460   2.902   0.058  1.00  0.00     0.080 C 
ENDROOT
BRANCH   1   2
ATOM      2  C   UNL     1       6.280   3.804   0.914  1.00  0.00     0.130 C 
ATOM      3  C   UNL     1       7.248   4.770   0.329  1.00  0.00     0.087 C 
ATOM      4  O   UNL     1       6.181   3.774   2.130  1.00  0.00    -0.300 OA
ENDBRANCH   1   2
BRANCH   1   5
ATOM      5  C   UNL     1       5.155   1.598   0.766  1.00  0.00     0.043 C 
BRANCH   5   6
ATOM      6  C   UNL     1       5.989   0.493   0.261  1.00  0.00    -0.044 A 
ATOM      7  C   UNL     1       6.307  -0.610   1.061  1.00  0.00     0.008 A 
ATOM      8  C   UNL     1       6.471   0.536  -1.028  1.00  0.00     0.054 A 
ATOM      9  C   UNL     1       7.094  -1.618   0.533  1.00  0.00     0.051 A 
ATOM     10  C   UNL     1       7.266  -0.485  -1.557  1.00  0.00     0.166 A 
ATOM     11  C   UNL     1       7.580  -1.571  -0.770  1.00  0.00     0.165 A 
ATOM     12  O   UNL     1       7.858  -0.673  -2.788  1.00  0.00    -0.454 OA
ATOM     13  O   UNL     1       8.366  -2.412  -1.542  1.00  0.00    -0.454 OA
ATOM     14  C   UNL     1       8.492  -1.924  -2.857  1.00  0.00     0.468 C 
ENDBRANCH   5   6
ENDBRANCH   1   5
TORSDOF 3
ENDMDL
MODEL 2
REMARK VINA RESULT:      -7.8      0.970      1.954
REMARK SMILES CC(=O)CCc1ccc2c(c1)OCO2
REMARK SMILES IDX 4 1 2 2 1 3 3 4 5 5 6 6 7 7 11 8 8 9 10 10 9 11 12 12 14 13
REMARK SMILES IDX 13 14
REMARK H PARENT
REMARK Flexibility Score: inf
ROOT
ATOM      1  C   UNL     1       5.482   2.894   0.210  1.00  0.00     0.080 C 
ENDROOT
BRANCH   1   2
ATOM      2  C   UNL     1       6.290   3.872   0.991  1.00  0.00     0.130 C 
ATOM      3  C   UNL     1       7.272   4.775   0.334  1.00  0.00     0.087 C 
ATOM      4  O   UNL     1       6.168   3.959   2.203  1.00  0.00    -0.300 OA
ENDBRANCH   1   2
BRANCH   1   5
ATOM      5  C   UNL     1       5.334   1.582   0.956  1.00  0.00     0.043 C 
BRANCH   5   6
ATOM      6  C   UNL     1       6.112   0.503   0.322  1.00  0.00    -0.044 A 
ATOM      7  C   UNL     1       6.401   0.514  -1.047  1.00  0.00     0.008 A 
ATOM      8  C   UNL     1       6.572  -0.545   1.086  1.00  0.00     0.054 A 
ATOM      9  C   UNL     1       7.136  -0.526  -1.587  1.00  0.00     0.051 A 
ATOM     10  C   UNL     1       7.315  -1.594   0.536  1.00  0.00     0.166 A 
ATOM     11  C   UNL     1       7.599  -1.584  -0.811  1.00  0.00     0.165 A 
ATOM     12  O   UNL     1       7.876  -2.732   1.076  1.00  0.00    -0.454 OA
ATOM     13  O   UNL     1       8.337  -2.728  -1.073  1.00  0.00    -0.454 OA
ATOM     14  C   UNL     1       8.613  -3.437   0.111  1.00  0.00     0.468 C 
ENDBRANCH   5   6
ENDBRANCH   1   5
TORSDOF 3
ENDMDL
MODEL 3
REMARK VINA RESULT:      -7.7      1.881      2.629
REMARK SMILES CC(=O)CCc1ccc2c(c1)OCO2
REMARK SMILES IDX 4 1 2 2 1 3 3 4 5 5 6 6 7 7 11 8 8 9 10 10 9 11 12 12 14 13
REMARK SMILES IDX 13 14
REMARK H PARENT
REMARK Flexibility Score: inf
ROOT
ATOM      1  C   UNL     1       5.544   1.920   1.270  1.00  0.00     0.080 C 
ENDROOT
BRANCH   1   2
ATOM      2  C   UNL     1       5.113   0.700   2.007  1.00  0.00     0.130 C 
ATOM      3  C   UNL     1       6.020  -0.465   2.186  1.00  0.00     0.087 C 
ATOM      4  O   UNL     1       3.995   0.621   2.489  1.00  0.00    -0.300 OA
ENDBRANCH   1   2
BRANCH   1   5
ATOM      5  C   UNL     1       5.415   1.732  -0.229  1.00  0.00     0.043 C 
BRANCH   5   6
ATOM      6  C   UNL     1       6.579   1.025  -0.792  1.00  0.00    -0.044 A 
ATOM      7  C   UNL     1       7.888   1.451  -0.540  1.00  0.00     0.008 A 
ATOM      8  C   UNL     1       6.386  -0.083  -1.586  1.00  0.00     0.054 A 
ATOM      9  C   UNL     1       8.942   0.748  -1.095  1.00  0.00     0.051 A 
ATOM     10  C   UNL     1       7.455  -0.791  -2.144  1.00  0.00     0.166 A 
ATOM     11  C   UNL     1       8.743  -0.372  -1.897  1.00  0.00     0.165 A 
ATOM     12  O   UNL     1       7.523  -1.905  -2.954  1.00  0.00    -0.454 OA
ATOM     13  O   UNL     1       9.585  -1.247  -2.566  1.00  0.00    -0.454 OA
ATOM     14  C   UNL     1       8.857  -2.287  -3.174  1.00  0.00     0.468 C 
ENDBRANCH   5   6
ENDBRANCH   1   5
TORSDOF 3
ENDMDL
MODEL 4
REMARK VINA RESULT:      -7.5      1.945      3.013
REMARK SMILES CC(=O)CCc1ccc2c(c1)OCO2
REMARK SMILES IDX 4 1 2 2 1 3 3 4 5 5 6 6 7 7 11 8 8 9 10 10 9 11 12 12 14 13
REMARK SMILES IDX 13 14
REMARK H PARENT
REMARK Flexibility Score: inf
ROOT
ATOM      1  C   UNL     1       5.759   1.314  -0.379  1.00  0.00     0.080 C 
ENDROOT
BRANCH   1   2
ATOM      2  C   UNL     1       5.170   1.316   0.989  1.00  0.00     0.130 C 
ATOM      3  C   UNL     1       5.350   0.169   1.918  1.00  0.00     0.087 C 
ATOM      4  O   UNL     1       4.517   2.267   1.388  1.00  0.00    -0.300 OA
ENDBRANCH   1   2
BRANCH   1   5
ATOM      5  C   UNL     1       7.258   1.093  -0.333  1.00  0.00     0.043 C 
BRANCH   5   6
ATOM      6  C   UNL     1       7.637  -0.208  -0.913  1.00  0.00    -0.044 A 
ATOM      7  C   UNL     1       7.737  -0.391  -2.297  1.00  0.00     0.008 A 
ATOM      8  C   UNL     1       7.902  -1.274  -0.084  1.00  0.00     0.054 A 
ATOM      9  C   UNL     1       8.098  -1.634  -2.785  1.00  0.00     0.051 A 
ATOM     10  C   UNL     1       8.267  -2.528  -0.582  1.00  0.00     0.166 A 
ATOM     11  C   UNL     1       8.365  -2.710  -1.944  1.00  0.00     0.165 A 
ATOM     12  O   UNL     1       8.576  -3.727   0.025  1.00  0.00    -0.454 OA
ATOM     13  O   UNL     1       8.737  -4.030  -2.146  1.00  0.00    -0.454 OA
ATOM     14  C   UNL     1       8.970  -4.686  -0.923  1.00  0.00     0.468 C 
ENDBRANCH   5   6
ENDBRANCH   1   5
TORSDOF 3
ENDMDL
MODEL 5
REMARK VINA RESULT:      -7.5      1.830      2.795
REMARK SMILES CC(=O)CCc1ccc2c(c1)OCO2
REMARK SMILES IDX 4 1 2 2 1 3 3 4 5 5 6 6 7 7 11 8 8 9 10 10 9 11 12 12 14 13
REMARK SMILES IDX 13 14
REMARK H PARENT
REMARK Flexibility Score: inf
ROOT
ATOM      1  C   UNL     1       6.464   1.044   1.064  1.00  0.00     0.080 C 
ENDROOT
BRANCH   1   2
ATOM      2  C   UNL     1       5.167   1.769   0.959  1.00  0.00     0.130 C 
ATOM      3  C   UNL     1       4.859   2.654  -0.196  1.00  0.00     0.087 C 
ATOM      4  O   UNL     1       4.314   1.658   1.825  1.00  0.00    -0.300 OA
ENDBRANCH   1   2
BRANCH   1   5
ATOM      5  C   UNL     1       7.287   1.202  -0.198  1.00  0.00     0.043 C 
BRANCH   5   6
ATOM      6  C   UNL     1       7.635  -0.102  -0.791  1.00  0.00    -0.044 A 
ATOM      7  C   UNL     1       7.693  -0.285  -2.177  1.00  0.00     0.008 A 
ATOM      8  C   UNL     1       7.915  -1.171   0.030  1.00  0.00     0.054 A 
ATOM      9  C   UNL     1       8.026  -1.531  -2.676  1.00  0.00     0.051 A 
ATOM     10  C   UNL     1       8.252  -2.429  -0.480  1.00  0.00     0.166 A 
ATOM     11  C   UNL     1       8.308  -2.610  -1.844  1.00  0.00     0.165 A 
ATOM     12  O   UNL     1       8.567  -3.631   0.117  1.00  0.00    -0.454 OA
ATOM     13  O   UNL     1       8.661  -3.933  -2.058  1.00  0.00    -0.454 OA
ATOM     14  C   UNL     1       8.923  -4.592  -0.842  1.00  0.00     0.468 C 
ENDBRANCH   5   6
ENDBRANCH   1   5
TORSDOF 3
ENDMDL
