@<TRIPOS>MOLECULE
/home/cewinharhar/GITHUB/reincatalyze/data/processed/docking_pred/2023-May-22-1902_sub9_nm5_bs15_s42_ex16_mel10_mts1000_k50_ec02_g099_lra9e-4_lrc1e-3/01f25cbd7413d58f388abe94d9cfceb48e05f66f_ligand_9.pdbqt
 14 15 0 0 0
SMALL
GASTEIGER

@<TRIPOS>ATOM
      1  C          5.4050    2.8790    0.1760 C.3     1  UNL1        0.0800
      2  C          6.2330    3.8260    0.9750 C.2     1  UNL1        0.1300
      3  C          7.1780    4.7740    0.3280 C.3     1  UNL1        0.0870
      4  O          6.1580    3.8490    2.1930 O.2     1  UNL1       -0.3000
      5  C          5.6530    1.4430    0.5940 C.3     1  UNL1        0.0430
      6  C          6.7110    0.8140   -0.2160 C.2     1  UNL1       -0.0440
      7  C          7.9900    1.3730   -0.3130 C.2     1  UNL1        0.0080
      8  C          6.4470   -0.3540   -0.8950 C.2     1  UNL1        0.0540
      9  C          8.9440    0.7370   -1.0870 C.2     1  UNL1        0.0510
     10  C          7.4140   -0.9930   -1.6760 C.2     1  UNL1        0.1660
     11  C          8.6730   -0.4430   -1.7730 C.2     1  UNL1        0.1650
     12  O          7.3990   -2.1440   -2.4360 O.2     1  UNL1       -0.4540
     13  O          9.4120   -1.2760   -2.5990 O.2     1  UNL1       -0.4540
     14  C          8.6700   -2.4140   -2.9680 C.3     1  UNL1        0.4680
@<TRIPOS>BOND
     1    14    13    1
     2    14    12    1
     3    13    11    1
     4    12    10    1
     5    11    10    2
     6    11     9    1
     7    10     8    1
     8     9     7    2
     9     8     6    2
    10     7     6    1
    11     6     5    1
    12     1     5    1
    13     1     2    1
    14     3     2    1
    15     2     4    2
