@<TRIPOS>MOLECULE
/home/cewinharhar/GITHUB/reincatalyze/data/processed/docking_pred/2023-May-22-1902_sub9_nm5_bs15_s42_ex16_mel10_mts1000_k50_ec02_g099_lra9e-4_lrc1e-3/01f25cbd7413d58f388abe94d9cfceb48e05f66f_ligand_9.pdbqt
 14 15 0 0 0
SMALL
GASTEIGER

@<TRIPOS>ATOM
      1  C          5.4230    1.1480    1.1490 C.3     1  UNL1        0.0800
      2  C          5.3800    2.5300    0.5960 C.2     1  UNL1        0.1300
      3  C          6.5630    3.4300    0.6510 C.3     1  UNL1        0.0870
      4  O          4.3650    2.9670    0.0780 O.2     1  UNL1       -0.3000
      5  C          6.8500    0.6900    1.3770 C.3     1  UNL1        0.0430
      6  C          7.2580   -0.3340    0.3990 C.2     1  UNL1       -0.0440
      7  C          7.1750   -0.1050   -0.9790 C.2     1  UNL1        0.0080
      8  C          7.7370   -1.5470    0.8400 C.2     1  UNL1        0.0540
      9  C          7.5740   -1.1030   -1.8500 C.2     1  UNL1        0.0510
     10  C          8.1390   -2.5520   -0.0440 C.2     1  UNL1        0.1660
     11  C          8.0560   -2.3280   -1.4010 C.2     1  UNL1        0.1650
     12  O          8.6400   -3.8220    0.1420 O.2     1  UNL1       -0.4540
     13  O          8.5150   -3.4780   -2.0250 O.2     1  UNL1       -0.4540
     14  C          8.9800   -4.4160   -1.0840 C.3     1  UNL1        0.4680
@<TRIPOS>BOND
     1    13    11    1
     2    13    14    1
     3     9    11    2
     4     9     7    1
     5    11    10    1
     6    14    12    1
     7     7     6    2
     8    10    12    1
     9    10     8    2
    10     4     2    2
    11     6     8    1
    12     6     5    1
    13     2     3    1
    14     2     1    1
    15     1     5    1
