@<TRIPOS>MOLECULE
/home/cewinharhar/GITHUB/reincatalyze/data/processed/docking_pred/2023-May-22-1902_sub9_nm5_bs15_s42_ex16_mel10_mts1000_k50_ec02_g099_lra9e-4_lrc1e-3/01f25cbd7413d58f388abe94d9cfceb48e05f66f_ligand_9.pdbqt
 14 15 0 0 0
SMALL
GASTEIGER

@<TRIPOS>ATOM
      1  C          5.7090    1.2790   -0.5330 C.3     1  UNL1        0.0800
      2  C          5.4130    2.3080    0.5030 C.2     1  UNL1        0.1300
      3  C          6.1660    3.5890    0.5680 C.3     1  UNL1        0.0870
      4  O          4.5380    2.1270    1.3340 O.2     1  UNL1       -0.3000
      5  C          7.2030    1.0900   -0.7100 C.3     1  UNL1        0.0430
      6  C          7.6180   -0.2920   -0.4100 C.2     1  UNL1       -0.0440
      7  C          7.7490   -0.7490    0.9060 C.2     1  UNL1        0.0080
      8  C          7.8840   -1.1630   -1.4420 C.2     1  UNL1        0.0540
      9  C          8.1420   -2.0560    1.1270 C.2     1  UNL1        0.0510
     10  C          8.2800   -2.4850   -1.2140 C.2     1  UNL1        0.1660
     11  C          8.4100   -2.9350    0.0810 C.2     1  UNL1        0.1650
     12  O          8.5970   -3.5290   -2.0560 O.2     1  UNL1       -0.4540
     13  O          8.8080   -4.2600    0.0060 O.2     1  UNL1       -0.4540
     14  C          8.8510   -4.7040   -1.3290 C.3     1  UNL1        0.4680
@<TRIPOS>BOND
     1    12    14    1
     2    12    10    1
     3     8    10    1
     4     8     6    2
     5    14    13    1
     6    10    11    2
     7     5     1    1
     8     5     6    1
     9     1     2    1
    10     6     7    1
    11    13    11    1
    12    11     9    1
    13     2     3    1
    14     2     4    2
    15     7     9    2
