MODEL 1
REMARK VINA RESULT:      -7.9      0.000      0.000
REMARK SMILES CC(=O)CCc1ccc2c(c1)OCO2
REMARK SMILES IDX 4 1 2 2 1 3 3 4 5 5 6 6 7 7 11 8 8 9 10 10 9 11 12 12 14 13
REMARK SMILES IDX 13 14
REMARK H PARENT
REMARK Flexibility Score: inf
ROOT
ATOM      1  C   UNL     1       5.405   2.879   0.176  1.00  0.00     0.080 C 
ENDROOT
BRANCH   1   2
ATOM      2  C   UNL     1       6.233   3.826   0.975  1.00  0.00     0.130 C 
ATOM      3  C   UNL     1       7.178   4.774   0.328  1.00  0.00     0.087 C 
ATOM      4  O   UNL     1       6.158   3.849   2.193  1.00  0.00    -0.300 OA
ENDBRANCH   1   2
BRANCH   1   5
ATOM      5  C   UNL     1       5.653   1.443   0.594  1.00  0.00     0.043 C 
BRANCH   5   6
ATOM      6  C   UNL     1       6.711   0.814  -0.216  1.00  0.00    -0.044 A 
ATOM      7  C   UNL     1       7.990   1.373  -0.313  1.00  0.00     0.008 A 
ATOM      8  C   UNL     1       6.447  -0.354  -0.895  1.00  0.00     0.054 A 
ATOM      9  C   UNL     1       8.944   0.737  -1.087  1.00  0.00     0.051 A 
ATOM     10  C   UNL     1       7.414  -0.993  -1.676  1.00  0.00     0.166 A 
ATOM     11  C   UNL     1       8.673  -0.443  -1.773  1.00  0.00     0.165 A 
ATOM     12  O   UNL     1       7.399  -2.144  -2.436  1.00  0.00    -0.454 OA
ATOM     13  O   UNL     1       9.412  -1.276  -2.599  1.00  0.00    -0.454 OA
ATOM     14  C   UNL     1       8.670  -2.414  -2.968  1.00  0.00     0.468 C 
ENDBRANCH   5   6
ENDBRANCH   1   5
TORSDOF 3
ENDMDL
MODEL 2
REMARK VINA RESULT:      -7.7      1.794      2.390
REMARK SMILES CC(=O)CCc1ccc2c(c1)OCO2
REMARK SMILES IDX 4 1 2 2 1 3 3 4 5 5 6 6 7 7 11 8 8 9 10 10 9 11 12 12 14 13
REMARK SMILES IDX 13 14
REMARK H PARENT
REMARK Flexibility Score: inf
ROOT
ATOM      1  C   UNL     1       5.723   1.219  -0.384  1.00  0.00     0.080 C 
ENDROOT
BRANCH   1   2
ATOM      2  C   UNL     1       5.333   2.305   0.558  1.00  0.00     0.130 C 
ATOM      3  C   UNL     1       6.111   3.569   0.659  1.00  0.00     0.087 C 
ATOM      4  O   UNL     1       4.355   2.187   1.279  1.00  0.00    -0.300 OA
ENDBRANCH   1   2
BRANCH   1   5
ATOM      5  C   UNL     1       7.231   1.111  -0.505  1.00  0.00     0.043 C 
BRANCH   5   6
ATOM      6  C   UNL     1       7.644  -0.202  -1.030  1.00  0.00    -0.044 A 
ATOM      7  C   UNL     1       7.829  -0.418  -2.401  1.00  0.00     0.008 A 
ATOM      8  C   UNL     1       7.859  -1.247  -0.161  1.00  0.00     0.054 A 
ATOM      9  C   UNL     1       8.219  -1.672  -2.836  1.00  0.00     0.051 A 
ATOM     10  C   UNL     1       8.254  -2.513  -0.606  1.00  0.00     0.166 A 
ATOM     11  C   UNL     1       8.435  -2.727  -1.954  1.00  0.00     0.165 A 
ATOM     12  O   UNL     1       8.526  -3.696   0.048  1.00  0.00    -0.454 OA
ATOM     13  O   UNL     1       8.819  -4.050  -2.102  1.00  0.00    -0.454 OA
ATOM     14  C   UNL     1       8.977  -4.676  -0.851  1.00  0.00     0.468 C 
ENDBRANCH   5   6
ENDBRANCH   1   5
TORSDOF 3
ENDMDL
MODEL 3
REMARK VINA RESULT:      -7.6      1.266      1.556
REMARK SMILES CC(=O)CCc1ccc2c(c1)OCO2
REMARK SMILES IDX 4 1 2 2 1 3 3 4 5 5 6 6 7 7 11 8 8 9 10 10 9 11 12 12 14 13
REMARK SMILES IDX 13 14
REMARK H PARENT
REMARK Flexibility Score: inf
ROOT
ATOM      1  C   UNL     1       5.690   2.529   0.702  1.00  0.00     0.080 C 
ENDROOT
BRANCH   1   2
ATOM      2  C   UNL     1       6.314   3.792   1.185  1.00  0.00     0.130 C 
ATOM      3  C   UNL     1       7.132   4.652   0.288  1.00  0.00     0.087 C 
ATOM      4  O   UNL     1       6.172   4.160   2.340  1.00  0.00    -0.300 OA
ENDBRANCH   1   2
BRANCH   1   5
ATOM      5  C   UNL     1       6.386   1.314   1.283  1.00  0.00     0.043 C 
BRANCH   5   6
ATOM      6  C   UNL     1       6.765   0.349   0.235  1.00  0.00    -0.044 A 
ATOM      7  C   UNL     1       6.479   0.582  -1.115  1.00  0.00     0.008 A 
ATOM      8  C   UNL     1       7.418  -0.812   0.581  1.00  0.00     0.054 A 
ATOM      9  C   UNL     1       6.859  -0.359  -2.054  1.00  0.00     0.051 A 
ATOM     10  C   UNL     1       7.801  -1.760  -0.372  1.00  0.00     0.166 A 
ATOM     11  C   UNL     1       7.519  -1.532  -1.701  1.00  0.00     0.165 A 
ATOM     12  O   UNL     1       8.450  -2.974  -0.283  1.00  0.00    -0.454 OA
ATOM     13  O   UNL     1       8.006  -2.621  -2.407  1.00  0.00    -0.454 OA
ATOM     14  C   UNL     1       8.684  -3.515  -1.557  1.00  0.00     0.468 C 
ENDBRANCH   5   6
ENDBRANCH   1   5
TORSDOF 3
ENDMDL
MODEL 4
REMARK VINA RESULT:      -7.6      1.902      2.259
REMARK SMILES CC(=O)CCc1ccc2c(c1)OCO2
REMARK SMILES IDX 4 1 2 2 1 3 3 4 5 5 6 6 7 7 11 8 8 9 10 10 9 11 12 12 14 13
REMARK SMILES IDX 13 14
REMARK H PARENT
REMARK Flexibility Score: inf
ROOT
ATOM      1  C   UNL     1       5.423   1.148   1.149  1.00  0.00     0.080 C 
ENDROOT
BRANCH   1   2
ATOM      2  C   UNL     1       5.380   2.530   0.596  1.00  0.00     0.130 C 
ATOM      3  C   UNL     1       6.563   3.430   0.651  1.00  0.00     0.087 C 
ATOM      4  O   UNL     1       4.365   2.967   0.078  1.00  0.00    -0.300 OA
ENDBRANCH   1   2
BRANCH   1   5
ATOM      5  C   UNL     1       6.850   0.690   1.377  1.00  0.00     0.043 C 
BRANCH   5   6
ATOM      6  C   UNL     1       7.258  -0.334   0.399  1.00  0.00    -0.044 A 
ATOM      7  C   UNL     1       7.175  -0.105  -0.979  1.00  0.00     0.008 A 
ATOM      8  C   UNL     1       7.737  -1.547   0.840  1.00  0.00     0.054 A 
ATOM      9  C   UNL     1       7.574  -1.103  -1.850  1.00  0.00     0.051 A 
ATOM     10  C   UNL     1       8.139  -2.552  -0.044  1.00  0.00     0.166 A 
ATOM     11  C   UNL     1       8.056  -2.328  -1.401  1.00  0.00     0.165 A 
ATOM     12  O   UNL     1       8.640  -3.822   0.142  1.00  0.00    -0.454 OA
ATOM     13  O   UNL     1       8.515  -3.478  -2.025  1.00  0.00    -0.454 OA
ATOM     14  C   UNL     1       8.980  -4.416  -1.084  1.00  0.00     0.468 C 
ENDBRANCH   5   6
ENDBRANCH   1   5
TORSDOF 3
ENDMDL
MODEL 5
REMARK VINA RESULT:      -7.5      2.070      2.454
REMARK SMILES CC(=O)CCc1ccc2c(c1)OCO2
REMARK SMILES IDX 4 1 2 2 1 3 3 4 5 5 6 6 7 7 11 8 8 9 10 10 9 11 12 12 14 13
REMARK SMILES IDX 13 14
REMARK H PARENT
REMARK Flexibility Score: inf
ROOT
ATOM      1  C   UNL     1       5.709   1.279  -0.533  1.00  0.00     0.080 C 
ENDROOT
BRANCH   1   2
ATOM      2  C   UNL     1       5.413   2.308   0.503  1.00  0.00     0.130 C 
ATOM      3  C   UNL     1       6.166   3.589   0.568  1.00  0.00     0.087 C 
ATOM      4  O   UNL     1       4.538   2.127   1.334  1.00  0.00    -0.300 OA
ENDBRANCH   1   2
BRANCH   1   5
ATOM      5  C   UNL     1       7.203   1.090  -0.710  1.00  0.00     0.043 C 
BRANCH   5   6
ATOM      6  C   UNL     1       7.618  -0.292  -0.410  1.00  0.00    -0.044 A 
ATOM      7  C   UNL     1       7.749  -0.749   0.906  1.00  0.00     0.008 A 
ATOM      8  C   UNL     1       7.884  -1.163  -1.442  1.00  0.00     0.054 A 
ATOM      9  C   UNL     1       8.142  -2.056   1.127  1.00  0.00     0.051 A 
ATOM     10  C   UNL     1       8.280  -2.485  -1.214  1.00  0.00     0.166 A 
ATOM     11  C   UNL     1       8.410  -2.935   0.081  1.00  0.00     0.165 A 
ATOM     12  O   UNL     1       8.597  -3.529  -2.056  1.00  0.00    -0.454 OA
ATOM     13  O   UNL     1       8.808  -4.260   0.006  1.00  0.00    -0.454 OA
ATOM     14  C   UNL     1       8.851  -4.704  -1.329  1.00  0.00     0.468 C 
ENDBRANCH   5   6
ENDBRANCH   1   5
TORSDOF 3
ENDMDL
