@<TRIPOS>MOLECULE
/home/cewinharhar/GITHUB/reincatalyze/data/processed/docking_pred/2023-May-22-1902_sub9_nm5_bs15_s42_ex16_mel10_mts1000_k50_ec02_g099_lra9e-4_lrc1e-3/01f25cbd7413d58f388abe94d9cfceb48e05f66f_ligand_9.pdbqt
 14 15 0 0 0
SMALL
GASTEIGER

@<TRIPOS>ATOM
      1  C          5.7230    1.2190   -0.3840 C.3     1  UNL1        0.0800
      2  C          5.3330    2.3050    0.5580 C.2     1  UNL1        0.1300
      3  C          6.1110    3.5690    0.6590 C.3     1  UNL1        0.0870
      4  O          4.3550    2.1870    1.2790 O.2     1  UNL1       -0.3000
      5  C          7.2310    1.1110   -0.5050 C.3     1  UNL1        0.0430
      6  C          7.6440   -0.2020   -1.0300 C.2     1  UNL1       -0.0440
      7  C          7.8290   -0.4180   -2.4010 C.2     1  UNL1        0.0080
      8  C          7.8590   -1.2470   -0.1610 C.2     1  UNL1        0.0540
      9  C          8.2190   -1.6720   -2.8360 C.2     1  UNL1        0.0510
     10  C          8.2540   -2.5130   -0.6060 C.2     1  UNL1        0.1660
     11  C          8.4350   -2.7270   -1.9540 C.2     1  UNL1        0.1650
     12  O          8.5260   -3.6960    0.0480 O.2     1  UNL1       -0.4540
     13  O          8.8190   -4.0500   -2.1020 O.2     1  UNL1       -0.4540
     14  C          8.9770   -4.6760   -0.8510 C.3     1  UNL1        0.4680
@<TRIPOS>BOND
     1     9     7    1
     2     9    11    2
     3     7     6    2
     4    13    11    1
     5    13    14    1
     6    11    10    1
     7     6     5    1
     8     6     8    1
     9    14    12    1
    10    10     8    2
    11    10    12    1
    12     5     1    1
    13     1     2    1
    14     2     3    1
    15     2     4    2
