MODEL 1
REMARK VINA RESULT:      -7.9      0.000      0.000
REMARK SMILES CC(=O)CCc1ccc2c(c1)OCO2
REMARK SMILES IDX 4 1 2 2 1 3 3 4 5 5 6 6 7 7 11 8 8 9 10 10 9 11 12 12 14 13
REMARK SMILES IDX 13 14
REMARK H PARENT
REMARK Flexibility Score: inf
ROOT
ATOM      1  C   UNL     1       5.468   2.909   0.210  1.00  0.00     0.080 C 
ENDROOT
BRANCH   1   2
ATOM      2  C   UNL     1       6.292   3.848   1.020  1.00  0.00     0.130 C 
ATOM      3  C   UNL     1       7.269   4.775   0.389  1.00  0.00     0.087 C 
ATOM      4  O   UNL     1       6.188   3.884   2.236  1.00  0.00    -0.300 OA
ENDBRANCH   1   2
BRANCH   1   5
ATOM      5  C   UNL     1       5.225   1.609   0.951  1.00  0.00     0.043 C 
BRANCH   5   6
ATOM      6  C   UNL     1       6.038   0.508   0.403  1.00  0.00    -0.044 A 
ATOM      7  C   UNL     1       6.441  -0.571   1.198  1.00  0.00     0.008 A 
ATOM      8  C   UNL     1       6.412   0.530  -0.921  1.00  0.00     0.054 A 
ATOM      9  C   UNL     1       7.202  -1.576   0.629  1.00  0.00     0.051 A 
ATOM     10  C   UNL     1       7.181  -0.489  -1.492  1.00  0.00     0.166 A 
ATOM     11  C   UNL     1       7.579  -1.550  -0.710  1.00  0.00     0.165 A 
ATOM     12  O   UNL     1       7.674  -0.694  -2.763  1.00  0.00    -0.454 OA
ATOM     13  O   UNL     1       8.316  -2.395  -1.526  1.00  0.00    -0.454 OA
ATOM     14  C   UNL     1       8.325  -1.936  -2.857  1.00  0.00     0.468 C 
ENDBRANCH   5   6
ENDBRANCH   1   5
TORSDOF 3
ENDMDL
MODEL 2
REMARK VINA RESULT:      -7.8      1.001      1.978
REMARK SMILES CC(=O)CCc1ccc2c(c1)OCO2
REMARK SMILES IDX 4 1 2 2 1 3 3 4 5 5 6 6 7 7 11 8 8 9 10 10 9 11 12 12 14 13
REMARK SMILES IDX 13 14
REMARK H PARENT
REMARK Flexibility Score: inf
ROOT
ATOM      1  C   UNL     1       5.570   2.840   0.002  1.00  0.00     0.080 C 
ENDROOT
BRANCH   1   2
ATOM      2  C   UNL     1       6.337   3.739   0.909  1.00  0.00     0.130 C 
ATOM      3  C   UNL     1       7.265   4.775   0.382  1.00  0.00     0.087 C 
ATOM      4  O   UNL     1       6.224   3.650   2.121  1.00  0.00    -0.300 OA
ENDBRANCH   1   2
BRANCH   1   5
ATOM      5  C   UNL     1       5.272   1.511   0.666  1.00  0.00     0.043 C 
BRANCH   5   6
ATOM      6  C   UNL     1       6.109   0.427   0.119  1.00  0.00    -0.044 A 
ATOM      7  C   UNL     1       6.496   0.408  -1.225  1.00  0.00     0.008 A 
ATOM      8  C   UNL     1       6.527  -0.593   0.943  1.00  0.00     0.054 A 
ATOM      9  C   UNL     1       7.283  -0.634  -1.682  1.00  0.00     0.051 A 
ATOM     10  C   UNL     1       7.322  -1.644   0.477  1.00  0.00     0.166 A 
ATOM     11  C   UNL     1       7.703  -1.665  -0.847  1.00  0.00     0.165 A 
ATOM     12  O   UNL     1       7.858  -2.759   1.086  1.00  0.00    -0.454 OA
ATOM     13  O   UNL     1       8.474  -2.803  -1.024  1.00  0.00    -0.454 OA
ATOM     14  C   UNL     1       8.673  -3.478   0.195  1.00  0.00     0.468 C 
ENDBRANCH   5   6
ENDBRANCH   1   5
TORSDOF 3
ENDMDL
MODEL 3
REMARK VINA RESULT:      -7.7      1.894      2.647
REMARK SMILES CC(=O)CCc1ccc2c(c1)OCO2
REMARK SMILES IDX 4 1 2 2 1 3 3 4 5 5 6 6 7 7 11 8 8 9 10 10 9 11 12 12 14 13
REMARK SMILES IDX 13 14
REMARK H PARENT
REMARK Flexibility Score: inf
ROOT
ATOM      1  C   UNL     1       5.544   1.925   1.267  1.00  0.00     0.080 C 
ENDROOT
BRANCH   1   2
ATOM      2  C   UNL     1       5.098   0.716   2.014  1.00  0.00     0.130 C 
ATOM      3  C   UNL     1       5.988  -0.461   2.198  1.00  0.00     0.087 C 
ATOM      4  O   UNL     1       3.980   0.656   2.500  1.00  0.00    -0.300 OA
ENDBRANCH   1   2
BRANCH   1   5
ATOM      5  C   UNL     1       5.410   1.728  -0.230  1.00  0.00     0.043 C 
BRANCH   5   6
ATOM      6  C   UNL     1       6.577   1.027  -0.795  1.00  0.00    -0.044 A 
ATOM      7  C   UNL     1       7.883   1.470  -0.558  1.00  0.00     0.008 A 
ATOM      8  C   UNL     1       6.389  -0.092  -1.574  1.00  0.00     0.054 A 
ATOM      9  C   UNL     1       8.940   0.771  -1.114  1.00  0.00     0.051 A 
ATOM     10  C   UNL     1       7.461  -0.794  -2.134  1.00  0.00     0.166 A 
ATOM     11  C   UNL     1       8.746  -0.359  -1.902  1.00  0.00     0.165 A 
ATOM     12  O   UNL     1       7.534  -1.916  -2.932  1.00  0.00    -0.454 OA
ATOM     13  O   UNL     1       9.592  -1.232  -2.568  1.00  0.00    -0.454 OA
ATOM     14  C   UNL     1       8.870  -2.287  -3.159  1.00  0.00     0.468 C 
ENDBRANCH   5   6
ENDBRANCH   1   5
TORSDOF 3
ENDMDL
MODEL 4
REMARK VINA RESULT:      -7.5      1.982      3.031
REMARK SMILES CC(=O)CCc1ccc2c(c1)OCO2
REMARK SMILES IDX 4 1 2 2 1 3 3 4 5 5 6 6 7 7 11 8 8 9 10 10 9 11 12 12 14 13
REMARK SMILES IDX 13 14
REMARK H PARENT
REMARK Flexibility Score: inf
ROOT
ATOM      1  C   UNL     1       5.763   1.360  -0.350  1.00  0.00     0.080 C 
ENDROOT
BRANCH   1   2
ATOM      2  C   UNL     1       5.130   1.313   0.997  1.00  0.00     0.130 C 
ATOM      3  C   UNL     1       5.407   0.206   1.952  1.00  0.00     0.087 C 
ATOM      4  O   UNL     1       4.360   2.187   1.359  1.00  0.00    -0.300 OA
ENDBRANCH   1   2
BRANCH   1   5
ATOM      5  C   UNL     1       7.251   1.079  -0.270  1.00  0.00     0.043 C 
BRANCH   5   6
ATOM      6  C   UNL     1       7.595  -0.219  -0.877  1.00  0.00    -0.044 A 
ATOM      7  C   UNL     1       7.603  -0.400  -2.265  1.00  0.00     0.008 A 
ATOM      8  C   UNL     1       7.922  -1.285  -0.069  1.00  0.00     0.054 A 
ATOM      9  C   UNL     1       7.936  -1.641  -2.778  1.00  0.00     0.051 A 
ATOM     10  C   UNL     1       8.258  -2.537  -0.593  1.00  0.00     0.166 A 
ATOM     11  C   UNL     1       8.264  -2.716  -1.958  1.00  0.00     0.165 A 
ATOM     12  O   UNL     1       8.613  -3.735  -0.010  1.00  0.00    -0.454 OA
ATOM     13  O   UNL     1       8.628  -4.034  -2.187  1.00  0.00    -0.454 OA
ATOM     14  C   UNL     1       8.947  -4.690  -0.983  1.00  0.00     0.468 C 
ENDBRANCH   5   6
ENDBRANCH   1   5
TORSDOF 3
ENDMDL
MODEL 5
REMARK VINA RESULT:      -7.4      1.822      2.827
REMARK SMILES CC(=O)CCc1ccc2c(c1)OCO2
REMARK SMILES IDX 4 1 2 2 1 3 3 4 5 5 6 6 7 7 11 8 8 9 10 10 9 11 12 12 14 13
REMARK SMILES IDX 13 14
REMARK H PARENT
REMARK Flexibility Score: inf
ROOT
ATOM      1  C   UNL     1       6.213   0.812   1.096  1.00  0.00     0.080 C 
ENDROOT
BRANCH   1   2
ATOM      2  C   UNL     1       5.053   1.734   0.951  1.00  0.00     0.130 C 
ATOM      3  C   UNL     1       4.912   2.632  -0.226  1.00  0.00     0.087 C 
ATOM      4  O   UNL     1       4.178   1.780   1.801  1.00  0.00    -0.300 OA
ENDBRANCH   1   2
BRANCH   1   5
ATOM      5  C   UNL     1       7.227   1.025  -0.010  1.00  0.00     0.043 C 
BRANCH   5   6
ATOM      6  C   UNL     1       7.563  -0.237  -0.693  1.00  0.00    -0.044 A 
ATOM      7  C   UNL     1       7.539  -0.345  -2.089  1.00  0.00     0.008 A 
ATOM      8  C   UNL     1       7.914  -1.342   0.049  1.00  0.00     0.054 A 
ATOM      9  C   UNL     1       7.864  -1.555  -2.674  1.00  0.00     0.051 A 
ATOM     10  C   UNL     1       8.243  -2.563  -0.548  1.00  0.00     0.166 A 
ATOM     11  C   UNL     1       8.218  -2.670  -1.921  1.00  0.00     0.165 A 
ATOM     12  O   UNL     1       8.618  -3.788  -0.038  1.00  0.00    -0.454 OA
ATOM     13  O   UNL     1       8.583  -3.972  -2.228  1.00  0.00    -0.454 OA
ATOM     14  C   UNL     1       8.933  -4.689  -1.068  1.00  0.00     0.468 C 
ENDBRANCH   5   6
ENDBRANCH   1   5
TORSDOF 3
ENDMDL
