@<TRIPOS>MOLECULE
/home/cewinharhar/GITHUB/reincatalyze/data/processed/docking_pred/2023-May-22-1902_sub9_nm5_bs15_s42_ex16_mel10_mts1000_k50_ec02_g099_lra9e-4_lrc1e-3/02381cbfeedb5f98de7c9f38a4017f955763d16c_ligand_9.pdbqt
 14 15 0 0 0
SMALL
GASTEIGER

@<TRIPOS>ATOM
      1  C          5.5440    1.9250    1.2670 C.3     1  UNL1        0.0800
      2  C          5.0980    0.7160    2.0140 C.2     1  UNL1        0.1300
      3  C          5.9880   -0.4610    2.1980 C.3     1  UNL1        0.0870
      4  O          3.9800    0.6560    2.5000 O.2     1  UNL1       -0.3000
      5  C          5.4100    1.7280   -0.2300 C.3     1  UNL1        0.0430
      6  C          6.5770    1.0270   -0.7950 C.2     1  UNL1       -0.0440
      7  C          7.8830    1.4700   -0.5580 C.2     1  UNL1        0.0080
      8  C          6.3890   -0.0920   -1.5740 C.2     1  UNL1        0.0540
      9  C          8.9400    0.7710   -1.1140 C.2     1  UNL1        0.0510
     10  C          7.4610   -0.7940   -2.1340 C.2     1  UNL1        0.1660
     11  C          8.7460   -0.3590   -1.9020 C.2     1  UNL1        0.1650
     12  O          7.5340   -1.9160   -2.9320 O.2     1  UNL1       -0.4540
     13  O          9.5920   -1.2320   -2.5680 O.2     1  UNL1       -0.4540
     14  C          8.8700   -2.2870   -3.1590 C.3     1  UNL1        0.4680
@<TRIPOS>BOND
     1    14    12    1
     2    14    13    1
     3    12    10    1
     4    13    11    1
     5    10    11    2
     6    10     8    1
     7    11     9    1
     8     8     6    2
     9     9     7    2
    10     6     7    1
    11     6     5    1
    12     5     1    1
    13     1     2    1
    14     2     3    1
    15     2     4    2
