@<TRIPOS>MOLECULE
/home/cewinharhar/GITHUB/reincatalyze/data/processed/docking_pred/2023-May-22-1902_sub9_nm5_bs15_s42_ex16_mel10_mts1000_k50_ec02_g099_lra9e-4_lrc1e-3/02381cbfeedb5f98de7c9f38a4017f955763d16c_ligand_9.pdbqt
 14 15 0 0 0
SMALL
GASTEIGER

@<TRIPOS>ATOM
      1  C          5.4680    2.9090    0.2100 C.3     1  UNL1        0.0800
      2  C          6.2920    3.8480    1.0200 C.2     1  UNL1        0.1300
      3  C          7.2690    4.7750    0.3890 C.3     1  UNL1        0.0870
      4  O          6.1880    3.8840    2.2360 O.2     1  UNL1       -0.3000
      5  C          5.2250    1.6090    0.9510 C.3     1  UNL1        0.0430
      6  C          6.0380    0.5080    0.4030 C.2     1  UNL1       -0.0440
      7  C          6.4410   -0.5710    1.1980 C.2     1  UNL1        0.0080
      8  C          6.4120    0.5300   -0.9210 C.2     1  UNL1        0.0540
      9  C          7.2020   -1.5760    0.6290 C.2     1  UNL1        0.0510
     10  C          7.1810   -0.4890   -1.4920 C.2     1  UNL1        0.1660
     11  C          7.5790   -1.5500   -0.7100 C.2     1  UNL1        0.1650
     12  O          7.6740   -0.6940   -2.7630 O.2     1  UNL1       -0.4540
     13  O          8.3160   -2.3950   -1.5260 O.2     1  UNL1       -0.4540
     14  C          8.3250   -1.9360   -2.8570 C.3     1  UNL1        0.4680
@<TRIPOS>BOND
     1    14    12    1
     2    14    13    1
     3    12    10    1
     4    13    11    1
     5    10     8    1
     6    10    11    2
     7     8     6    2
     8    11     9    1
     9     1     5    1
    10     1     2    1
    11     3     2    1
    12     6     5    1
    13     6     7    1
    14     9     7    2
    15     2     4    2
