@<TRIPOS>MOLECULE
/home/cewinharhar/GITHUB/reincatalyze/data/processed/docking_pred/2023-May-22-1902_sub9_nm5_bs15_s42_ex16_mel10_mts1000_k50_ec02_g099_lra9e-4_lrc1e-3/02381cbfeedb5f98de7c9f38a4017f955763d16c_ligand_9.pdbqt
 14 15 0 0 0
SMALL
GASTEIGER

@<TRIPOS>ATOM
      1  C          5.5700    2.8400    0.0020 C.3     1  UNL1        0.0800
      2  C          6.3370    3.7390    0.9090 C.2     1  UNL1        0.1300
      3  C          7.2650    4.7750    0.3820 C.3     1  UNL1        0.0870
      4  O          6.2240    3.6500    2.1210 O.2     1  UNL1       -0.3000
      5  C          5.2720    1.5110    0.6660 C.3     1  UNL1        0.0430
      6  C          6.1090    0.4270    0.1190 C.2     1  UNL1       -0.0440
      7  C          6.4960    0.4080   -1.2250 C.2     1  UNL1        0.0080
      8  C          6.5270   -0.5930    0.9430 C.2     1  UNL1        0.0540
      9  C          7.2830   -0.6340   -1.6820 C.2     1  UNL1        0.0510
     10  C          7.3220   -1.6440    0.4770 C.2     1  UNL1        0.1660
     11  C          7.7030   -1.6650   -0.8470 C.2     1  UNL1        0.1650
     12  O          7.8580   -2.7590    1.0860 O.2     1  UNL1       -0.4540
     13  O          8.4740   -2.8030   -1.0240 O.2     1  UNL1       -0.4540
     14  C          8.6730   -3.4780    0.1950 C.3     1  UNL1        0.4680
@<TRIPOS>BOND
     1     9     7    1
     2     9    11    2
     3     7     6    2
     4    13    11    1
     5    13    14    1
     6    11    10    1
     7     1     5    1
     8     1     2    1
     9     6     5    1
    10     6     8    1
    11    14    12    1
    12     3     2    1
    13    10     8    2
    14    10    12    1
    15     2     4    2
