@<TRIPOS>MOLECULE
/home/cewinharhar/GITHUB/reincatalyze/data/processed/docking_pred/2023-May-22-1902_sub9_nm5_bs15_s42_ex16_mel10_mts1000_k50_ec02_g099_lra9e-4_lrc1e-3/0310d41f91ab2de901a6698b161cc991790b6b4b_ligand_9.pdbqt
 14 15 0 0 0
SMALL
GASTEIGER

@<TRIPOS>ATOM
      1  C          5.5210    2.8380    0.4000 C.3     1  UNL1        0.0800
      2  C          6.3040    3.9100    1.0760 C.2     1  UNL1        0.1300
      3  C          7.2540    4.7750    0.3250 C.3     1  UNL1        0.0870
      4  O          6.1890    4.1100    2.2740 O.2     1  UNL1       -0.3000
      5  C          5.5060    1.5650    1.2230 C.3     1  UNL1        0.0430
      6  C          6.3450    0.5140    0.6180 C.2     1  UNL1       -0.0440
      7  C          7.0490   -0.4040    1.4050 C.2     1  UNL1        0.0080
      8  C          6.4430    0.4230   -0.7510 C.2     1  UNL1        0.0540
      9  C          7.8190   -1.3700    0.7820 C.2     1  UNL1        0.0510
     10  C          7.2220   -0.5550   -1.3760 C.2     1  UNL1        0.1660
     11  C          7.9160   -1.4580   -0.6030 C.2     1  UNL1        0.1650
     12  O          7.4790   -0.8480   -2.6990 O.2     1  UNL1       -0.4540
     13  O          8.5910   -2.2970   -1.4750 O.2     1  UNL1       -0.4540
     14  C          8.2710   -2.0030   -2.8140 C.3     1  UNL1        0.4680
@<TRIPOS>BOND
     1    14    12    1
     2    14    13    1
     3    12    10    1
     4    13    11    1
     5    10     8    1
     6    10    11    2
     7     8     6    2
     8    11     9    1
     9     3     2    1
    10     1     2    1
    11     1     5    1
    12     6     5    1
    13     6     7    1
    14     9     7    2
    15     2     4    2
