@<TRIPOS>MOLECULE
/home/cewinharhar/GITHUB/reincatalyze/data/processed/docking_pred/2023-May-22-1902_sub9_nm5_bs15_s42_ex16_mel10_mts1000_k50_ec02_g099_lra9e-4_lrc1e-3/0310d41f91ab2de901a6698b161cc991790b6b4b_ligand_9.pdbqt
 14 15 0 0 0
SMALL
GASTEIGER

@<TRIPOS>ATOM
      1  C          5.4670    2.8780    0.4270 C.3     1  UNL1        0.0800
      2  C          6.2350    3.9490    1.1220 C.2     1  UNL1        0.1300
      3  C          7.2440    4.7750    0.4070 C.3     1  UNL1        0.0870
      4  O          6.0560    4.1800    2.3070 O.2     1  UNL1       -0.3000
      5  C          5.8910    1.5020    0.8990 C.3     1  UNL1        0.0430
      6  C          6.8630    0.8830   -0.0210 C.2     1  UNL1       -0.0440
      7  C          8.1130    1.4630   -0.2640 C.2     1  UNL1        0.0080
      8  C          6.5440   -0.2930   -0.6590 C.2     1  UNL1        0.0540
      9  C          8.9850    0.8370   -1.1360 C.2     1  UNL1        0.0510
     10  C          7.4290   -0.9220   -1.5400 C.2     1  UNL1        0.1660
     11  C          8.6590   -0.3520   -1.7810 C.2     1  UNL1        0.1650
     12  O          7.3480   -2.0780   -2.2880 O.2     1  UNL1       -0.4540
     13  O          9.3150   -1.1790   -2.6790 O.2     1  UNL1       -0.4540
     14  C          8.5560   -2.3320   -2.9570 C.3     1  UNL1        0.4680
@<TRIPOS>BOND
     1    14    13    1
     2    14    12    1
     3    13    11    1
     4    12    10    1
     5    11    10    2
     6    11     9    1
     7    10     8    1
     8     9     7    2
     9     8     6    2
    10     7     6    1
    11     6     5    1
    12     3     2    1
    13     1     5    1
    14     1     2    1
    15     2     4    2
