@<TRIPOS>MOLECULE
/home/cewinharhar/GITHUB/reincatalyze/data/processed/docking_pred/2023-May-22-1902_sub9_nm5_bs15_s42_ex16_mel10_mts1000_k50_ec02_g099_lra9e-4_lrc1e-3/0310d41f91ab2de901a6698b161cc991790b6b4b_ligand_9.pdbqt
 14 15 0 0 0
SMALL
GASTEIGER

@<TRIPOS>ATOM
      1  C          5.6900    2.5290    0.7020 C.3     1  UNL1        0.0800
      2  C          6.3140    3.7920    1.1850 C.2     1  UNL1        0.1300
      3  C          7.1320    4.6520    0.2880 C.3     1  UNL1        0.0870
      4  O          6.1720    4.1600    2.3400 O.2     1  UNL1       -0.3000
      5  C          6.3860    1.3140    1.2830 C.3     1  UNL1        0.0430
      6  C          6.7650    0.3490    0.2350 C.2     1  UNL1       -0.0440
      7  C          6.4790    0.5820   -1.1150 C.2     1  UNL1        0.0080
      8  C          7.4180   -0.8120    0.5810 C.2     1  UNL1        0.0540
      9  C          6.8590   -0.3590   -2.0540 C.2     1  UNL1        0.0510
     10  C          7.8010   -1.7600   -0.3720 C.2     1  UNL1        0.1660
     11  C          7.5190   -1.5320   -1.7010 C.2     1  UNL1        0.1650
     12  O          8.4500   -2.9740   -0.2830 O.2     1  UNL1       -0.4540
     13  O          8.0060   -2.6210   -2.4070 O.2     1  UNL1       -0.4540
     14  C          8.6840   -3.5150   -1.5570 C.3     1  UNL1        0.4680
@<TRIPOS>BOND
     1    13    11    1
     2    13    14    1
     3     9    11    2
     4     9     7    1
     5    11    10    1
     6    14    12    1
     7     7     6    2
     8    10    12    1
     9    10     8    2
    10     6     8    1
    11     6     5    1
    12     3     2    1
    13     1     2    1
    14     1     5    1
    15     2     4    2
