MODEL 1
REMARK VINA RESULT:      -7.9      0.000      0.000
REMARK SMILES CC(=O)CCc1ccc2c(c1)OCO2
REMARK SMILES IDX 4 1 2 2 1 3 3 4 5 5 6 6 7 7 11 8 8 9 10 10 9 11 12 12 14 13
REMARK SMILES IDX 13 14
REMARK H PARENT
REMARK Flexibility Score: inf
ROOT
ATOM      1  C   UNL     1       5.443   2.922   0.099  1.00  0.00     0.080 C 
ENDROOT
BRANCH   1   2
ATOM      2  C   UNL     1       6.289   3.815   0.940  1.00  0.00     0.130 C 
ATOM      3  C   UNL     1       7.252   4.774   0.336  1.00  0.00     0.087 C 
ATOM      4  O   UNL     1       6.215   3.785   2.158  1.00  0.00    -0.300 OA
ENDBRANCH   1   2
BRANCH   1   5
ATOM      5  C   UNL     1       5.142   1.619   0.812  1.00  0.00     0.043 C 
BRANCH   5   6
ATOM      6  C   UNL     1       5.974   0.513   0.304  1.00  0.00    -0.044 A 
ATOM      7  C   UNL     1       6.312  -0.580   1.110  1.00  0.00     0.008 A 
ATOM      8  C   UNL     1       6.433   0.545  -0.993  1.00  0.00     0.054 A 
ATOM      9  C   UNL     1       7.095  -1.589   0.579  1.00  0.00     0.051 A 
ATOM     10  C   UNL     1       7.224  -0.477  -1.525  1.00  0.00     0.166 A 
ATOM     11  C   UNL     1       7.558  -1.553  -0.733  1.00  0.00     0.165 A 
ATOM     12  O   UNL     1       7.796  -0.674  -2.764  1.00  0.00    -0.454 OA
ATOM     13  O   UNL     1       8.335  -2.397  -1.510  1.00  0.00    -0.454 OA
ATOM     14  C   UNL     1       8.436  -1.923  -2.832  1.00  0.00     0.468 C 
ENDBRANCH   5   6
ENDBRANCH   1   5
TORSDOF 3
ENDMDL
MODEL 2
REMARK VINA RESULT:      -7.7      0.986      1.973
REMARK SMILES CC(=O)CCc1ccc2c(c1)OCO2
REMARK SMILES IDX 4 1 2 2 1 3 3 4 5 5 6 6 7 7 11 8 8 9 10 10 9 11 12 12 14 13
REMARK SMILES IDX 13 14
REMARK H PARENT
REMARK Flexibility Score: inf
ROOT
ATOM      1  C   UNL     1       5.336   2.917   0.309  1.00  0.00     0.080 C 
ENDROOT
BRANCH   1   2
ATOM      2  C   UNL     1       6.330   3.704   1.091  1.00  0.00     0.130 C 
ATOM      3  C   UNL     1       7.148   4.774   0.461  1.00  0.00     0.087 C 
ATOM      4  O   UNL     1       6.502   3.491   2.280  1.00  0.00    -0.300 OA
ENDBRANCH   1   2
BRANCH   1   5
ATOM      5  C   UNL     1       5.088   1.561   0.941  1.00  0.00     0.043 C 
BRANCH   5   6
ATOM      6  C   UNL     1       5.941   0.517   0.347  1.00  0.00    -0.044 A 
ATOM      7  C   UNL     1       6.319   0.557  -1.000  1.00  0.00     0.008 A 
ATOM      8  C   UNL     1       6.386  -0.526   1.127  1.00  0.00     0.054 A 
ATOM      9  C   UNL     1       7.123  -0.450  -1.502  1.00  0.00     0.051 A 
ATOM     10  C   UNL     1       7.198  -1.542   0.615  1.00  0.00     0.166 A 
ATOM     11  C   UNL     1       7.569  -1.504  -0.711  1.00  0.00     0.165 A 
ATOM     12  O   UNL     1       7.761  -2.669   1.176  1.00  0.00    -0.454 OA
ATOM     13  O   UNL     1       8.361  -2.618  -0.938  1.00  0.00    -0.454 OA
ATOM     14  C   UNL     1       8.583  -3.336   0.253  1.00  0.00     0.468 C 
ENDBRANCH   5   6
ENDBRANCH   1   5
TORSDOF 3
ENDMDL
MODEL 3
REMARK VINA RESULT:      -7.6      1.884      2.634
REMARK SMILES CC(=O)CCc1ccc2c(c1)OCO2
REMARK SMILES IDX 4 1 2 2 1 3 3 4 5 5 6 6 7 7 11 8 8 9 10 10 9 11 12 12 14 13
REMARK SMILES IDX 13 14
REMARK H PARENT
REMARK Flexibility Score: inf
ROOT
ATOM      1  C   UNL     1       5.536   1.927   1.266  1.00  0.00     0.080 C 
ENDROOT
BRANCH   1   2
ATOM      2  C   UNL     1       5.121   0.703   2.006  1.00  0.00     0.130 C 
ATOM      3  C   UNL     1       6.041  -0.453   2.181  1.00  0.00     0.087 C 
ATOM      4  O   UNL     1       4.006   0.612   2.493  1.00  0.00    -0.300 OA
ENDBRANCH   1   2
BRANCH   1   5
ATOM      5  C   UNL     1       5.409   1.735  -0.232  1.00  0.00     0.043 C 
BRANCH   5   6
ATOM      6  C   UNL     1       6.574   1.027  -0.792  1.00  0.00    -0.044 A 
ATOM      7  C   UNL     1       7.883   1.449  -0.534  1.00  0.00     0.008 A 
ATOM      8  C   UNL     1       6.381  -0.079  -1.588  1.00  0.00     0.054 A 
ATOM      9  C   UNL     1       8.937   0.744  -1.086  1.00  0.00     0.051 A 
ATOM     10  C   UNL     1       7.450  -0.789  -2.144  1.00  0.00     0.166 A 
ATOM     11  C   UNL     1       8.739  -0.373  -1.891  1.00  0.00     0.165 A 
ATOM     12  O   UNL     1       7.519  -1.901  -2.956  1.00  0.00    -0.454 OA
ATOM     13  O   UNL     1       9.581  -1.249  -2.559  1.00  0.00    -0.454 OA
ATOM     14  C   UNL     1       8.853  -2.286  -3.172  1.00  0.00     0.468 C 
ENDBRANCH   5   6
ENDBRANCH   1   5
TORSDOF 3
ENDMDL
MODEL 4
REMARK VINA RESULT:      -7.5      1.121      1.558
REMARK SMILES CC(=O)CCc1ccc2c(c1)OCO2
REMARK SMILES IDX 4 1 2 2 1 3 3 4 5 5 6 6 7 7 11 8 8 9 10 10 9 11 12 12 14 13
REMARK SMILES IDX 13 14
REMARK H PARENT
REMARK Flexibility Score: inf
ROOT
ATOM      1  C   UNL     1       5.356   2.900   0.074  1.00  0.00     0.080 C 
ENDROOT
BRANCH   1   2
ATOM      2  C   UNL     1       6.296   3.617   0.981  1.00  0.00     0.130 C 
ATOM      3  C   UNL     1       7.103   4.775   0.512  1.00  0.00     0.087 C 
ATOM      4  O   UNL     1       6.431   3.271   2.144  1.00  0.00    -0.300 OA
ENDBRANCH   1   2
BRANCH   1   5
ATOM      5  C   UNL     1       5.425   1.400   0.285  1.00  0.00     0.043 C 
BRANCH   5   6
ATOM      6  C   UNL     1       6.565   0.799  -0.430  1.00  0.00    -0.044 A 
ATOM      7  C   UNL     1       7.823   1.413  -0.449  1.00  0.00     0.008 A 
ATOM      8  C   UNL     1       6.402  -0.394  -1.095  1.00  0.00     0.054 A 
ATOM      9  C   UNL     1       8.857   0.802  -1.136  1.00  0.00     0.051 A 
ATOM     10  C   UNL     1       7.450  -1.008  -1.788  1.00  0.00     0.166 A 
ATOM     11  C   UNL     1       8.688  -0.404  -1.808  1.00  0.00     0.165 A 
ATOM     12  O   UNL     1       7.539  -2.175  -2.516  1.00  0.00    -0.454 OA
ATOM     13  O   UNL     1       9.520  -1.223  -2.556  1.00  0.00    -0.454 OA
ATOM     14  C   UNL     1       8.856  -2.401  -2.948  1.00  0.00     0.468 C 
ENDBRANCH   5   6
ENDBRANCH   1   5
TORSDOF 3
ENDMDL
MODEL 5
REMARK VINA RESULT:      -7.4      1.944      3.016
REMARK SMILES CC(=O)CCc1ccc2c(c1)OCO2
REMARK SMILES IDX 4 1 2 2 1 3 3 4 5 5 6 6 7 7 11 8 8 9 10 10 9 11 12 12 14 13
REMARK SMILES IDX 13 14
REMARK H PARENT
REMARK Flexibility Score: inf
ROOT
ATOM      1  C   UNL     1       5.741   1.334  -0.357  1.00  0.00     0.080 C 
ENDROOT
BRANCH   1   2
ATOM      2  C   UNL     1       5.166   1.317   1.017  1.00  0.00     0.130 C 
ATOM      3  C   UNL     1       5.396   0.178   1.946  1.00  0.00     0.087 C 
ATOM      4  O   UNL     1       4.483   2.244   1.422  1.00  0.00    -0.300 OA
ENDBRANCH   1   2
BRANCH   1   5
ATOM      5  C   UNL     1       7.241   1.119  -0.328  1.00  0.00     0.043 C 
BRANCH   5   6
ATOM      6  C   UNL     1       7.618  -0.179  -0.917  1.00  0.00    -0.044 A 
ATOM      7  C   UNL     1       7.710  -0.356  -2.302  1.00  0.00     0.008 A 
ATOM      8  C   UNL     1       7.890  -1.248  -0.094  1.00  0.00     0.054 A 
ATOM      9  C   UNL     1       8.070  -1.596  -2.797  1.00  0.00     0.051 A 
ATOM     10  C   UNL     1       8.254  -2.500  -0.600  1.00  0.00     0.166 A 
ATOM     11  C   UNL     1       8.344  -2.675  -1.963  1.00  0.00     0.165 A 
ATOM     12  O   UNL     1       8.569  -3.700   0.001  1.00  0.00    -0.454 OA
ATOM     13  O   UNL     1       8.717  -3.994  -2.173  1.00  0.00    -0.454 OA
ATOM     14  C   UNL     1       8.958  -4.654  -0.954  1.00  0.00     0.468 C 
ENDBRANCH   5   6
ENDBRANCH   1   5
TORSDOF 3
ENDMDL
