@<TRIPOS>MOLECULE
/home/cewinharhar/GITHUB/reincatalyze/data/processed/docking_pred/2023-May-22-1902_sub9_nm5_bs15_s42_ex16_mel10_mts1000_k50_ec02_g099_lra9e-4_lrc1e-3/034cecc51265c6b10d0b2cc1c9f67b1ec6b5e3be_ligand_9.pdbqt
 14 15 0 0 0
SMALL
GASTEIGER

@<TRIPOS>ATOM
      1  C          5.5360    1.9270    1.2660 C.3     1  UNL1        0.0800
      2  C          5.1210    0.7030    2.0060 C.2     1  UNL1        0.1300
      3  C          6.0410   -0.4530    2.1810 C.3     1  UNL1        0.0870
      4  O          4.0060    0.6120    2.4930 O.2     1  UNL1       -0.3000
      5  C          5.4090    1.7350   -0.2320 C.3     1  UNL1        0.0430
      6  C          6.5740    1.0270   -0.7920 C.2     1  UNL1       -0.0440
      7  C          7.8830    1.4490   -0.5340 C.2     1  UNL1        0.0080
      8  C          6.3810   -0.0790   -1.5880 C.2     1  UNL1        0.0540
      9  C          8.9370    0.7440   -1.0860 C.2     1  UNL1        0.0510
     10  C          7.4500   -0.7890   -2.1440 C.2     1  UNL1        0.1660
     11  C          8.7390   -0.3730   -1.8910 C.2     1  UNL1        0.1650
     12  O          7.5190   -1.9010   -2.9560 O.2     1  UNL1       -0.4540
     13  O          9.5810   -1.2490   -2.5590 O.2     1  UNL1       -0.4540
     14  C          8.8530   -2.2860   -3.1720 C.3     1  UNL1        0.4680
@<TRIPOS>BOND
     1    14    12    1
     2    14    13    1
     3    12    10    1
     4    13    11    1
     5    10    11    2
     6    10     8    1
     7    11     9    1
     8     8     6    2
     9     9     7    2
    10     6     7    1
    11     6     5    1
    12     5     1    1
    13     1     2    1
    14     2     3    1
    15     2     4    2
