@<TRIPOS>MOLECULE
/home/cewinharhar/GITHUB/reincatalyze/data/processed/docking_pred/2023-May-22-1902_sub9_nm5_bs15_s42_ex16_mel10_mts1000_k50_ec02_g099_lra9e-4_lrc1e-3/034cecc51265c6b10d0b2cc1c9f67b1ec6b5e3be_ligand_9.pdbqt
 14 15 0 0 0
SMALL
GASTEIGER

@<TRIPOS>ATOM
      1  C          5.4430    2.9220    0.0990 C.3     1  UNL1        0.0800
      2  C          6.2890    3.8150    0.9400 C.2     1  UNL1        0.1300
      3  C          7.2520    4.7740    0.3360 C.3     1  UNL1        0.0870
      4  O          6.2150    3.7850    2.1580 O.2     1  UNL1       -0.3000
      5  C          5.1420    1.6190    0.8120 C.3     1  UNL1        0.0430
      6  C          5.9740    0.5130    0.3040 C.2     1  UNL1       -0.0440
      7  C          6.3120   -0.5800    1.1100 C.2     1  UNL1        0.0080
      8  C          6.4330    0.5450   -0.9930 C.2     1  UNL1        0.0540
      9  C          7.0950   -1.5890    0.5790 C.2     1  UNL1        0.0510
     10  C          7.2240   -0.4770   -1.5250 C.2     1  UNL1        0.1660
     11  C          7.5580   -1.5530   -0.7330 C.2     1  UNL1        0.1650
     12  O          7.7960   -0.6740   -2.7640 O.2     1  UNL1       -0.4540
     13  O          8.3350   -2.3970   -1.5100 O.2     1  UNL1       -0.4540
     14  C          8.4360   -1.9230   -2.8320 C.3     1  UNL1        0.4680
@<TRIPOS>BOND
     1    14    12    1
     2    14    13    1
     3    12    10    1
     4    10     8    1
     5    10    11    2
     6    13    11    1
     7     8     6    2
     8    11     9    1
     9     1     5    1
    10     1     2    1
    11     6     5    1
    12     6     7    1
    13     3     2    1
    14     9     7    2
    15     2     4    2
