@<TRIPOS>MOLECULE
/home/cewinharhar/GITHUB/reincatalyze/data/processed/docking_pred/2023-May-22-1902_sub9_nm5_bs15_s42_ex16_mel10_mts1000_k50_ec02_g099_lra9e-4_lrc1e-3/04093ca98f76925b46d8e425639cb467aa73d951_ligand_9.pdbqt
 14 15 0 0 0
SMALL
GASTEIGER

@<TRIPOS>ATOM
      1  C          5.7740    3.2200    0.2090 C.3     1  UNL1        0.0800
      2  C          6.6100    3.7070    1.3410 C.2     1  UNL1        0.1300
      3  C          8.0650    3.4090    1.4220 C.3     1  UNL1        0.0870
      4  O          6.1220    4.3690    2.2430 O.2     1  UNL1       -0.3000
      5  C          5.0710    1.9240    0.5610 C.3     1  UNL1        0.0430
      6  C          5.8810    0.7470    0.2010 C.2     1  UNL1       -0.0440
      7  C          6.1940   -0.2420    1.1400 C.2     1  UNL1        0.0080
      8  C          6.3450    0.6070   -1.0870 C.2     1  UNL1        0.0540
      9  C          6.9580   -1.3250    0.7450 C.2     1  UNL1        0.0510
     10  C          7.1170   -0.4900   -1.4820 C.2     1  UNL1        0.1660
     11  C          7.4260   -1.4640   -0.5580 C.2     1  UNL1        0.1650
     12  O          7.6890   -0.8530   -2.6830 O.2     1  UNL1       -0.4540
     13  O          8.1880   -2.4150   -1.2190 O.2     1  UNL1       -0.4540
     14  C          8.3030   -2.1130   -2.5890 C.3     1  UNL1        0.4680
@<TRIPOS>BOND
     1    12    14    1
     2    12    10    1
     3    14    13    1
     4    10     8    1
     5    10    11    2
     6    13    11    1
     7     8     6    2
     8    11     9    1
     9     6     5    1
    10     6     7    1
    11     1     5    1
    12     1     2    1
    13     9     7    2
    14     2     3    1
    15     2     4    2
