@<TRIPOS>MOLECULE
/home/cewinharhar/GITHUB/reincatalyze/data/processed/docking_pred/2023-May-22-1902_sub9_nm5_bs15_s42_ex16_mel10_mts1000_k50_ec02_g099_lra9e-4_lrc1e-3/04093ca98f76925b46d8e425639cb467aa73d951_ligand_9.pdbqt
 14 15 0 0 0
SMALL
GASTEIGER

@<TRIPOS>ATOM
      1  C          5.8420    3.2280    0.1430 C.3     1  UNL1        0.0800
      2  C          6.6100    3.6520    1.3470 C.2     1  UNL1        0.1300
      3  C          8.0650    3.3760    1.4820 C.3     1  UNL1        0.0870
      4  O          6.0620    4.2410    2.2640 O.2     1  UNL1       -0.3000
      5  C          5.1380    1.9060    0.3760 C.3     1  UNL1        0.0430
      6  C          5.9700    0.7630   -0.0400 C.2     1  UNL1       -0.0440
      7  C          6.4130    0.6210   -1.3600 C.2     1  UNL1        0.0080
      8  C          6.3270   -0.1930    0.8830 C.2     1  UNL1        0.0540
      9  C          7.1920   -0.4720   -1.6930 C.2     1  UNL1        0.0510
     10  C          7.1150   -1.2960    0.5420 C.2     1  UNL1        0.1660
     11  C          7.5510   -1.4370   -0.7570 C.2     1  UNL1        0.1650
     12  O          7.5970   -2.3660    1.2650 O.2     1  UNL1       -0.4540
     13  O          8.3000   -2.6020   -0.8040 O.2     1  UNL1       -0.4540
     14  C          8.4300   -3.1750    0.4750 C.3     1  UNL1        0.4680
@<TRIPOS>BOND
     1     9     7    1
     2     9    11    2
     3     7     6    2
     4    13    11    1
     5    13    14    1
     6    11    10    1
     7     6     5    1
     8     6     8    1
     9     1     5    1
    10     1     2    1
    11    14    12    1
    12    10     8    2
    13    10    12    1
    14     2     3    1
    15     2     4    2
