MODEL 1
REMARK VINA RESULT:      -7.4      0.000      0.000
REMARK SMILES CC(=O)CCc1ccc2c(c1)OCO2
REMARK SMILES IDX 4 1 2 2 1 3 3 4 5 5 6 6 7 7 11 8 8 9 10 10 9 11 12 12 14 13
REMARK SMILES IDX 13 14
REMARK H PARENT
REMARK Flexibility Score: inf
ROOT
ATOM      1  C   UNL     1       5.774   3.220   0.209  1.00  0.00     0.080 C 
ENDROOT
BRANCH   1   2
ATOM      2  C   UNL     1       6.610   3.707   1.341  1.00  0.00     0.130 C 
ATOM      3  C   UNL     1       8.065   3.409   1.422  1.00  0.00     0.087 C 
ATOM      4  O   UNL     1       6.122   4.369   2.243  1.00  0.00    -0.300 OA
ENDBRANCH   1   2
BRANCH   1   5
ATOM      5  C   UNL     1       5.071   1.924   0.561  1.00  0.00     0.043 C 
BRANCH   5   6
ATOM      6  C   UNL     1       5.881   0.747   0.201  1.00  0.00    -0.044 A 
ATOM      7  C   UNL     1       6.194  -0.242   1.140  1.00  0.00     0.008 A 
ATOM      8  C   UNL     1       6.345   0.607  -1.087  1.00  0.00     0.054 A 
ATOM      9  C   UNL     1       6.958  -1.325   0.745  1.00  0.00     0.051 A 
ATOM     10  C   UNL     1       7.117  -0.490  -1.482  1.00  0.00     0.166 A 
ATOM     11  C   UNL     1       7.426  -1.464  -0.558  1.00  0.00     0.165 A 
ATOM     12  O   UNL     1       7.689  -0.853  -2.683  1.00  0.00    -0.454 OA
ATOM     13  O   UNL     1       8.188  -2.415  -1.219  1.00  0.00    -0.454 OA
ATOM     14  C   UNL     1       8.303  -2.113  -2.589  1.00  0.00     0.468 C 
ENDBRANCH   5   6
ENDBRANCH   1   5
TORSDOF 3
ENDMDL
MODEL 2
REMARK VINA RESULT:      -7.3      1.175      1.471
REMARK SMILES CC(=O)CCc1ccc2c(c1)OCO2
REMARK SMILES IDX 4 1 2 2 1 3 3 4 5 5 6 6 7 7 11 8 8 9 10 10 9 11 12 12 14 13
REMARK SMILES IDX 13 14
REMARK H PARENT
REMARK Flexibility Score: inf
ROOT
ATOM      1  C   UNL     1       6.000   3.275   0.074  1.00  0.00     0.080 C 
ENDROOT
BRANCH   1   2
ATOM      2  C   UNL     1       6.625   3.726   1.349  1.00  0.00     0.130 C 
ATOM      3  C   UNL     1       8.033   3.390   1.690  1.00  0.00     0.087 C 
ATOM      4  O   UNL     1       5.994   4.389   2.155  1.00  0.00    -0.300 OA
ENDBRANCH   1   2
BRANCH   1   5
ATOM      5  C   UNL     1       4.995   2.166   0.316  1.00  0.00     0.043 C 
BRANCH   5   6
ATOM      6  C   UNL     1       5.657   0.895   0.663  1.00  0.00    -0.044 A 
ATOM      7  C   UNL     1       5.437   0.267   1.894  1.00  0.00     0.008 A 
ATOM      8  C   UNL     1       6.511   0.302  -0.239  1.00  0.00     0.054 A 
ATOM      9  C   UNL     1       6.085  -0.925   2.165  1.00  0.00     0.051 A 
ATOM     10  C   UNL     1       7.163  -0.903   0.039  1.00  0.00     0.166 A 
ATOM     11  C   UNL     1       6.948  -1.521   1.251  1.00  0.00     0.165 A 
ATOM     12  O   UNL     1       8.045  -1.681  -0.680  1.00  0.00    -0.454 OA
ATOM     13  O   UNL     1       7.711  -2.679   1.251  1.00  0.00    -0.454 OA
ATOM     14  C   UNL     1       8.352  -2.865   0.011  1.00  0.00     0.468 C 
ENDBRANCH   5   6
ENDBRANCH   1   5
TORSDOF 3
ENDMDL
MODEL 3
REMARK VINA RESULT:      -7.3      0.935      1.925
REMARK SMILES CC(=O)CCc1ccc2c(c1)OCO2
REMARK SMILES IDX 4 1 2 2 1 3 3 4 5 5 6 6 7 7 11 8 8 9 10 10 9 11 12 12 14 13
REMARK SMILES IDX 13 14
REMARK H PARENT
REMARK Flexibility Score: inf
ROOT
ATOM      1  C   UNL     1       5.842   3.228   0.143  1.00  0.00     0.080 C 
ENDROOT
BRANCH   1   2
ATOM      2  C   UNL     1       6.610   3.652   1.347  1.00  0.00     0.130 C 
ATOM      3  C   UNL     1       8.065   3.376   1.482  1.00  0.00     0.087 C 
ATOM      4  O   UNL     1       6.062   4.241   2.264  1.00  0.00    -0.300 OA
ENDBRANCH   1   2
BRANCH   1   5
ATOM      5  C   UNL     1       5.138   1.906   0.376  1.00  0.00     0.043 C 
BRANCH   5   6
ATOM      6  C   UNL     1       5.970   0.763  -0.040  1.00  0.00    -0.044 A 
ATOM      7  C   UNL     1       6.413   0.621  -1.360  1.00  0.00     0.008 A 
ATOM      8  C   UNL     1       6.327  -0.193   0.883  1.00  0.00     0.054 A 
ATOM      9  C   UNL     1       7.192  -0.472  -1.693  1.00  0.00     0.051 A 
ATOM     10  C   UNL     1       7.115  -1.296   0.542  1.00  0.00     0.166 A 
ATOM     11  C   UNL     1       7.551  -1.437  -0.757  1.00  0.00     0.165 A 
ATOM     12  O   UNL     1       7.597  -2.366   1.265  1.00  0.00    -0.454 OA
ATOM     13  O   UNL     1       8.300  -2.602  -0.804  1.00  0.00    -0.454 OA
ATOM     14  C   UNL     1       8.430  -3.175   0.475  1.00  0.00     0.468 C 
ENDBRANCH   5   6
ENDBRANCH   1   5
TORSDOF 3
ENDMDL
MODEL 4
REMARK VINA RESULT:      -7.2      1.272      1.581
REMARK SMILES CC(=O)CCc1ccc2c(c1)OCO2
REMARK SMILES IDX 4 1 2 2 1 3 3 4 5 5 6 6 7 7 11 8 8 9 10 10 9 11 12 12 14 13
REMARK SMILES IDX 13 14
REMARK H PARENT
REMARK Flexibility Score: inf
ROOT
ATOM      1  C   UNL     1       6.364   3.723   0.626  1.00  0.00     0.080 C 
ENDROOT
BRANCH   1   2
ATOM      2  C   UNL     1       6.728   4.246   1.972  1.00  0.00     0.130 C 
ATOM      3  C   UNL     1       8.117   4.156   2.496  1.00  0.00     0.087 C 
ATOM      4  O   UNL     1       5.889   4.766   2.690  1.00  0.00    -0.300 OA
ENDBRANCH   1   2
BRANCH   1   5
ATOM      5  C   UNL     1       5.945   2.268   0.695  1.00  0.00     0.043 C 
BRANCH   5   6
ATOM      6  C   UNL     1       6.849   1.402  -0.081  1.00  0.00    -0.044 A 
ATOM      7  C   UNL     1       8.232   1.620  -0.105  1.00  0.00     0.008 A 
ATOM      8  C   UNL     1       6.334   0.348  -0.801  1.00  0.00     0.054 A 
ATOM      9  C   UNL     1       9.032   0.773  -0.850  1.00  0.00     0.051 A 
ATOM     10  C   UNL     1       7.147  -0.506  -1.553  1.00  0.00     0.166 A 
ATOM     11  C   UNL     1       8.507  -0.291  -1.578  1.00  0.00     0.165 A 
ATOM     12  O   UNL     1       6.881  -1.604  -2.342  1.00  0.00    -0.454 OA
ATOM     13  O   UNL     1       9.053  -1.273  -2.389  1.00  0.00    -0.454 OA
ATOM     14  C   UNL     1       8.068  -2.181  -2.821  1.00  0.00     0.468 C 
ENDBRANCH   5   6
ENDBRANCH   1   5
TORSDOF 3
ENDMDL
MODEL 5
REMARK VINA RESULT:      -7.1      1.492      5.289
REMARK SMILES CC(=O)CCc1ccc2c(c1)OCO2
REMARK SMILES IDX 4 1 2 2 1 3 3 4 5 5 6 6 7 7 11 8 8 9 10 10 9 11 12 12 14 13
REMARK SMILES IDX 13 14
REMARK H PARENT
REMARK Flexibility Score: inf
ROOT
ATOM      1  C   UNL     1       7.031  -1.387  -0.876  1.00  0.00     0.080 C 
ENDROOT
BRANCH   1   2
ATOM      2  C   UNL     1       7.598  -1.668   0.472  1.00  0.00     0.130 C 
ATOM      3  C   UNL     1       6.731  -1.769   1.678  1.00  0.00     0.087 C 
ATOM      4  O   UNL     1       8.798  -1.823   0.628  1.00  0.00    -0.300 OA
ENDBRANCH   1   2
BRANCH   1   5
ATOM      5  C   UNL     1       7.506  -0.048  -1.405  1.00  0.00     0.043 C 
BRANCH   5   6
ATOM      6  C   UNL     1       6.997   1.072  -0.593  1.00  0.00    -0.044 A 
ATOM      7  C   UNL     1       5.632   1.374  -0.537  1.00  0.00     0.008 A 
ATOM      8  C   UNL     1       7.876   1.843   0.132  1.00  0.00     0.054 A 
ATOM      9  C   UNL     1       5.212   2.437   0.243  1.00  0.00     0.051 A 
ATOM     10  C   UNL     1       7.446   2.916   0.919  1.00  0.00     0.166 A 
ATOM     11  C   UNL     1       6.103   3.215   0.974  1.00  0.00     0.165 A 
ATOM     12  O   UNL     1       8.112   3.820   1.719  1.00  0.00    -0.454 OA
ATOM     13  O   UNL     1       5.971   4.308   1.817  1.00  0.00    -0.454 OA
ATOM     14  C   UNL     1       7.209   4.667   2.382  1.00  0.00     0.468 C 
ENDBRANCH   5   6
ENDBRANCH   1   5
TORSDOF 3
ENDMDL
