@<TRIPOS>MOLECULE
/home/cewinharhar/GITHUB/reincatalyze/data/processed/docking_pred/2023-May-22-1902_sub9_nm5_bs15_s42_ex16_mel10_mts1000_k50_ec02_g099_lra9e-4_lrc1e-3/04093ca98f76925b46d8e425639cb467aa73d951_ligand_9.pdbqt
 14 15 0 0 0
SMALL
GASTEIGER

@<TRIPOS>ATOM
      1  C          6.3640    3.7230    0.6260 C.3     1  UNL1        0.0800
      2  C          6.7280    4.2460    1.9720 C.2     1  UNL1        0.1300
      3  C          8.1170    4.1560    2.4960 C.3     1  UNL1        0.0870
      4  O          5.8890    4.7660    2.6900 O.2     1  UNL1       -0.3000
      5  C          5.9450    2.2680    0.6950 C.3     1  UNL1        0.0430
      6  C          6.8490    1.4020   -0.0810 C.2     1  UNL1       -0.0440
      7  C          8.2320    1.6200   -0.1050 C.2     1  UNL1        0.0080
      8  C          6.3340    0.3480   -0.8010 C.2     1  UNL1        0.0540
      9  C          9.0320    0.7730   -0.8500 C.2     1  UNL1        0.0510
     10  C          7.1470   -0.5060   -1.5530 C.2     1  UNL1        0.1660
     11  C          8.5070   -0.2910   -1.5780 C.2     1  UNL1        0.1650
     12  O          6.8810   -1.6040   -2.3420 O.2     1  UNL1       -0.4540
     13  O          9.0530   -1.2730   -2.3890 O.2     1  UNL1       -0.4540
     14  C          8.0680   -2.1810   -2.8210 C.3     1  UNL1        0.4680
@<TRIPOS>BOND
     1    14    13    1
     2    14    12    1
     3    13    11    1
     4    12    10    1
     5    11    10    2
     6    11     9    1
     7    10     8    1
     8     9     7    2
     9     8     6    2
    10     7     6    1
    11     6     5    1
    12     1     5    1
    13     1     2    1
    14     2     3    1
    15     2     4    2
