@<TRIPOS>MOLECULE
/home/cewinharhar/GITHUB/reincatalyze/data/processed/docking_pred/2023-May-22-1902_sub9_nm5_bs15_s42_ex16_mel10_mts1000_k50_ec02_g099_lra9e-4_lrc1e-3/04093ca98f76925b46d8e425639cb467aa73d951_ligand_9.pdbqt
 14 15 0 0 0
SMALL
GASTEIGER

@<TRIPOS>ATOM
      1  C          7.0310   -1.3870   -0.8760 C.3     1  UNL1        0.0800
      2  C          7.5980   -1.6680    0.4720 C.2     1  UNL1        0.1300
      3  C          6.7310   -1.7690    1.6780 C.3     1  UNL1        0.0870
      4  O          8.7980   -1.8230    0.6280 O.2     1  UNL1       -0.3000
      5  C          7.5060   -0.0480   -1.4050 C.3     1  UNL1        0.0430
      6  C          6.9970    1.0720   -0.5930 C.2     1  UNL1       -0.0440
      7  C          5.6320    1.3740   -0.5370 C.2     1  UNL1        0.0080
      8  C          7.8760    1.8430    0.1320 C.2     1  UNL1        0.0540
      9  C          5.2120    2.4370    0.2430 C.2     1  UNL1        0.0510
     10  C          7.4460    2.9160    0.9190 C.2     1  UNL1        0.1660
     11  C          6.1030    3.2150    0.9740 C.2     1  UNL1        0.1650
     12  O          8.1120    3.8200    1.7190 O.2     1  UNL1       -0.4540
     13  O          5.9710    4.3080    1.8170 O.2     1  UNL1       -0.4540
     14  C          7.2090    4.6670    2.3820 C.3     1  UNL1        0.4680
@<TRIPOS>BOND
     1     5     1    1
     2     5     6    1
     3     1     2    1
     4     6     7    2
     5     6     8    1
     6     7     9    1
     7     8    10    2
     8     9    11    2
     9     2     4    2
    10     2     3    1
    11    10    11    1
    12    10    12    1
    13    11    13    1
    14    12    14    1
    15    13    14    1
