@<TRIPOS>MOLECULE
/home/cewinharhar/GITHUB/reincatalyze/data/processed/docking_pred/2023-May-22-1902_sub9_nm5_bs15_s42_ex16_mel10_mts1000_k50_ec02_g099_lra9e-4_lrc1e-3/0493ae4577fb245076a56c9e7bbbfc493763ce5a_ligand_9.pdbqt
 14 15 0 0 0
SMALL
GASTEIGER

@<TRIPOS>ATOM
      1  C          5.3550    2.9840    0.1960 C.3     1  UNL1        0.0800
      2  C          6.2600    3.8530    1.0000 C.2     1  UNL1        0.1300
      3  C          7.2340    4.7730    0.3550 C.3     1  UNL1        0.0870
      4  O          6.2280    3.8330    2.2190 O.2     1  UNL1       -0.3000
      5  C          5.1220    1.6510    0.8800 C.3     1  UNL1        0.0430
      6  C          5.9650    0.5880    0.3050 C.2     1  UNL1       -0.0440
      7  C          6.3630    0.6120   -1.0360 C.2     1  UNL1        0.0080
      8  C          6.3800   -0.4580    1.0990 C.2     1  UNL1        0.0540
      9  C          7.1560   -0.4130   -1.5200 C.2     1  UNL1        0.0510
     10  C          7.1810   -1.4910    0.6050 C.2     1  UNL1        0.1660
     11  C          7.5720   -1.4690   -0.7150 C.2     1  UNL1        0.1650
     12  O          7.7150   -2.6240    1.1830 O.2     1  UNL1       -0.4540
     13  O          8.3470   -2.5990   -0.9230 O.2     1  UNL1       -0.4540
     14  C          8.5390   -3.3110    0.2760 C.3     1  UNL1        0.4680
@<TRIPOS>BOND
     1     9     7    1
     2     9    11    2
     3     7     6    2
     4    13    11    1
     5    13    14    1
     6    11    10    1
     7     1     5    1
     8     1     2    1
     9    14    12    1
    10     6     5    1
    11     6     8    1
    12     3     2    1
    13    10     8    2
    14    10    12    1
    15     2     4    2
