@<TRIPOS>MOLECULE
/home/cewinharhar/GITHUB/reincatalyze/data/processed/docking_pred/2023-May-22-1902_sub9_nm5_bs15_s42_ex16_mel10_mts1000_k50_ec02_g099_lra9e-4_lrc1e-3/051d9442833557c4466992e4bdada3c2de553c76_ligand_9.pdbqt
 14 15 0 0 0
SMALL
GASTEIGER

@<TRIPOS>ATOM
      1  C          5.3990    2.9440    0.1330 C.3     1  UNL1        0.0800
      2  C          6.2790    3.8100    0.9650 C.2     1  UNL1        0.1300
      3  C          7.2330    4.7730    0.3520 C.3     1  UNL1        0.0870
      4  O          6.2430    3.7540    2.1840 O.2     1  UNL1       -0.3000
      5  C          5.1500    1.6070    0.8030 C.3     1  UNL1        0.0430
      6  C          6.0030    0.5450    0.2390 C.2     1  UNL1       -0.0440
      7  C          6.4350    0.5810   -1.0910 C.2     1  UNL1        0.0080
      8  C          6.3910   -0.5100    1.0320 C.2     1  UNL1        0.0540
      9  C          7.2350   -0.4430   -1.5650 C.2     1  UNL1        0.0510
     10  C          7.2010   -1.5420    0.5490 C.2     1  UNL1        0.1660
     11  C          7.6260   -1.5090   -0.7600 C.2     1  UNL1        0.1650
     12  O          7.7150   -2.6830    1.1280 O.2     1  UNL1       -0.4540
     13  O          8.4010   -2.6400   -0.9600 O.2     1  UNL1       -0.4540
     14  C          8.5580   -3.3660    0.2360 C.3     1  UNL1        0.4680
@<TRIPOS>BOND
     1     9     7    1
     2     9    11    2
     3     7     6    2
     4    13    11    1
     5    13    14    1
     6    11    10    1
     7     1     5    1
     8     1     2    1
     9    14    12    1
    10     6     5    1
    11     6     8    1
    12     3     2    1
    13    10     8    2
    14    10    12    1
    15     2     4    2
