@<TRIPOS>MOLECULE
/home/cewinharhar/GITHUB/reincatalyze/data/processed/docking_pred/2023-May-22-1902_sub9_nm5_bs15_s42_ex16_mel10_mts1000_k50_ec02_g099_lra9e-4_lrc1e-3/051d9442833557c4466992e4bdada3c2de553c76_ligand_9.pdbqt
 14 15 0 0 0
SMALL
GASTEIGER

@<TRIPOS>ATOM
      1  C          5.7230    2.5360    0.7520 C.3     1  UNL1        0.0800
      2  C          6.4140    3.7490    1.2710 C.2     1  UNL1        0.1300
      3  C          7.1320    4.6860    0.3660 C.3     1  UNL1        0.0870
      4  O          6.4120    4.0090    2.4630 O.2     1  UNL1       -0.3000
      5  C          6.3260    1.2700    1.3270 C.3     1  UNL1        0.0430
      6  C          6.7230    0.3250    0.2680 C.2     1  UNL1       -0.0440
      7  C          6.4560    0.5810   -1.0820 C.2     1  UNL1        0.0080
      8  C          7.3740   -0.8410    0.6030 C.2     1  UNL1        0.0540
      9  C          6.8530   -0.3430   -2.0320 C.2     1  UNL1        0.0510
     10  C          7.7740   -1.7710   -0.3610 C.2     1  UNL1        0.1660
     11  C          7.5100   -1.5200   -1.6890 C.2     1  UNL1        0.1650
     12  O          8.4240   -2.9840   -0.2830 O.2     1  UNL1       -0.4540
     13  O          8.0110   -2.5950   -2.4070 O.2     1  UNL1       -0.4540
     14  C          8.6790   -3.5030   -1.5640 C.3     1  UNL1        0.4680
@<TRIPOS>BOND
     1    13    11    1
     2    13    14    1
     3     9    11    2
     4     9     7    1
     5    11    10    1
     6    14    12    1
     7     7     6    2
     8    10    12    1
     9    10     8    2
    10     6     8    1
    11     6     5    1
    12     3     2    1
    13     1     2    1
    14     1     5    1
    15     2     4    2
