@<TRIPOS>MOLECULE
/home/cewinharhar/GITHUB/reincatalyze/data/processed/docking_pred/2023-May-22-1902_sub9_nm5_bs15_s42_ex16_mel10_mts1000_k50_ec02_g099_lra9e-4_lrc1e-3/05fc2472135fbee8f2c0d268145bdd055e68f396_ligand_9.pdbqt
 14 15 0 0 0
SMALL
GASTEIGER

@<TRIPOS>ATOM
      1  C          5.3360    2.9170    0.3090 C.3     1  UNL1        0.0800
      2  C          6.3300    3.7040    1.0910 C.2     1  UNL1        0.1300
      3  C          7.1480    4.7740    0.4610 C.3     1  UNL1        0.0870
      4  O          6.5020    3.4910    2.2800 O.2     1  UNL1       -0.3000
      5  C          5.0880    1.5610    0.9410 C.3     1  UNL1        0.0430
      6  C          5.9410    0.5170    0.3470 C.2     1  UNL1       -0.0440
      7  C          6.3190    0.5570   -1.0000 C.2     1  UNL1        0.0080
      8  C          6.3860   -0.5260    1.1270 C.2     1  UNL1        0.0540
      9  C          7.1230   -0.4500   -1.5020 C.2     1  UNL1        0.0510
     10  C          7.1980   -1.5420    0.6150 C.2     1  UNL1        0.1660
     11  C          7.5690   -1.5040   -0.7110 C.2     1  UNL1        0.1650
     12  O          7.7610   -2.6690    1.1760 O.2     1  UNL1       -0.4540
     13  O          8.3610   -2.6180   -0.9380 O.2     1  UNL1       -0.4540
     14  C          8.5830   -3.3360    0.2530 C.3     1  UNL1        0.4680
@<TRIPOS>BOND
     1     9     7    1
     2     9    11    2
     3     7     6    2
     4    13    11    1
     5    13    14    1
     6    11    10    1
     7    14    12    1
     8     1     5    1
     9     1     2    1
    10     6     5    1
    11     6     8    1
    12     3     2    1
    13    10     8    2
    14    10    12    1
    15     2     4    2
