@<TRIPOS>MOLECULE
/home/cewinharhar/GITHUB/reincatalyze/data/processed/docking_pred/2023-May-22-1902_sub9_nm5_bs15_s42_ex16_mel10_mts1000_k50_ec02_g099_lra9e-4_lrc1e-3/05fc2472135fbee8f2c0d268145bdd055e68f396_ligand_9.pdbqt
 14 15 0 0 0
SMALL
GASTEIGER

@<TRIPOS>ATOM
      1  C          5.3560    2.9000    0.0740 C.3     1  UNL1        0.0800
      2  C          6.2960    3.6170    0.9810 C.2     1  UNL1        0.1300
      3  C          7.1030    4.7750    0.5120 C.3     1  UNL1        0.0870
      4  O          6.4310    3.2710    2.1440 O.2     1  UNL1       -0.3000
      5  C          5.4250    1.4000    0.2850 C.3     1  UNL1        0.0430
      6  C          6.5650    0.7990   -0.4300 C.2     1  UNL1       -0.0440
      7  C          7.8230    1.4130   -0.4490 C.2     1  UNL1        0.0080
      8  C          6.4020   -0.3940   -1.0950 C.2     1  UNL1        0.0540
      9  C          8.8570    0.8020   -1.1360 C.2     1  UNL1        0.0510
     10  C          7.4500   -1.0080   -1.7880 C.2     1  UNL1        0.1660
     11  C          8.6880   -0.4040   -1.8080 C.2     1  UNL1        0.1650
     12  O          7.5390   -2.1750   -2.5160 O.2     1  UNL1       -0.4540
     13  O          9.5200   -1.2230   -2.5560 O.2     1  UNL1       -0.4540
     14  C          8.8560   -2.4010   -2.9480 C.3     1  UNL1        0.4680
@<TRIPOS>BOND
     1    14    13    1
     2    14    12    1
     3    13    11    1
     4    12    10    1
     5    11    10    2
     6    11     9    1
     7    10     8    1
     8     9     7    2
     9     8     6    2
    10     7     6    1
    11     6     5    1
    12     1     5    1
    13     1     2    1
    14     3     2    1
    15     2     4    2
