@<TRIPOS>MOLECULE
/home/cewinharhar/GITHUB/reincatalyze/data/processed/docking_pred/2023-May-22-1902_sub9_nm5_bs15_s42_ex16_mel10_mts1000_k50_ec02_g099_lra9e-4_lrc1e-3/074f71e156faecc69724e62cc987f5104d3c940c_ligand_9.pdbqt
 14 15 0 0 0
SMALL
GASTEIGER

@<TRIPOS>ATOM
      1  C          6.1330    0.7830    1.1750 C.3     1  UNL1        0.0800
      2  C          5.0100    1.7420    0.9790 C.2     1  UNL1        0.1300
      3  C          4.9380    2.6270   -0.2140 C.3     1  UNL1        0.0870
      4  O          4.1090    1.8280    1.7980 O.2     1  UNL1       -0.3000
      5  C          7.2240    0.9960    0.1440 C.3     1  UNL1        0.0430
      6  C          7.5600   -0.2530   -0.5630 C.2     1  UNL1       -0.0440
      7  C          7.5120   -0.3400   -1.9590 C.2     1  UNL1        0.0080
      8  C          7.9330   -1.3650    0.1570 C.2     1  UNL1        0.0540
      9  C          7.8380   -1.5380   -2.5670 C.2     1  UNL1        0.0510
     10  C          8.2620   -2.5740   -0.4630 C.2     1  UNL1        0.1660
     11  C          8.2140   -2.6610   -1.8370 C.2     1  UNL1        0.1650
     12  O          8.6570   -3.8020    0.0230 O.2     1  UNL1       -0.4540
     13  O          8.5850   -3.9550   -2.1690 O.2     1  UNL1       -0.4540
     14  C          8.9620   -4.6850   -1.0260 C.3     1  UNL1        0.4680
@<TRIPOS>BOND
     1     9     7    1
     2     9    11    2
     3    13    11    1
     4    13    14    1
     5     7     6    2
     6    11    10    1
     7    14    12    1
     8     6     5    1
     9     6     8    1
    10    10    12    1
    11    10     8    2
    12     3     2    1
    13     5     1    1
    14     2     1    1
    15     2     4    2
