@<TRIPOS>MOLECULE
/home/cewinharhar/GITHUB/reincatalyze/data/processed/docking_pred/2023-May-22-1902_sub9_nm5_bs15_s42_ex16_mel10_mts1000_k50_ec02_g099_lra9e-4_lrc1e-3/088b63c47bd4d7a6949fea46fb2e227d24226938_ligand_9.pdbqt
 14 15 0 0 0
SMALL
GASTEIGER

@<TRIPOS>ATOM
      1  C          5.3860    2.9100    0.1700 C.3     1  UNL1        0.0800
      2  C          6.3630    3.6760    0.9930 C.2     1  UNL1        0.1300
      3  C          7.1860    4.7700    0.4120 C.3     1  UNL1        0.0870
      4  O          6.5170    3.4240    2.1770 O.2     1  UNL1       -0.3000
      5  C          5.0710    1.5660    0.7970 C.3     1  UNL1        0.0430
      6  C          5.9480    0.5020    0.2780 C.2     1  UNL1       -0.0440
      7  C          6.3290   -0.5860    1.0720 C.2     1  UNL1        0.0080
      8  C          6.4070    0.5680   -1.0170 C.2     1  UNL1        0.0540
      9  C          7.1540   -1.5550    0.5310 C.2     1  UNL1        0.0510
     10  C          7.2400   -0.4150   -1.5600 C.2     1  UNL1        0.1660
     11  C          7.6170   -1.4850   -0.7790 C.2     1  UNL1        0.1650
     12  O          7.8210   -0.5750   -2.8000 O.2     1  UNL1       -0.4540
     13  O          8.4290   -2.2880   -1.5640 O.2     1  UNL1       -0.4540
     14  C          8.5110   -1.7950   -2.8800 C.3     1  UNL1        0.4680
@<TRIPOS>BOND
     1    14    12    1
     2    14    13    1
     3    12    10    1
     4    13    11    1
     5    10     8    1
     6    10    11    2
     7     8     6    2
     8    11     9    1
     9     1     5    1
    10     1     2    1
    11     6     5    1
    12     6     7    1
    13     3     2    1
    14     9     7    2
    15     2     4    2
