@<TRIPOS>MOLECULE
/home/cewinharhar/GITHUB/reincatalyze/data/processed/docking_pred/2023-May-22-1902_sub9_nm5_bs15_s42_ex16_mel10_mts1000_k50_ec02_g099_lra9e-4_lrc1e-3/08d2e2d4a7c660d60546aaed77652d308bf13ce5_ligand_9.pdbqt
 14 15 0 0 0
SMALL
GASTEIGER

@<TRIPOS>ATOM
      1  C          5.4170    2.9070    0.2810 C.3     1  UNL1        0.0800
      2  C          6.2620    3.8950    1.0080 C.2     1  UNL1        0.1300
      3  C          7.2260    4.7750    0.2930 C.3     1  UNL1        0.0870
      4  O          6.1880    4.0120    2.2200 O.2     1  UNL1       -0.3000
      5  C          5.3180    1.6010    1.0440 C.3     1  UNL1        0.0430
      6  C          6.1000    0.5310    0.3990 C.2     1  UNL1       -0.0440
      7  C          6.4170    0.5740   -0.9640 C.2     1  UNL1        0.0080
      8  C          6.5370   -0.5390    1.1460 C.2     1  UNL1        0.0540
      9  C          7.1550   -0.4590   -1.5140 C.2     1  UNL1        0.0510
     10  C          7.2830   -1.5800    0.5850 C.2     1  UNL1        0.1660
     11  C          7.5940   -1.5400   -0.7560 C.2     1  UNL1        0.1650
     12  O          7.8240   -2.7360    1.1070 O.2     1  UNL1       -0.4540
     13  O          8.3280   -2.6820   -1.0320 O.2     1  UNL1       -0.4540
     14  C          8.5750   -3.4230    0.1400 C.3     1  UNL1        0.4680
@<TRIPOS>BOND
     1     9     7    1
     2     9    11    2
     3    13    11    1
     4    13    14    1
     5     7     6    2
     6    11    10    1
     7    14    12    1
     8     1     2    1
     9     1     5    1
    10     3     2    1
    11     6     5    1
    12     6     8    1
    13    10    12    1
    14    10     8    2
    15     2     4    2
