@<TRIPOS>MOLECULE
/home/cewinharhar/GITHUB/reincatalyze/data/processed/docking_pred/2023-May-22-1902_sub9_nm5_bs15_s42_ex16_mel10_mts1000_k50_ec02_g099_lra9e-4_lrc1e-3/090474ec6ad34f6c7e6271970b3dfdf762d08d64_ligand_9.pdbqt
 14 15 0 0 0
SMALL
GASTEIGER

@<TRIPOS>ATOM
      1  C          6.0000    3.2750    0.0740 C.3     1  UNL1        0.0800
      2  C          6.6250    3.7260    1.3490 C.2     1  UNL1        0.1300
      3  C          8.0330    3.3900    1.6900 C.3     1  UNL1        0.0870
      4  O          5.9940    4.3890    2.1550 O.2     1  UNL1       -0.3000
      5  C          4.9950    2.1660    0.3160 C.3     1  UNL1        0.0430
      6  C          5.6570    0.8950    0.6630 C.2     1  UNL1       -0.0440
      7  C          5.4370    0.2670    1.8940 C.2     1  UNL1        0.0080
      8  C          6.5110    0.3020   -0.2390 C.2     1  UNL1        0.0540
      9  C          6.0850   -0.9250    2.1650 C.2     1  UNL1        0.0510
     10  C          7.1630   -0.9030    0.0390 C.2     1  UNL1        0.1660
     11  C          6.9480   -1.5210    1.2510 C.2     1  UNL1        0.1650
     12  O          8.0450   -1.6810   -0.6800 O.2     1  UNL1       -0.4540
     13  O          7.7110   -2.6790    1.2510 O.2     1  UNL1       -0.4540
     14  C          8.3520   -2.8650    0.0110 C.3     1  UNL1        0.4680
@<TRIPOS>BOND
     1    12    14    1
     2    12    10    1
     3     8    10    1
     4     8     6    2
     5    14    13    1
     6    10    11    2
     7     1     5    1
     8     1     2    1
     9     5     6    1
    10     6     7    1
    11    11    13    1
    12    11     9    1
    13     2     3    1
    14     2     4    2
    15     7     9    2
