@<TRIPOS>MOLECULE
/home/cewinharhar/GITHUB/reincatalyze/data/processed/docking_pred/2023-May-22-1902_sub9_nm5_bs15_s42_ex16_mel10_mts1000_k50_ec02_g099_lra9e-4_lrc1e-3/090474ec6ad34f6c7e6271970b3dfdf762d08d64_ligand_9.pdbqt
 14 15 0 0 0
SMALL
GASTEIGER

@<TRIPOS>ATOM
      1  C          5.7530    3.1710    0.2090 C.3     1  UNL1        0.0800
      2  C          6.6400    3.6430    1.3100 C.2     1  UNL1        0.1300
      3  C          8.1030    3.3760    1.3020 C.3     1  UNL1        0.0870
      4  O          6.1870    4.2670    2.2560 O.2     1  UNL1       -0.3000
      5  C          5.1260    1.8330    0.5440 C.3     1  UNL1        0.0430
      6  C          5.9540    0.7080    0.0730 C.2     1  UNL1       -0.0440
      7  C          6.3560    0.6030   -1.2630 C.2     1  UNL1        0.0080
      8  C          6.3480   -0.2670    0.9610 C.2     1  UNL1        0.0540
      9  C          7.1340   -0.4740   -1.6470 C.2     1  UNL1        0.0510
     10  C          7.1350   -1.3540    0.5680 C.2     1  UNL1        0.1660
     11  C          7.5300   -1.4590   -0.7470 C.2     1  UNL1        0.1650
     12  O          7.6490   -2.4370    1.2490 O.2     1  UNL1       -0.4540
     13  O          8.2880   -2.6150   -0.8470 O.2     1  UNL1       -0.4540
     14  C          8.4640   -3.2180    0.4130 C.3     1  UNL1        0.4680
@<TRIPOS>BOND
     1     9     7    1
     2     9    11    2
     3     7     6    2
     4    13    11    1
     5    13    14    1
     6    11    10    1
     7     6     5    1
     8     6     8    1
     9     1     5    1
    10     1     2    1
    11    14    12    1
    12    10     8    2
    13    10    12    1
    14     3     2    1
    15     2     4    2
