@<TRIPOS>MOLECULE
/home/cewinharhar/GITHUB/reincatalyze/data/processed/docking_pred/2023-May-22-1902_sub9_nm5_bs15_s42_ex16_mel10_mts1000_k50_ec02_g099_lra9e-4_lrc1e-3/09c0e00cbaa22f287e1ef7d21129eabb08ea3244_ligand_9.pdbqt
 14 15 0 0 0
SMALL
GASTEIGER

@<TRIPOS>ATOM
      1  C          5.8640    1.5810    0.9110 C.3     1  UNL1        0.0800
      2  C          5.3840    0.5500    1.8730 C.2     1  UNL1        0.1300
      3  C          6.2020   -0.6470    2.2070 C.3     1  UNL1        0.0870
      4  O          4.2980    0.6590    2.4180 O.2     1  UNL1       -0.3000
      5  C          5.7740    1.0850   -0.5180 C.3     1  UNL1        0.0430
      6  C          7.0170    0.4180   -0.9440 C.2     1  UNL1       -0.0440
      7  C          8.2690    1.0150   -0.7590 C.2     1  UNL1        0.0080
      8  C          6.9570   -0.8220   -1.5380 C.2     1  UNL1        0.0540
      9  C          9.4020    0.3410   -1.1780 C.2     1  UNL1        0.0510
     10  C          8.1050   -1.4990   -1.9600 C.2     1  UNL1        0.1660
     11  C          9.3380   -0.9120   -1.7790 C.2     1  UNL1        0.1650
     12  O          8.3060   -2.7200   -2.5670 O.2     1  UNL1       -0.4540
     13  O         10.2800   -1.7950   -2.2830 O.2     1  UNL1       -0.4540
     14  C          9.6770   -2.9930   -2.7090 C.3     1  UNL1        0.4680
@<TRIPOS>BOND
     1    14    12    1
     2    14    13    1
     3    12    10    1
     4    13    11    1
     5    10    11    2
     6    10     8    1
     7    11     9    1
     8     8     6    2
     9     9     7    2
    10     6     7    1
    11     6     5    1
    12     5     1    1
    13     1     2    1
    14     2     3    1
    15     2     4    2
