@<TRIPOS>MOLECULE
/home/cewinharhar/GITHUB/reincatalyze/data/processed/docking_pred/2023-May-22-1902_sub9_nm5_bs15_s42_ex16_mel10_mts1000_k50_ec02_g099_lra9e-4_lrc1e-3/09c0e00cbaa22f287e1ef7d21129eabb08ea3244_ligand_9.pdbqt
 14 15 0 0 0
SMALL
GASTEIGER

@<TRIPOS>ATOM
      1  C          5.8640    1.3720   -0.2830 C.3     1  UNL1        0.0800
      2  C          5.2590    1.1580    1.0610 C.2     1  UNL1        0.1300
      3  C          5.5990   -0.0290    1.8910 C.3     1  UNL1        0.0870
      4  O          4.4600    1.9570    1.5230 O.2     1  UNL1       -0.3000
      5  C          7.3780    1.3200   -0.2200 C.3     1  UNL1        0.0430
      6  C          7.9200    0.1970   -1.0060 C.2     1  UNL1       -0.0440
      7  C          7.2720   -0.2740   -2.1530 C.2     1  UNL1        0.0080
      8  C          9.0910   -0.4080   -0.6120 C.2     1  UNL1        0.0540
      9  C          7.8280   -1.3300   -2.8520 C.2     1  UNL1        0.0510
     10  C          9.6490   -1.4760   -1.3220 C.2     1  UNL1        0.1660
     11  C          9.0120   -1.9410   -2.4510 C.2     1  UNL1        0.1650
     12  O         10.7850   -2.2350   -1.1380 O.2     1  UNL1       -0.4540
     13  O          9.7780   -2.9860   -2.9420 O.2     1  UNL1       -0.4540
     14  C         10.9580   -3.1470   -2.1910 C.3     1  UNL1        0.4680
@<TRIPOS>BOND
     1    13    11    1
     2    13    14    1
     3     9    11    2
     4     9     7    1
     5    11    10    1
     6    14    12    1
     7     7     6    2
     8    10    12    1
     9    10     8    2
    10     6     8    1
    11     6     5    1
    12     1     5    1
    13     1     2    1
    14     2     4    2
    15     2     3    1
