@<TRIPOS>MOLECULE
/home/cewinharhar/GITHUB/reincatalyze/data/processed/docking_pred/2023-May-22-1902_sub9_nm5_bs15_s42_ex16_mel10_mts1000_k50_ec02_g099_lra9e-4_lrc1e-3/09c0e00cbaa22f287e1ef7d21129eabb08ea3244_ligand_9.pdbqt
 14 15 0 0 0
SMALL
GASTEIGER

@<TRIPOS>ATOM
      1  C          5.7550    0.6430    0.4230 C.3     1  UNL1        0.0800
      2  C          5.2280    1.9650    0.8640 C.2     1  UNL1        0.1300
      3  C          5.9090    3.2370    0.5030 C.3     1  UNL1        0.0870
      4  O          4.2140    2.0410    1.5390 O.2     1  UNL1       -0.3000
      5  C          6.1860    0.6790   -1.0300 C.3     1  UNL1        0.0430
      6  C          7.4940    0.0290   -1.2280 C.2     1  UNL1       -0.0440
      7  C          8.6810    0.6170   -0.7760 C.2     1  UNL1        0.0080
      8  C          7.5610   -1.1870   -1.8700 C.2     1  UNL1        0.0540
      9  C          9.8790   -0.0400   -0.9900 C.2     1  UNL1        0.0510
     10  C          8.7750   -1.8470   -2.0830 C.2     1  UNL1        0.1660
     11  C          9.9430   -1.2690   -1.6390 C.2     1  UNL1        0.1650
     12  O          9.1000   -3.0440   -2.6860 O.2     1  UNL1       -0.4540
     13  O         10.9720   -2.1320   -1.9810 O.2     1  UNL1       -0.4540
     14  C         10.4740   -3.3120   -2.5650 C.3     1  UNL1        0.4680
@<TRIPOS>BOND
     1    12    14    1
     2    12    10    1
     3    14    13    1
     4    10     8    1
     5    10    11    2
     6    13    11    1
     7     8     6    2
     8    11     9    1
     9     6     5    1
    10     6     7    1
    11     5     1    1
    12     9     7    2
    13     1     2    1
    14     3     2    1
    15     2     4    2
