MODEL 1
REMARK VINA RESULT:      -8.2      0.000      0.000
REMARK SMILES CC(=O)CCc1ccc2c(c1)OCO2
REMARK SMILES IDX 4 1 2 2 1 3 3 4 5 5 6 6 7 7 11 8 8 9 10 10 9 11 12 12 14 13
REMARK SMILES IDX 13 14
REMARK H PARENT
REMARK Flexibility Score: inf
ROOT
ATOM      1  C   UNL     1       5.864   1.581   0.911  1.00  0.00     0.080 C 
ENDROOT
BRANCH   1   2
ATOM      2  C   UNL     1       5.384   0.550   1.873  1.00  0.00     0.130 C 
ATOM      3  C   UNL     1       6.202  -0.647   2.207  1.00  0.00     0.087 C 
ATOM      4  O   UNL     1       4.298   0.659   2.418  1.00  0.00    -0.300 OA
ENDBRANCH   1   2
BRANCH   1   5
ATOM      5  C   UNL     1       5.774   1.085  -0.518  1.00  0.00     0.043 C 
BRANCH   5   6
ATOM      6  C   UNL     1       7.017   0.418  -0.944  1.00  0.00    -0.044 A 
ATOM      7  C   UNL     1       8.269   1.015  -0.759  1.00  0.00     0.008 A 
ATOM      8  C   UNL     1       6.957  -0.822  -1.538  1.00  0.00     0.054 A 
ATOM      9  C   UNL     1       9.402   0.341  -1.178  1.00  0.00     0.051 A 
ATOM     10  C   UNL     1       8.105  -1.499  -1.960  1.00  0.00     0.166 A 
ATOM     11  C   UNL     1       9.338  -0.912  -1.779  1.00  0.00     0.165 A 
ATOM     12  O   UNL     1       8.306  -2.720  -2.567  1.00  0.00    -0.454 OA
ATOM     13  O   UNL     1      10.280  -1.795  -2.283  1.00  0.00    -0.454 OA
ATOM     14  C   UNL     1       9.677  -2.993  -2.709  1.00  0.00     0.468 C 
ENDBRANCH   5   6
ENDBRANCH   1   5
TORSDOF 3
ENDMDL
MODEL 2
REMARK VINA RESULT:      -7.8      2.129      2.568
REMARK SMILES CC(=O)CCc1ccc2c(c1)OCO2
REMARK SMILES IDX 4 1 2 2 1 3 3 4 5 5 6 6 7 7 11 8 8 9 10 10 9 11 12 12 14 13
REMARK SMILES IDX 13 14
REMARK H PARENT
REMARK Flexibility Score: inf
ROOT
ATOM      1  C   UNL     1       5.634   1.324  -0.478  1.00  0.00     0.080 C 
ENDROOT
BRANCH   1   2
ATOM      2  C   UNL     1       5.343   2.366   0.545  1.00  0.00     0.130 C 
ATOM      3  C   UNL     1       6.144   3.617   0.635  1.00  0.00     0.087 C 
ATOM      4  O   UNL     1       4.433   2.223   1.345  1.00  0.00    -0.300 OA
ENDBRANCH   1   2
BRANCH   1   5
ATOM      5  C   UNL     1       6.245   0.088   0.153  1.00  0.00     0.043 C 
BRANCH   5   6
ATOM      6  C   UNL     1       7.692  -0.003  -0.113  1.00  0.00    -0.044 A 
ATOM      7  C   UNL     1       8.340   0.903  -0.960  1.00  0.00     0.008 A 
ATOM      8  C   UNL     1       8.434  -0.997   0.483  1.00  0.00     0.054 A 
ATOM      9  C   UNL     1       9.700   0.769  -1.172  1.00  0.00     0.051 A 
ATOM     10  C   UNL     1       9.809  -1.128   0.266  1.00  0.00     0.166 A 
ATOM     11  C   UNL     1      10.447  -0.238  -0.569  1.00  0.00     0.165 A 
ATOM     12  O   UNL     1      10.753  -2.018   0.732  1.00  0.00    -0.454 OA
ATOM     13  O   UNL     1      11.784  -0.603  -0.597  1.00  0.00    -0.454 OA
ATOM     14  C   UNL     1      12.038  -1.670   0.285  1.00  0.00     0.468 C 
ENDBRANCH   5   6
ENDBRANCH   1   5
TORSDOF 3
ENDMDL
MODEL 3
REMARK VINA RESULT:      -7.8      1.071      1.479
REMARK SMILES CC(=O)CCc1ccc2c(c1)OCO2
REMARK SMILES IDX 4 1 2 2 1 3 3 4 5 5 6 6 7 7 11 8 8 9 10 10 9 11 12 12 14 13
REMARK SMILES IDX 13 14
REMARK H PARENT
REMARK Flexibility Score: inf
ROOT
ATOM      1  C   UNL     1       5.755   0.643   0.423  1.00  0.00     0.080 C 
ENDROOT
BRANCH   1   2
ATOM      2  C   UNL     1       5.228   1.965   0.864  1.00  0.00     0.130 C 
ATOM      3  C   UNL     1       5.909   3.237   0.503  1.00  0.00     0.087 C 
ATOM      4  O   UNL     1       4.214   2.041   1.539  1.00  0.00    -0.300 OA
ENDBRANCH   1   2
BRANCH   1   5
ATOM      5  C   UNL     1       6.186   0.679  -1.030  1.00  0.00     0.043 C 
BRANCH   5   6
ATOM      6  C   UNL     1       7.494   0.029  -1.228  1.00  0.00    -0.044 A 
ATOM      7  C   UNL     1       8.681   0.617  -0.776  1.00  0.00     0.008 A 
ATOM      8  C   UNL     1       7.561  -1.187  -1.870  1.00  0.00     0.054 A 
ATOM      9  C   UNL     1       9.879  -0.040  -0.990  1.00  0.00     0.051 A 
ATOM     10  C   UNL     1       8.775  -1.847  -2.083  1.00  0.00     0.166 A 
ATOM     11  C   UNL     1       9.943  -1.269  -1.639  1.00  0.00     0.165 A 
ATOM     12  O   UNL     1       9.100  -3.044  -2.686  1.00  0.00    -0.454 OA
ATOM     13  O   UNL     1      10.972  -2.132  -1.981  1.00  0.00    -0.454 OA
ATOM     14  C   UNL     1      10.474  -3.312  -2.565  1.00  0.00     0.468 C 
ENDBRANCH   5   6
ENDBRANCH   1   5
TORSDOF 3
ENDMDL
MODEL 4
REMARK VINA RESULT:      -7.7      1.068      1.785
REMARK SMILES CC(=O)CCc1ccc2c(c1)OCO2
REMARK SMILES IDX 4 1 2 2 1 3 3 4 5 5 6 6 7 7 11 8 8 9 10 10 9 11 12 12 14 13
REMARK SMILES IDX 13 14
REMARK H PARENT
REMARK Flexibility Score: inf
ROOT
ATOM      1  C   UNL     1       5.864   1.372  -0.283  1.00  0.00     0.080 C 
ENDROOT
BRANCH   1   2
ATOM      2  C   UNL     1       5.259   1.158   1.061  1.00  0.00     0.130 C 
ATOM      3  C   UNL     1       5.599  -0.029   1.891  1.00  0.00     0.087 C 
ATOM      4  O   UNL     1       4.460   1.957   1.523  1.00  0.00    -0.300 OA
ENDBRANCH   1   2
BRANCH   1   5
ATOM      5  C   UNL     1       7.378   1.320  -0.220  1.00  0.00     0.043 C 
BRANCH   5   6
ATOM      6  C   UNL     1       7.920   0.197  -1.006  1.00  0.00    -0.044 A 
ATOM      7  C   UNL     1       7.272  -0.274  -2.153  1.00  0.00     0.008 A 
ATOM      8  C   UNL     1       9.091  -0.408  -0.612  1.00  0.00     0.054 A 
ATOM      9  C   UNL     1       7.828  -1.330  -2.852  1.00  0.00     0.051 A 
ATOM     10  C   UNL     1       9.649  -1.476  -1.322  1.00  0.00     0.166 A 
ATOM     11  C   UNL     1       9.012  -1.941  -2.451  1.00  0.00     0.165 A 
ATOM     12  O   UNL     1      10.785  -2.235  -1.138  1.00  0.00    -0.454 OA
ATOM     13  O   UNL     1       9.778  -2.986  -2.942  1.00  0.00    -0.454 OA
ATOM     14  C   UNL     1      10.958  -3.147  -2.191  1.00  0.00     0.468 C 
ENDBRANCH   5   6
ENDBRANCH   1   5
TORSDOF 3
ENDMDL
MODEL 5
REMARK VINA RESULT:      -7.6      1.265      2.104
REMARK SMILES CC(=O)CCc1ccc2c(c1)OCO2
REMARK SMILES IDX 4 1 2 2 1 3 3 4 5 5 6 6 7 7 11 8 8 9 10 10 9 11 12 12 14 13
REMARK SMILES IDX 13 14
REMARK H PARENT
REMARK Flexibility Score: inf
ROOT
ATOM      1  C   UNL     1       6.441   0.753   0.776  1.00  0.00     0.080 C 
ENDROOT
BRANCH   1   2
ATOM      2  C   UNL     1       5.250   1.645   0.851  1.00  0.00     0.130 C 
ATOM      3  C   UNL     1       4.939   2.625  -0.224  1.00  0.00     0.087 C 
ATOM      4  O   UNL     1       4.490   1.596   1.804  1.00  0.00    -0.300 OA
ENDBRANCH   1   2
BRANCH   1   5
ATOM      5  C   UNL     1       7.442   1.257  -0.244  1.00  0.00     0.043 C 
BRANCH   5   6
ATOM      6  C   UNL     1       8.003   0.157  -1.049  1.00  0.00    -0.044 A 
ATOM      7  C   UNL     1       7.423  -0.233  -2.261  1.00  0.00     0.008 A 
ATOM      8  C   UNL     1       9.126  -0.507  -0.609  1.00  0.00     0.054 A 
ATOM      9  C   UNL     1       7.994  -1.272  -2.974  1.00  0.00     0.051 A 
ATOM     10  C   UNL     1       9.699  -1.555  -1.334  1.00  0.00     0.166 A 
ATOM     11  C   UNL     1       9.129  -1.941  -2.526  1.00  0.00     0.165 A 
ATOM     12  O   UNL     1      10.796  -2.361  -1.112  1.00  0.00    -0.454 OA
ATOM     13  O   UNL     1       9.895  -2.986  -3.017  1.00  0.00    -0.454 OA
ATOM     14  C   UNL     1      11.015  -3.225  -2.198  1.00  0.00     0.468 C 
ENDBRANCH   5   6
ENDBRANCH   1   5
TORSDOF 3
ENDMDL
