@<TRIPOS>MOLECULE
/home/cewinharhar/GITHUB/reincatalyze/data/processed/docking_pred/2023-May-22-1902_sub9_nm5_bs15_s42_ex16_mel10_mts1000_k50_ec02_g099_lra9e-4_lrc1e-3/09c0e00cbaa22f287e1ef7d21129eabb08ea3244_ligand_9.pdbqt
 14 15 0 0 0
SMALL
GASTEIGER

@<TRIPOS>ATOM
      1  C          5.6340    1.3240   -0.4780 C.3     1  UNL1        0.0800
      2  C          5.3430    2.3660    0.5450 C.2     1  UNL1        0.1300
      3  C          6.1440    3.6170    0.6350 C.3     1  UNL1        0.0870
      4  O          4.4330    2.2230    1.3450 O.2     1  UNL1       -0.3000
      5  C          6.2450    0.0880    0.1530 C.3     1  UNL1        0.0430
      6  C          7.6920   -0.0030   -0.1130 C.2     1  UNL1       -0.0440
      7  C          8.3400    0.9030   -0.9600 C.2     1  UNL1        0.0080
      8  C          8.4340   -0.9970    0.4830 C.2     1  UNL1        0.0540
      9  C          9.7000    0.7690   -1.1720 C.2     1  UNL1        0.0510
     10  C          9.8090   -1.1280    0.2660 C.2     1  UNL1        0.1660
     11  C         10.4470   -0.2380   -0.5690 C.2     1  UNL1        0.1650
     12  O         10.7530   -2.0180    0.7320 O.2     1  UNL1       -0.4540
     13  O         11.7840   -0.6030   -0.5970 O.2     1  UNL1       -0.4540
     14  C         12.0380   -1.6700    0.2850 C.3     1  UNL1        0.4680
@<TRIPOS>BOND
     1     9     7    1
     2     9    11    2
     3     7     6    2
     4    13    11    1
     5    13    14    1
     6    11    10    1
     7     1     5    1
     8     1     2    1
     9     6     5    1
    10     6     8    1
    11    10     8    2
    12    10    12    1
    13    14    12    1
    14     2     3    1
    15     2     4    2
