@<TRIPOS>MOLECULE
/home/cewinharhar/GITHUB/reincatalyze/data/processed/docking_pred/2023-May-22-1902_sub9_nm5_bs15_s42_ex16_mel10_mts1000_k50_ec02_g099_lra9e-4_lrc1e-3/09c0e00cbaa22f287e1ef7d21129eabb08ea3244_ligand_9.pdbqt
 14 15 0 0 0
SMALL
GASTEIGER

@<TRIPOS>ATOM
      1  C          6.4410    0.7530    0.7760 C.3     1  UNL1        0.0800
      2  C          5.2500    1.6450    0.8510 C.2     1  UNL1        0.1300
      3  C          4.9390    2.6250   -0.2240 C.3     1  UNL1        0.0870
      4  O          4.4900    1.5960    1.8040 O.2     1  UNL1       -0.3000
      5  C          7.4420    1.2570   -0.2440 C.3     1  UNL1        0.0430
      6  C          8.0030    0.1570   -1.0490 C.2     1  UNL1       -0.0440
      7  C          7.4230   -0.2330   -2.2610 C.2     1  UNL1        0.0080
      8  C          9.1260   -0.5070   -0.6090 C.2     1  UNL1        0.0540
      9  C          7.9940   -1.2720   -2.9740 C.2     1  UNL1        0.0510
     10  C          9.6990   -1.5550   -1.3340 C.2     1  UNL1        0.1660
     11  C          9.1290   -1.9410   -2.5260 C.2     1  UNL1        0.1650
     12  O         10.7960   -2.3610   -1.1120 O.2     1  UNL1       -0.4540
     13  O          9.8950   -2.9860   -3.0170 O.2     1  UNL1       -0.4540
     14  C         11.0150   -3.2250   -2.1980 C.3     1  UNL1        0.4680
@<TRIPOS>BOND
     1    13    11    1
     2    13    14    1
     3     9    11    2
     4     9     7    1
     5    11    10    1
     6     7     6    2
     7    14    12    1
     8    10    12    1
     9    10     8    2
    10     6     8    1
    11     6     5    1
    12     5     1    1
    13     3     2    1
    14     1     2    1
    15     2     4    2
