@<TRIPOS>MOLECULE
/home/cewinharhar/GITHUB/reincatalyze/data/processed/docking_pred/2023-May-22-1902_sub9_nm5_bs15_s42_ex16_mel10_mts1000_k50_ec02_g099_lra9e-4_lrc1e-3/0bc78f1071f374665515956646110ea4a2a90639_ligand_9.pdbqt
 14 15 0 0 0
SMALL
GASTEIGER

@<TRIPOS>ATOM
      1  C          5.7820    1.3720   -0.3610 C.3     1  UNL1        0.0800
      2  C          5.1440    1.3270    0.9850 C.2     1  UNL1        0.1300
      3  C          5.4170    0.2210    1.9410 C.3     1  UNL1        0.0870
      4  O          4.3740    2.2030    1.3430 O.2     1  UNL1       -0.3000
      5  C          7.2670    1.0820   -0.2760 C.3     1  UNL1        0.0430
      6  C          7.6060   -0.2170   -0.8840 C.2     1  UNL1       -0.0440
      7  C          7.6090   -0.3990   -2.2720 C.2     1  UNL1        0.0080
      8  C          7.9320   -1.2830   -0.0770 C.2     1  UNL1        0.0540
      9  C          7.9360   -1.6400   -2.7850 C.2     1  UNL1        0.0510
     10  C          8.2620   -2.5370   -0.6010 C.2     1  UNL1        0.1660
     11  C          8.2640   -2.7170   -1.9660 C.2     1  UNL1        0.1650
     12  O          8.6160   -3.7350   -0.0190 O.2     1  UNL1       -0.4540
     13  O          8.6240   -4.0350   -2.1960 O.2     1  UNL1       -0.4540
     14  C          8.9440   -4.6920   -0.9930 C.3     1  UNL1        0.4680
@<TRIPOS>BOND
     1     9     7    1
     2     9    11    2
     3     7     6    2
     4    13    11    1
     5    13    14    1
     6    11    10    1
     7    14    12    1
     8     6     5    1
     9     6     8    1
    10    10     8    2
    11    10    12    1
    12     1     5    1
    13     1     2    1
    14     2     4    2
    15     2     3    1
