@<TRIPOS>MOLECULE
/home/cewinharhar/GITHUB/reincatalyze/data/processed/docking_pred/2023-May-22-1902_sub9_nm5_bs15_s42_ex16_mel10_mts1000_k50_ec02_g099_lra9e-4_lrc1e-3/0bc78f1071f374665515956646110ea4a2a90639_ligand_9.pdbqt
 14 15 0 0 0
SMALL
GASTEIGER

@<TRIPOS>ATOM
      1  C          5.4970    2.7690    0.3690 C.3     1  UNL1        0.0800
      2  C          6.2320    3.8770    1.0400 C.2     1  UNL1        0.1300
      3  C          7.1520    4.7720    0.2880 C.3     1  UNL1        0.0870
      4  O          6.1000    4.0830    2.2360 O.2     1  UNL1       -0.3000
      5  C          5.5680    1.4910    1.1800 C.3     1  UNL1        0.0430
      6  C          6.2780    0.4220    0.4550 C.2     1  UNL1       -0.0440
      7  C          6.4790    0.4830   -0.9290 C.2     1  UNL1        0.0080
      8  C          6.7620   -0.6660    1.1450 C.2     1  UNL1        0.0540
      9  C          7.1530   -0.5490   -1.5560 C.2     1  UNL1        0.0510
     10  C          7.4430   -1.7070    0.5070 C.2     1  UNL1        0.1660
     11  C          7.6400   -1.6480   -0.8550 C.2     1  UNL1        0.1650
     12  O          8.0110   -2.8780    0.9640 O.2     1  UNL1       -0.4540
     13  O          8.3320   -2.7950   -1.2090 O.2     1  UNL1       -0.4540
     14  C          8.6670   -3.5580   -0.0750 C.3     1  UNL1        0.4680
@<TRIPOS>BOND
     1     9     7    1
     2     9    11    2
     3    13    11    1
     4    13    14    1
     5     7     6    2
     6    11    10    1
     7    14    12    1
     8     3     2    1
     9     1     2    1
    10     1     5    1
    11     6     8    1
    12     6     5    1
    13    10    12    1
    14    10     8    2
    15     2     4    2
