MODEL 1
REMARK VINA RESULT:      -7.9      0.000      0.000
REMARK SMILES CC(=O)CCc1ccc2c(c1)OCO2
REMARK SMILES IDX 4 1 2 2 1 3 3 4 5 5 6 6 7 7 11 8 8 9 10 10 9 11 12 12 14 13
REMARK SMILES IDX 13 14
REMARK H PARENT
REMARK Flexibility Score: inf
ROOT
ATOM      1  C   UNL     1       5.431   2.896   0.061  1.00  0.00     0.080 C 
ENDROOT
BRANCH   1   2
ATOM      2  C   UNL     1       6.249   3.808   0.909  1.00  0.00     0.130 C 
ATOM      3  C   UNL     1       7.213   4.772   0.315  1.00  0.00     0.087 C 
ATOM      4  O   UNL     1       6.151   3.788   2.126  1.00  0.00    -0.300 OA
ENDBRANCH   1   2
BRANCH   1   5
ATOM      5  C   UNL     1       5.159   1.583   0.768  1.00  0.00     0.043 C 
BRANCH   5   6
ATOM      6  C   UNL     1       6.000   0.494   0.239  1.00  0.00    -0.044 A 
ATOM      7  C   UNL     1       6.318  -0.628   1.013  1.00  0.00     0.008 A 
ATOM      8  C   UNL     1       6.487   0.570  -1.046  1.00  0.00     0.054 A 
ATOM      9  C   UNL     1       7.111  -1.619   0.464  1.00  0.00     0.051 A 
ATOM     10  C   UNL     1       7.288  -0.435  -1.597  1.00  0.00     0.166 A 
ATOM     11  C   UNL     1       7.603  -1.538  -0.835  1.00  0.00     0.165 A 
ATOM     12  O   UNL     1       7.886  -0.590  -2.829  1.00  0.00    -0.454 OA
ATOM     13  O   UNL     1       8.395  -2.357  -1.625  1.00  0.00    -0.454 OA
ATOM     14  C   UNL     1       8.525  -1.837  -2.926  1.00  0.00     0.468 C 
ENDBRANCH   5   6
ENDBRANCH   1   5
TORSDOF 3
ENDMDL
MODEL 2
REMARK VINA RESULT:      -7.6      1.875      2.609
REMARK SMILES CC(=O)CCc1ccc2c(c1)OCO2
REMARK SMILES IDX 4 1 2 2 1 3 3 4 5 5 6 6 7 7 11 8 8 9 10 10 9 11 12 12 14 13
REMARK SMILES IDX 13 14
REMARK H PARENT
REMARK Flexibility Score: inf
ROOT
ATOM      1  C   UNL     1       5.514   1.947   1.256  1.00  0.00     0.080 C 
ENDROOT
BRANCH   1   2
ATOM      2  C   UNL     1       5.095   0.731   2.007  1.00  0.00     0.130 C 
ATOM      3  C   UNL     1       6.009  -0.429   2.187  1.00  0.00     0.087 C 
ATOM      4  O   UNL     1       3.981   0.650   2.498  1.00  0.00    -0.300 OA
ENDBRANCH   1   2
BRANCH   1   5
ATOM      5  C   UNL     1       5.386   1.742  -0.241  1.00  0.00     0.043 C 
BRANCH   5   6
ATOM      6  C   UNL     1       6.557   1.042  -0.798  1.00  0.00    -0.044 A 
ATOM      7  C   UNL     1       7.862   1.479  -0.543  1.00  0.00     0.008 A 
ATOM      8  C   UNL     1       6.375  -0.070  -1.588  1.00  0.00     0.054 A 
ATOM      9  C   UNL     1       8.923   0.782  -1.092  1.00  0.00     0.051 A 
ATOM     10  C   UNL     1       7.451  -0.772  -2.140  1.00  0.00     0.166 A 
ATOM     11  C   UNL     1       8.735  -0.342  -1.891  1.00  0.00     0.165 A 
ATOM     12  O   UNL     1       7.531  -1.888  -2.946  1.00  0.00    -0.454 OA
ATOM     13  O   UNL     1       9.586  -1.213  -2.554  1.00  0.00    -0.454 OA
ATOM     14  C   UNL     1       8.868  -2.261  -3.161  1.00  0.00     0.468 C 
ENDBRANCH   5   6
ENDBRANCH   1   5
TORSDOF 3
ENDMDL
MODEL 3
REMARK VINA RESULT:      -7.6      1.103      1.527
REMARK SMILES CC(=O)CCc1ccc2c(c1)OCO2
REMARK SMILES IDX 4 1 2 2 1 3 3 4 5 5 6 6 7 7 11 8 8 9 10 10 9 11 12 12 14 13
REMARK SMILES IDX 13 14
REMARK H PARENT
REMARK Flexibility Score: inf
ROOT
ATOM      1  C   UNL     1       5.399   2.859   0.118  1.00  0.00     0.080 C 
ENDROOT
BRANCH   1   2
ATOM      2  C   UNL     1       6.269   3.742   0.944  1.00  0.00     0.130 C 
ATOM      3  C   UNL     1       7.143   4.775   0.327  1.00  0.00     0.087 C 
ATOM      4  O   UNL     1       6.290   3.641   2.160  1.00  0.00    -0.300 OA
ENDBRANCH   1   2
BRANCH   1   5
ATOM      5  C   UNL     1       5.598   1.399   0.475  1.00  0.00     0.043 C 
BRANCH   5   6
ATOM      6  C   UNL     1       6.687   0.789  -0.308  1.00  0.00    -0.044 A 
ATOM      7  C   UNL     1       7.956   1.375  -0.380  1.00  0.00     0.008 A 
ATOM      8  C   UNL     1       6.462  -0.387  -0.988  1.00  0.00     0.054 A 
ATOM      9  C   UNL     1       8.939   0.756  -1.131  1.00  0.00     0.051 A 
ATOM     10  C   UNL     1       7.460  -1.009  -1.744  1.00  0.00     0.166 A 
ATOM     11  C   UNL     1       8.708  -0.432  -1.817  1.00  0.00     0.165 A 
ATOM     12  O   UNL     1       7.485  -2.162  -2.499  1.00  0.00    -0.454 OA
ATOM     13  O   UNL     1       9.483  -1.253  -2.622  1.00  0.00    -0.454 OA
ATOM     14  C   UNL     1       8.773  -2.408  -3.002  1.00  0.00     0.468 C 
ENDBRANCH   5   6
ENDBRANCH   1   5
TORSDOF 3
ENDMDL
MODEL 4
REMARK VINA RESULT:      -7.5      1.069      2.042
REMARK SMILES CC(=O)CCc1ccc2c(c1)OCO2
REMARK SMILES IDX 4 1 2 2 1 3 3 4 5 5 6 6 7 7 11 8 8 9 10 10 9 11 12 12 14 13
REMARK SMILES IDX 13 14
REMARK H PARENT
REMARK Flexibility Score: inf
ROOT
ATOM      1  C   UNL     1       5.571   2.889  -0.125  1.00  0.00     0.080 C 
ENDROOT
BRANCH   1   2
ATOM      2  C   UNL     1       6.464   3.548   0.868  1.00  0.00     0.130 C 
ATOM      3  C   UNL     1       7.240   4.771   0.530  1.00  0.00     0.087 C 
ATOM      4  O   UNL     1       6.587   3.098   1.996  1.00  0.00    -0.300 OA
ENDBRANCH   1   2
BRANCH   1   5
ATOM      5  C   UNL     1       5.101   1.535   0.370  1.00  0.00     0.043 C 
BRANCH   5   6
ATOM      6  C   UNL     1       6.002   0.452  -0.061  1.00  0.00    -0.044 A 
ATOM      7  C   UNL     1       6.495   0.386  -1.370  1.00  0.00     0.008 A 
ATOM      8  C   UNL     1       6.378  -0.521   0.836  1.00  0.00     0.054 A 
ATOM      9  C   UNL     1       7.338  -0.653  -1.717  1.00  0.00     0.051 A 
ATOM     10  C   UNL     1       7.232  -1.570   0.480  1.00  0.00     0.166 A 
ATOM     11  C   UNL     1       7.715  -1.636  -0.808  1.00  0.00     0.165 A 
ATOM     12  O   UNL     1       7.744  -2.643   1.178  1.00  0.00    -0.454 OA
ATOM     13  O   UNL     1       8.524  -2.760  -0.874  1.00  0.00    -0.454 OA
ATOM     14  C   UNL     1       8.642  -3.377   0.386  1.00  0.00     0.468 C 
ENDBRANCH   5   6
ENDBRANCH   1   5
TORSDOF 3
ENDMDL
MODEL 5
REMARK VINA RESULT:      -7.4      1.956      3.005
REMARK SMILES CC(=O)CCc1ccc2c(c1)OCO2
REMARK SMILES IDX 4 1 2 2 1 3 3 4 5 5 6 6 7 7 11 8 8 9 10 10 9 11 12 12 14 13
REMARK SMILES IDX 13 14
REMARK H PARENT
REMARK Flexibility Score: inf
ROOT
ATOM      1  C   UNL     1       5.755   1.361  -0.318  1.00  0.00     0.080 C 
ENDROOT
BRANCH   1   2
ATOM      2  C   UNL     1       5.135   1.293   1.035  1.00  0.00     0.130 C 
ATOM      3  C   UNL     1       5.379   0.145   1.949  1.00  0.00     0.087 C 
ATOM      4  O   UNL     1       4.403   2.184   1.434  1.00  0.00    -0.300 OA
ENDBRANCH   1   2
BRANCH   1   5
ATOM      5  C   UNL     1       7.249   1.110  -0.251  1.00  0.00     0.043 C 
BRANCH   5   6
ATOM      6  C   UNL     1       7.614  -0.184  -0.856  1.00  0.00    -0.044 A 
ATOM      7  C   UNL     1       7.678  -0.352  -2.244  1.00  0.00     0.008 A 
ATOM      8  C   UNL     1       7.901  -1.258  -0.046  1.00  0.00     0.054 A 
ATOM      9  C   UNL     1       8.027  -1.589  -2.755  1.00  0.00     0.051 A 
ATOM     10  C   UNL     1       8.254  -2.507  -0.567  1.00  0.00     0.166 A 
ATOM     11  C   UNL     1       8.317  -2.673  -1.933  1.00  0.00     0.165 A 
ATOM     12  O   UNL     1       8.580  -3.712   0.019  1.00  0.00    -0.454 OA
ATOM     13  O   UNL     1       8.685  -3.990  -2.159  1.00  0.00    -0.454 OA
ATOM     14  C   UNL     1       8.950  -4.659  -0.949  1.00  0.00     0.468 C 
ENDBRANCH   5   6
ENDBRANCH   1   5
TORSDOF 3
ENDMDL
