@<TRIPOS>MOLECULE
/home/cewinharhar/GITHUB/reincatalyze/data/processed/docking_pred/2023-May-22-1902_sub9_nm5_bs15_s42_ex16_mel10_mts1000_k50_ec02_g099_lra9e-4_lrc1e-3/0df60b8790b800bbceb9ee276e91b409308b6f54_ligand_9.pdbqt
 14 15 0 0 0
SMALL
GASTEIGER

@<TRIPOS>ATOM
      1  C          5.5140    1.9470    1.2560 C.3     1  UNL1        0.0800
      2  C          5.0950    0.7310    2.0070 C.2     1  UNL1        0.1300
      3  C          6.0090   -0.4290    2.1870 C.3     1  UNL1        0.0870
      4  O          3.9810    0.6500    2.4980 O.2     1  UNL1       -0.3000
      5  C          5.3860    1.7420   -0.2410 C.3     1  UNL1        0.0430
      6  C          6.5570    1.0420   -0.7980 C.2     1  UNL1       -0.0440
      7  C          7.8620    1.4790   -0.5430 C.2     1  UNL1        0.0080
      8  C          6.3750   -0.0700   -1.5880 C.2     1  UNL1        0.0540
      9  C          8.9230    0.7820   -1.0920 C.2     1  UNL1        0.0510
     10  C          7.4510   -0.7720   -2.1400 C.2     1  UNL1        0.1660
     11  C          8.7350   -0.3420   -1.8910 C.2     1  UNL1        0.1650
     12  O          7.5310   -1.8880   -2.9460 O.2     1  UNL1       -0.4540
     13  O          9.5860   -1.2130   -2.5540 O.2     1  UNL1       -0.4540
     14  C          8.8680   -2.2610   -3.1610 C.3     1  UNL1        0.4680
@<TRIPOS>BOND
     1    14    12    1
     2    14    13    1
     3    12    10    1
     4    13    11    1
     5    10    11    2
     6    10     8    1
     7    11     9    1
     8     8     6    2
     9     9     7    2
    10     6     7    1
    11     6     5    1
    12     5     1    1
    13     1     2    1
    14     2     3    1
    15     2     4    2
