@<TRIPOS>MOLECULE
/home/cewinharhar/GITHUB/reincatalyze/data/processed/docking_pred/2023-May-22-1902_sub9_nm5_bs15_s42_ex16_mel10_mts1000_k50_ec02_g099_lra9e-4_lrc1e-3/0df60b8790b800bbceb9ee276e91b409308b6f54_ligand_9.pdbqt
 14 15 0 0 0
SMALL
GASTEIGER

@<TRIPOS>ATOM
      1  C          5.5710    2.8890   -0.1250 C.3     1  UNL1        0.0800
      2  C          6.4640    3.5480    0.8680 C.2     1  UNL1        0.1300
      3  C          7.2400    4.7710    0.5300 C.3     1  UNL1        0.0870
      4  O          6.5870    3.0980    1.9960 O.2     1  UNL1       -0.3000
      5  C          5.1010    1.5350    0.3700 C.3     1  UNL1        0.0430
      6  C          6.0020    0.4520   -0.0610 C.2     1  UNL1       -0.0440
      7  C          6.4950    0.3860   -1.3700 C.2     1  UNL1        0.0080
      8  C          6.3780   -0.5210    0.8360 C.2     1  UNL1        0.0540
      9  C          7.3380   -0.6530   -1.7170 C.2     1  UNL1        0.0510
     10  C          7.2320   -1.5700    0.4800 C.2     1  UNL1        0.1660
     11  C          7.7150   -1.6360   -0.8080 C.2     1  UNL1        0.1650
     12  O          7.7440   -2.6430    1.1780 O.2     1  UNL1       -0.4540
     13  O          8.5240   -2.7600   -0.8740 O.2     1  UNL1       -0.4540
     14  C          8.6420   -3.3770    0.3860 C.3     1  UNL1        0.4680
@<TRIPOS>BOND
     1     9     7    1
     2     9    11    2
     3     7     6    2
     4    13    11    1
     5    13    14    1
     6    11    10    1
     7     1     5    1
     8     1     2    1
     9     6     5    1
    10     6     8    1
    11    14    12    1
    12    10     8    2
    13    10    12    1
    14     3     2    1
    15     2     4    2
