MODEL 1
REMARK VINA RESULT:      -7.8      0.000      0.000
REMARK SMILES CC(=O)CCc1ccc2c(c1)OCO2
REMARK SMILES IDX 4 1 2 2 1 3 3 4 5 5 6 6 7 7 11 8 8 9 10 10 9 11 12 12 14 13
REMARK SMILES IDX 13 14
REMARK H PARENT
REMARK Flexibility Score: inf
ROOT
ATOM      1  C   UNL     1       5.351   3.049   0.111  1.00  0.00     0.080 C 
ENDROOT
BRANCH   1   2
ATOM      2  C   UNL     1       6.310   3.805   0.965  1.00  0.00     0.130 C 
ATOM      3  C   UNL     1       7.276   4.775   0.383  1.00  0.00     0.087 C 
ATOM      4  O   UNL     1       6.330   3.648   2.175  1.00  0.00    -0.300 OA
ENDBRANCH   1   2
BRANCH   1   5
ATOM      5  C   UNL     1       5.006   1.707   0.726  1.00  0.00     0.043 C 
BRANCH   5   6
ATOM      6  C   UNL     1       5.891   0.637   0.234  1.00  0.00    -0.044 A 
ATOM      7  C   UNL     1       6.361   0.622  -1.084  1.00  0.00     0.008 A 
ATOM      8  C   UNL     1       6.272  -0.377   1.083  1.00  0.00     0.054 A 
ATOM      9  C   UNL     1       7.190  -0.408  -1.489  1.00  0.00     0.051 A 
ATOM     10  C   UNL     1       7.111  -1.416   0.669  1.00  0.00     0.166 A 
ATOM     11  C   UNL     1       7.573  -1.432  -0.629  1.00  0.00     0.165 A 
ATOM     12  O   UNL     1       7.625  -2.522   1.311  1.00  0.00    -0.454 OA
ATOM     13  O   UNL     1       8.370  -2.558  -0.756  1.00  0.00    -0.454 OA
ATOM     14  C   UNL     1       8.504  -3.229   0.474  1.00  0.00     0.468 C 
ENDBRANCH   5   6
ENDBRANCH   1   5
TORSDOF 3
ENDMDL
MODEL 2
REMARK VINA RESULT:      -7.7      2.431      3.062
REMARK SMILES CC(=O)CCc1ccc2c(c1)OCO2
REMARK SMILES IDX 4 1 2 2 1 3 3 4 5 5 6 6 7 7 11 8 8 9 10 10 9 11 12 12 14 13
REMARK SMILES IDX 13 14
REMARK H PARENT
REMARK Flexibility Score: inf
ROOT
ATOM      1  C   UNL     1       5.521   1.932   1.266  1.00  0.00     0.080 C 
ENDROOT
BRANCH   1   2
ATOM      2  C   UNL     1       5.087   0.714   2.005  1.00  0.00     0.130 C 
ATOM      3  C   UNL     1       5.989  -0.457   2.179  1.00  0.00     0.087 C 
ATOM      4  O   UNL     1       3.971   0.641   2.493  1.00  0.00    -0.300 OA
ENDBRANCH   1   2
BRANCH   1   5
ATOM      5  C   UNL     1       5.395   1.740  -0.232  1.00  0.00     0.043 C 
BRANCH   5   6
ATOM      6  C   UNL     1       6.562   1.036  -0.793  1.00  0.00    -0.044 A 
ATOM      7  C   UNL     1       7.870   1.466  -0.540  1.00  0.00     0.008 A 
ATOM      8  C   UNL     1       6.373  -0.075  -1.584  1.00  0.00     0.054 A 
ATOM      9  C   UNL     1       8.926   0.764  -1.093  1.00  0.00     0.051 A 
ATOM     10  C   UNL     1       7.444  -0.781  -2.140  1.00  0.00     0.166 A 
ATOM     11  C   UNL     1       8.731  -0.358  -1.892  1.00  0.00     0.165 A 
ATOM     12  O   UNL     1       7.516  -1.897  -2.947  1.00  0.00    -0.454 OA
ATOM     13  O   UNL     1       9.575  -1.232  -2.558  1.00  0.00    -0.454 OA
ATOM     14  C   UNL     1       8.851  -2.275  -3.165  1.00  0.00     0.468 C 
ENDBRANCH   5   6
ENDBRANCH   1   5
TORSDOF 3
ENDMDL
MODEL 3
REMARK VINA RESULT:      -7.6      1.734      2.039
REMARK SMILES CC(=O)CCc1ccc2c(c1)OCO2
REMARK SMILES IDX 4 1 2 2 1 3 3 4 5 5 6 6 7 7 11 8 8 9 10 10 9 11 12 12 14 13
REMARK SMILES IDX 13 14
REMARK H PARENT
REMARK Flexibility Score: inf
ROOT
ATOM      1  C   UNL     1       5.443   2.940   0.071  1.00  0.00     0.080 C 
ENDROOT
BRANCH   1   2
ATOM      2  C   UNL     1       6.177   3.923   0.917  1.00  0.00     0.130 C 
ATOM      3  C   UNL     1       7.262   4.775   0.361  1.00  0.00     0.087 C 
ATOM      4  O   UNL     1       5.906   4.058   2.099  1.00  0.00    -0.300 OA
ENDBRANCH   1   2
BRANCH   1   5
ATOM      5  C   UNL     1       5.702   1.519   0.530  1.00  0.00     0.043 C 
BRANCH   5   6
ATOM      6  C   UNL     1       6.758   0.871  -0.269  1.00  0.00    -0.044 A 
ATOM      7  C   UNL     1       8.045   1.412  -0.360  1.00  0.00     0.008 A 
ATOM      8  C   UNL     1       6.483  -0.297  -0.944  1.00  0.00     0.054 A 
ATOM      9  C   UNL     1       8.995   0.760  -1.124  1.00  0.00     0.051 A 
ATOM     10  C   UNL     1       7.447  -0.953  -1.714  1.00  0.00     0.166 A 
ATOM     11  C   UNL     1       8.714  -0.420  -1.805  1.00  0.00     0.165 A 
ATOM     12  O   UNL     1       7.422  -2.107  -2.469  1.00  0.00    -0.454 OA
ATOM     13  O   UNL     1       9.448  -1.268  -2.621  1.00  0.00    -0.454 OA
ATOM     14  C   UNL     1       8.693  -2.397  -2.990  1.00  0.00     0.468 C 
ENDBRANCH   5   6
ENDBRANCH   1   5
TORSDOF 3
ENDMDL
MODEL 4
REMARK VINA RESULT:      -7.5      1.781      2.516
REMARK SMILES CC(=O)CCc1ccc2c(c1)OCO2
REMARK SMILES IDX 4 1 2 2 1 3 3 4 5 5 6 6 7 7 11 8 8 9 10 10 9 11 12 12 14 13
REMARK SMILES IDX 13 14
REMARK H PARENT
REMARK Flexibility Score: inf
ROOT
ATOM      1  C   UNL     1       5.744   1.320  -0.347  1.00  0.00     0.080 C 
ENDROOT
BRANCH   1   2
ATOM      2  C   UNL     1       5.186   1.325   1.035  1.00  0.00     0.130 C 
ATOM      3  C   UNL     1       5.350   0.161   1.947  1.00  0.00     0.087 C 
ATOM      4  O   UNL     1       4.575   2.292   1.461  1.00  0.00    -0.300 OA
ENDBRANCH   1   2
BRANCH   1   5
ATOM      5  C   UNL     1       7.245   1.108  -0.334  1.00  0.00     0.043 C 
BRANCH   5   6
ATOM      6  C   UNL     1       7.618  -0.193  -0.917  1.00  0.00    -0.044 A 
ATOM      7  C   UNL     1       7.694  -0.381  -2.302  1.00  0.00     0.008 A 
ATOM      8  C   UNL     1       7.902  -1.255  -0.089  1.00  0.00     0.054 A 
ATOM      9  C   UNL     1       8.050  -1.624  -2.791  1.00  0.00     0.051 A 
ATOM     10  C   UNL     1       8.263  -2.510  -0.589  1.00  0.00     0.166 A 
ATOM     11  C   UNL     1       8.336  -2.696  -1.951  1.00  0.00     0.165 A 
ATOM     12  O   UNL     1       8.587  -3.705   0.017  1.00  0.00    -0.454 OA
ATOM     13  O   UNL     1       8.710  -4.015  -2.156  1.00  0.00    -0.454 OA
ATOM     14  C   UNL     1       8.968  -4.666  -0.934  1.00  0.00     0.468 C 
ENDBRANCH   5   6
ENDBRANCH   1   5
TORSDOF 3
ENDMDL
MODEL 5
REMARK VINA RESULT:      -7.4      1.667      2.315
REMARK SMILES CC(=O)CCc1ccc2c(c1)OCO2
REMARK SMILES IDX 4 1 2 2 1 3 3 4 5 5 6 6 7 7 11 8 8 9 10 10 9 11 12 12 14 13
REMARK SMILES IDX 13 14
REMARK H PARENT
REMARK Flexibility Score: inf
ROOT
ATOM      1  C   UNL     1       6.191   0.765   1.108  1.00  0.00     0.080 C 
ENDROOT
BRANCH   1   2
ATOM      2  C   UNL     1       5.056   1.716   0.943  1.00  0.00     0.130 C 
ATOM      3  C   UNL     1       4.942   2.596  -0.251  1.00  0.00     0.087 C 
ATOM      4  O   UNL     1       4.181   1.801   1.789  1.00  0.00    -0.300 OA
ENDBRANCH   1   2
BRANCH   1   5
ATOM      5  C   UNL     1       7.248   0.980   0.043  1.00  0.00     0.043 C 
BRANCH   5   6
ATOM      6  C   UNL     1       7.585  -0.275  -0.653  1.00  0.00    -0.044 A 
ATOM      7  C   UNL     1       7.550  -0.370  -2.049  1.00  0.00     0.008 A 
ATOM      8  C   UNL     1       7.946  -1.385   0.076  1.00  0.00     0.054 A 
ATOM      9  C   UNL     1       7.877  -1.573  -2.648  1.00  0.00     0.051 A 
ATOM     10  C   UNL     1       8.276  -2.598  -0.534  1.00  0.00     0.166 A 
ATOM     11  C   UNL     1       8.241  -2.693  -1.907  1.00  0.00     0.165 A 
ATOM     12  O   UNL     1       8.661  -3.826  -0.037  1.00  0.00    -0.454 OA
ATOM     13  O   UNL     1       8.610  -3.990  -2.229  1.00  0.00    -0.454 OA
ATOM     14  C   UNL     1       8.972  -4.716  -1.078  1.00  0.00     0.468 C 
ENDBRANCH   5   6
ENDBRANCH   1   5
TORSDOF 3
ENDMDL
