@<TRIPOS>MOLECULE
/home/cewinharhar/GITHUB/reincatalyze/data/processed/docking_pred/2023-May-22-1902_sub9_nm5_bs15_s42_ex16_mel10_mts1000_k50_ec02_g099_lra9e-4_lrc1e-3/104e94148118840ff9051874ebdd157f969f5898_ligand_9.pdbqt
 14 15 0 0 0
SMALL
GASTEIGER

@<TRIPOS>ATOM
      1  C          6.1910    0.7650    1.1080 C.3     1  UNL1        0.0800
      2  C          5.0560    1.7160    0.9430 C.2     1  UNL1        0.1300
      3  C          4.9420    2.5960   -0.2510 C.3     1  UNL1        0.0870
      4  O          4.1810    1.8010    1.7890 O.2     1  UNL1       -0.3000
      5  C          7.2480    0.9800    0.0430 C.3     1  UNL1        0.0430
      6  C          7.5850   -0.2750   -0.6530 C.2     1  UNL1       -0.0440
      7  C          7.5500   -0.3700   -2.0490 C.2     1  UNL1        0.0080
      8  C          7.9460   -1.3850    0.0760 C.2     1  UNL1        0.0540
      9  C          7.8770   -1.5730   -2.6480 C.2     1  UNL1        0.0510
     10  C          8.2760   -2.5980   -0.5340 C.2     1  UNL1        0.1660
     11  C          8.2410   -2.6930   -1.9070 C.2     1  UNL1        0.1650
     12  O          8.6610   -3.8260   -0.0370 O.2     1  UNL1       -0.4540
     13  O          8.6100   -3.9900   -2.2290 O.2     1  UNL1       -0.4540
     14  C          8.9720   -4.7160   -1.0780 C.3     1  UNL1        0.4680
@<TRIPOS>BOND
     1     9     7    1
     2     9    11    2
     3    13    11    1
     4    13    14    1
     5     7     6    2
     6    11    10    1
     7    14    12    1
     8     6     5    1
     9     6     8    1
    10    10    12    1
    11    10     8    2
    12     3     2    1
    13     5     1    1
    14     2     1    1
    15     2     4    2
