@<TRIPOS>MOLECULE
/home/cewinharhar/GITHUB/reincatalyze/data/processed/docking_pred/2023-May-22-1902_sub9_nm5_bs15_s42_ex16_mel10_mts1000_k50_ec02_g099_lra9e-4_lrc1e-3/104e94148118840ff9051874ebdd157f969f5898_ligand_9.pdbqt
 14 15 0 0 0
SMALL
GASTEIGER

@<TRIPOS>ATOM
      1  C          5.3510    3.0490    0.1110 C.3     1  UNL1        0.0800
      2  C          6.3100    3.8050    0.9650 C.2     1  UNL1        0.1300
      3  C          7.2760    4.7750    0.3830 C.3     1  UNL1        0.0870
      4  O          6.3300    3.6480    2.1750 O.2     1  UNL1       -0.3000
      5  C          5.0060    1.7070    0.7260 C.3     1  UNL1        0.0430
      6  C          5.8910    0.6370    0.2340 C.2     1  UNL1       -0.0440
      7  C          6.3610    0.6220   -1.0840 C.2     1  UNL1        0.0080
      8  C          6.2720   -0.3770    1.0830 C.2     1  UNL1        0.0540
      9  C          7.1900   -0.4080   -1.4890 C.2     1  UNL1        0.0510
     10  C          7.1110   -1.4160    0.6690 C.2     1  UNL1        0.1660
     11  C          7.5730   -1.4320   -0.6290 C.2     1  UNL1        0.1650
     12  O          7.6250   -2.5220    1.3110 O.2     1  UNL1       -0.4540
     13  O          8.3700   -2.5580   -0.7560 O.2     1  UNL1       -0.4540
     14  C          8.5040   -3.2290    0.4740 C.3     1  UNL1        0.4680
@<TRIPOS>BOND
     1     9     7    1
     2     9    11    2
     3     7     6    2
     4    13    11    1
     5    13    14    1
     6    11    10    1
     7     1     5    1
     8     1     2    1
     9     6     5    1
    10     6     8    1
    11     3     2    1
    12    14    12    1
    13    10     8    2
    14    10    12    1
    15     2     4    2
