@<TRIPOS>MOLECULE
/home/cewinharhar/GITHUB/reincatalyze/data/processed/docking_pred/2023-May-22-1902_sub9_nm5_bs15_s42_ex16_mel10_mts1000_k50_ec02_g099_lra9e-4_lrc1e-3/10ef791c1764d6d7d99274693c0e95c254b80295_ligand_9.pdbqt
 14 15 0 0 0
SMALL
GASTEIGER

@<TRIPOS>ATOM
      1  C         10.3690    1.6430    1.9820 C.3     1  UNL1        0.0800
      2  C         11.5780    1.0320    2.6010 C.2     1  UNL1        0.1300
      3  C         12.2320    1.6320    3.7950 C.3     1  UNL1        0.0870
      4  O         12.0690    0.0130    2.1430 O.2     1  UNL1       -0.3000
      5  C          9.1010    0.9700    2.4670 C.3     1  UNL1        0.0430
      6  C          8.4140    0.2510    1.3800 C.2     1  UNL1       -0.0440
      7  C          7.0970   -0.2030    1.5190 C.2     1  UNL1        0.0080
      8  C          9.0720    0.0170    0.1940 C.2     1  UNL1        0.0540
      9  C          6.5030   -0.8710    0.4640 C.2     1  UNL1        0.0510
     10  C          8.4660   -0.6590   -0.8700 C.2     1  UNL1        0.1660
     11  C          7.1710   -1.1070   -0.7340 C.2     1  UNL1        0.1650
     12  O          8.9030   -1.0100   -2.1300 O.2     1  UNL1       -0.4540
     13  O          6.8350   -1.7300   -1.9250 O.2     1  UNL1       -0.4540
     14  C          7.8720   -1.6120   -2.8710 C.3     1  UNL1        0.4680
@<TRIPOS>BOND
     1    14    12    1
     2    14    13    1
     3    12    10    1
     4    13    11    1
     5    10    11    2
     6    10     8    1
     7    11     9    1
     8     8     6    2
     9     9     7    2
    10     6     7    1
    11     6     5    1
    12     1     5    1
    13     1     2    1
    14     4     2    2
    15     2     3    1
