MODEL 1
REMARK VINA RESULT:      -7.2      0.000      0.000
REMARK SMILES CC(=O)CCc1ccc2c(c1)OCO2
REMARK SMILES IDX 4 1 2 2 1 3 3 4 5 5 6 6 7 7 11 8 8 9 10 10 9 11 12 12 14 13
REMARK SMILES IDX 13 14
REMARK H PARENT
REMARK Flexibility Score: inf
ROOT
ATOM      1  C   UNL     1      10.369   1.643   1.982  1.00  0.00     0.080 C 
ENDROOT
BRANCH   1   2
ATOM      2  C   UNL     1      11.578   1.032   2.601  1.00  0.00     0.130 C 
ATOM      3  C   UNL     1      12.232   1.632   3.795  1.00  0.00     0.087 C 
ATOM      4  O   UNL     1      12.069   0.013   2.143  1.00  0.00    -0.300 OA
ENDBRANCH   1   2
BRANCH   1   5
ATOM      5  C   UNL     1       9.101   0.970   2.467  1.00  0.00     0.043 C 
BRANCH   5   6
ATOM      6  C   UNL     1       8.414   0.251   1.380  1.00  0.00    -0.044 A 
ATOM      7  C   UNL     1       7.097  -0.203   1.519  1.00  0.00     0.008 A 
ATOM      8  C   UNL     1       9.072   0.017   0.194  1.00  0.00     0.054 A 
ATOM      9  C   UNL     1       6.503  -0.871   0.464  1.00  0.00     0.051 A 
ATOM     10  C   UNL     1       8.466  -0.659  -0.870  1.00  0.00     0.166 A 
ATOM     11  C   UNL     1       7.171  -1.107  -0.734  1.00  0.00     0.165 A 
ATOM     12  O   UNL     1       8.903  -1.010  -2.130  1.00  0.00    -0.454 OA
ATOM     13  O   UNL     1       6.835  -1.730  -1.925  1.00  0.00    -0.454 OA
ATOM     14  C   UNL     1       7.872  -1.612  -2.871  1.00  0.00     0.468 C 
ENDBRANCH   5   6
ENDBRANCH   1   5
TORSDOF 3
ENDMDL
MODEL 2
REMARK VINA RESULT:      -6.8      1.064      1.064
REMARK SMILES CC(=O)CCc1ccc2c(c1)OCO2
REMARK SMILES IDX 4 1 2 2 1 3 3 4 5 5 6 6 7 7 11 8 8 9 10 10 9 11 12 12 14 13
REMARK SMILES IDX 13 14
REMARK H PARENT
REMARK Flexibility Score: inf
ROOT
ATOM      1  C   UNL     1      10.356   0.736   2.388  1.00  0.00     0.080 C 
ENDROOT
BRANCH   1   2
ATOM      2  C   UNL     1      10.945   1.889   3.124  1.00  0.00     0.130 C 
ATOM      3  C   UNL     1      12.272   1.794   3.790  1.00  0.00     0.087 C 
ATOM      4  O   UNL     1      10.351   2.952   3.202  1.00  0.00    -0.300 OA
ENDBRANCH   1   2
BRANCH   1   5
ATOM      5  C   UNL     1       8.841   0.773   2.430  1.00  0.00     0.043 C 
BRANCH   5   6
ATOM      6  C   UNL     1       8.245   0.089   1.268  1.00  0.00    -0.044 A 
ATOM      7  C   UNL     1       6.930  -0.388   1.293  1.00  0.00     0.008 A 
ATOM      8  C   UNL     1       8.991  -0.089   0.125  1.00  0.00     0.054 A 
ATOM      9  C   UNL     1       6.424  -1.021   0.172  1.00  0.00     0.051 A 
ATOM     10  C   UNL     1       8.475  -0.729  -1.006  1.00  0.00     0.166 A 
ATOM     11  C   UNL     1       7.181  -1.199  -0.982  1.00  0.00     0.165 A 
ATOM     12  O   UNL     1       9.007  -1.024  -2.243  1.00  0.00    -0.454 OA
ATOM     13  O   UNL     1       6.942  -1.779  -2.218  1.00  0.00    -0.454 OA
ATOM     14  C   UNL     1       8.042  -1.609  -3.080  1.00  0.00     0.468 C 
ENDBRANCH   5   6
ENDBRANCH   1   5
TORSDOF 3
ENDMDL
MODEL 3
REMARK VINA RESULT:      -6.7      1.192      5.329
REMARK SMILES CC(=O)CCc1ccc2c(c1)OCO2
REMARK SMILES IDX 4 1 2 2 1 3 3 4 5 5 6 6 7 7 11 8 8 9 10 10 9 11 12 12 14 13
REMARK SMILES IDX 13 14
REMARK H PARENT
REMARK Flexibility Score: inf
ROOT
ATOM      1  C   UNL     1       8.001  -1.990  -0.334  1.00  0.00     0.080 C 
ENDROOT
BRANCH   1   2
ATOM      2  C   UNL     1       7.905  -1.735  -1.799  1.00  0.00     0.130 C 
ATOM      3  C   UNL     1       7.773  -0.358  -2.344  1.00  0.00     0.087 C 
ATOM      4  O   UNL     1       7.931  -2.657  -2.598  1.00  0.00    -0.300 OA
ENDBRANCH   1   2
BRANCH   1   5
ATOM      5  C   UNL     1       7.362  -0.870   0.463  1.00  0.00     0.043 C 
BRANCH   5   6
ATOM      6  C   UNL     1       8.357  -0.130   1.259  1.00  0.00    -0.044 A 
ATOM      7  C   UNL     1       7.986   0.927   2.098  1.00  0.00     0.008 A 
ATOM      8  C   UNL     1       9.687  -0.479   1.185  1.00  0.00     0.054 A 
ATOM      9  C   UNL     1       8.963   1.585   2.822  1.00  0.00     0.051 A 
ATOM     10  C   UNL     1      10.671   0.189   1.920  1.00  0.00     0.166 A 
ATOM     11  C   UNL     1      10.306   1.230   2.745  1.00  0.00     0.165 A 
ATOM     12  O   UNL     1      12.038   0.035   2.017  1.00  0.00    -0.454 OA
ATOM     13  O   UNL     1      11.468   1.697   3.338  1.00  0.00    -0.454 OA
ATOM     14  C   UNL     1      12.577   0.909   2.975  1.00  0.00     0.468 C 
ENDBRANCH   5   6
ENDBRANCH   1   5
TORSDOF 3
ENDMDL
MODEL 4
REMARK VINA RESULT:      -6.6      1.208      5.259
REMARK SMILES CC(=O)CCc1ccc2c(c1)OCO2
REMARK SMILES IDX 4 1 2 2 1 3 3 4 5 5 6 6 7 7 11 8 8 9 10 10 9 11 12 12 14 13
REMARK SMILES IDX 13 14
REMARK H PARENT
REMARK Flexibility Score: inf
ROOT
ATOM      1  C   UNL     1       6.884  -0.686  -0.885  1.00  0.00     0.080 C 
ENDROOT
BRANCH   1   2
ATOM      2  C   UNL     1       7.773  -0.496  -2.065  1.00  0.00     0.130 C 
ATOM      3  C   UNL     1       8.187  -1.639  -2.923  1.00  0.00     0.087 C 
ATOM      4  O   UNL     1       8.191   0.611  -2.364  1.00  0.00    -0.300 OA
ENDBRANCH   1   2
BRANCH   1   5
ATOM      5  C   UNL     1       7.595  -1.434   0.225  1.00  0.00     0.043 C 
BRANCH   5   6
ATOM      6  C   UNL     1       8.422  -0.533   1.048  1.00  0.00    -0.044 A 
ATOM      7  C   UNL     1       7.853   0.494   1.810  1.00  0.00     0.008 A 
ATOM      8  C   UNL     1       9.788  -0.699   1.079  1.00  0.00     0.054 A 
ATOM      9  C   UNL     1       8.679   1.307   2.564  1.00  0.00     0.051 A 
ATOM     10  C   UNL     1      10.619   0.126   1.843  1.00  0.00     0.166 A 
ATOM     11  C   UNL     1      10.059   1.137   2.592  1.00  0.00     0.165 A 
ATOM     12  O   UNL     1      11.983   0.165   2.037  1.00  0.00    -0.454 OA
ATOM     13  O   UNL     1      11.103   1.782   3.237  1.00  0.00    -0.454 OA
ATOM     14  C   UNL     1      12.330   1.141   2.985  1.00  0.00     0.468 C 
ENDBRANCH   5   6
ENDBRANCH   1   5
TORSDOF 3
ENDMDL
MODEL 5
REMARK VINA RESULT:      -6.4      1.148      1.329
REMARK SMILES CC(=O)CCc1ccc2c(c1)OCO2
REMARK SMILES IDX 4 1 2 2 1 3 3 4 5 5 6 6 7 7 11 8 8 9 10 10 9 11 12 12 14 13
REMARK SMILES IDX 13 14
REMARK H PARENT
REMARK Flexibility Score: inf
ROOT
ATOM      1  C   UNL     1      10.373   1.634   3.064  1.00  0.00     0.080 C 
ENDROOT
BRANCH   1   2
ATOM      2  C   UNL     1      11.832   1.474   3.318  1.00  0.00     0.130 C 
ATOM      3  C   UNL     1      12.646   0.464   2.590  1.00  0.00     0.087 C 
ATOM      4  O   UNL     1      12.406   2.173   4.138  1.00  0.00    -0.300 OA
ENDBRANCH   1   2
BRANCH   1   5
ATOM      5  C   UNL     1      10.102   1.974   1.612  1.00  0.00     0.043 C 
BRANCH   5   6
ATOM      6  C   UNL     1       9.363   0.898   0.927  1.00  0.00    -0.044 A 
ATOM      7  C   UNL     1       8.398   0.134   1.593  1.00  0.00     0.008 A 
ATOM      8  C   UNL     1       9.617   0.632  -0.399  1.00  0.00     0.054 A 
ATOM      9  C   UNL     1       7.735  -0.862   0.900  1.00  0.00     0.051 A 
ATOM     10  C   UNL     1       8.944  -0.375  -1.096  1.00  0.00     0.166 A 
ATOM     11  C   UNL     1       7.995  -1.129  -0.441  1.00  0.00     0.165 A 
ATOM     12  O   UNL     1       9.016  -0.828  -2.396  1.00  0.00    -0.454 OA
ATOM     13  O   UNL     1       7.499  -2.037  -1.363  1.00  0.00    -0.454 OA
ATOM     14  C   UNL     1       8.053  -1.821  -2.639  1.00  0.00     0.468 C 
ENDBRANCH   5   6
ENDBRANCH   1   5
TORSDOF 3
ENDMDL
