@<TRIPOS>MOLECULE
/home/cewinharhar/GITHUB/reincatalyze/data/processed/docking_pred/2023-May-22-1902_sub9_nm5_bs15_s42_ex16_mel10_mts1000_k50_ec02_g099_lra9e-4_lrc1e-3/13c3a96d7f073914410e4f6d6c0e2190084e407e_ligand_9.pdbqt
 14 15 0 0 0
SMALL
GASTEIGER

@<TRIPOS>ATOM
      1  C          5.7450    1.3310   -0.3550 C.3     1  UNL1        0.0800
      2  C          5.1330    1.2980    1.0030 C.2     1  UNL1        0.1300
      3  C          5.3650    0.1640    1.9370 C.3     1  UNL1        0.0870
      4  O          4.4180    2.2080    1.3900 O.2     1  UNL1       -0.3000
      5  C          7.2370    1.0720   -0.2930 C.3     1  UNL1        0.0430
      6  C          7.5930   -0.2220   -0.9020 C.2     1  UNL1       -0.0440
      7  C          7.6240   -0.3940   -2.2910 C.2     1  UNL1        0.0080
      8  C          7.9070   -1.2930   -0.0960 C.2     1  UNL1        0.0540
      9  C          7.9670   -1.6310   -2.8060 C.2     1  UNL1        0.0510
     10  C          8.2530   -2.5410   -0.6220 C.2     1  UNL1        0.1660
     11  C          8.2820   -2.7120   -1.9880 C.2     1  UNL1        0.1650
     12  O          8.5990   -3.7420   -0.0410 O.2     1  UNL1       -0.4540
     13  O          8.6520   -4.0270   -2.2200 O.2     1  UNL1       -0.4540
     14  C          8.9500   -4.6910   -1.0150 C.3     1  UNL1        0.4680
@<TRIPOS>BOND
     1     9     7    1
     2     9    11    2
     3     7     6    2
     4    13    11    1
     5    13    14    1
     6    11    10    1
     7    14    12    1
     8     6     5    1
     9     6     8    1
    10    10     8    2
    11    10    12    1
    12     1     5    1
    13     1     2    1
    14     2     4    2
    15     2     3    1
