@<TRIPOS>MOLECULE
/home/cewinharhar/GITHUB/reincatalyze/data/processed/docking_pred/2023-May-22-1902_sub9_nm5_bs15_s42_ex16_mel10_mts1000_k50_ec02_g099_lra9e-4_lrc1e-3/13c3a96d7f073914410e4f6d6c0e2190084e407e_ligand_9.pdbqt
 14 15 0 0 0
SMALL
GASTEIGER

@<TRIPOS>ATOM
      1  C          6.4860    1.0530    0.9740 C.3     1  UNL1        0.0800
      2  C          5.1880    1.7820    0.9120 C.2     1  UNL1        0.1300
      3  C          4.8510    2.6810   -0.2240 C.3     1  UNL1        0.0870
      4  O          4.3590    1.6620    1.7990 O.2     1  UNL1       -0.3000
      5  C          7.2650    1.2050   -0.3180 C.3     1  UNL1        0.0430
      6  C          7.6220   -0.1020   -0.8970 C.2     1  UNL1       -0.0440
      7  C          7.7030   -0.2930   -2.2810 C.2     1  UNL1        0.0080
      8  C          7.8890   -1.1660   -0.0660 C.2     1  UNL1        0.0540
      9  C          8.0440   -1.5420   -2.7670 C.2     1  UNL1        0.0510
     10  C          8.2340   -2.4270   -0.5630 C.2     1  UNL1        0.1660
     11  C          8.3120   -2.6160   -1.9250 C.2     1  UNL1        0.1650
     12  O          8.5400   -3.6250    0.0460 O.2     1  UNL1       -0.4540
     13  O          8.6690   -3.9400   -2.1260 O.2     1  UNL1       -0.4540
     14  C          8.9120   -4.5920   -0.9020 C.3     1  UNL1        0.4680
@<TRIPOS>BOND
     1     9     7    1
     2     9    11    2
     3     7     6    2
     4    13    11    1
     5    13    14    1
     6    11    10    1
     7    14    12    1
     8     6     5    1
     9     6     8    1
    10    10     8    2
    11    10    12    1
    12     5     1    1
    13     3     2    1
    14     2     1    1
    15     2     4    2
