MODEL 1
REMARK VINA RESULT:      -7.8      0.000      0.000
REMARK SMILES CC(=O)CCc1ccc2c(c1)OCO2
REMARK SMILES IDX 4 1 2 2 1 3 3 4 5 5 6 6 7 7 11 8 8 9 10 10 9 11 12 12 14 13
REMARK SMILES IDX 13 14
REMARK H PARENT
REMARK Flexibility Score: inf
ROOT
ATOM      1  C   UNL     1       5.509   2.858   0.245  1.00  0.00     0.080 C 
ENDROOT
BRANCH   1   2
ATOM      2  C   UNL     1       6.287   3.859   1.027  1.00  0.00     0.130 C 
ATOM      3  C   UNL     1       7.260   4.775   0.374  1.00  0.00     0.087 C 
ATOM      4  O   UNL     1       6.146   3.957   2.235  1.00  0.00    -0.300 OA
ENDBRANCH   1   2
BRANCH   1   5
ATOM      5  C   UNL     1       5.338   1.566   1.020  1.00  0.00     0.043 C 
BRANCH   5   6
ATOM      6  C   UNL     1       6.138   0.472   0.441  1.00  0.00    -0.044 A 
ATOM      7  C   UNL     1       6.531  -0.632   1.205  1.00  0.00     0.008 A 
ATOM      8  C   UNL     1       6.509   0.525  -0.884  1.00  0.00     0.054 A 
ATOM      9  C   UNL     1       7.280  -1.630   0.608  1.00  0.00     0.051 A 
ATOM     10  C   UNL     1       7.266  -0.486  -1.483  1.00  0.00     0.166 A 
ATOM     11  C   UNL     1       7.655  -1.573  -0.731  1.00  0.00     0.165 A 
ATOM     12  O   UNL     1       7.754  -0.663  -2.760  1.00  0.00    -0.454 OA
ATOM     13  O   UNL     1       8.381  -2.402  -1.571  1.00  0.00    -0.454 OA
ATOM     14  C   UNL     1       8.391  -1.908  -2.889  1.00  0.00     0.468 C 
ENDBRANCH   5   6
ENDBRANCH   1   5
TORSDOF 3
ENDMDL
MODEL 2
REMARK VINA RESULT:      -7.7      0.961      1.953
REMARK SMILES CC(=O)CCc1ccc2c(c1)OCO2
REMARK SMILES IDX 4 1 2 2 1 3 3 4 5 5 6 6 7 7 11 8 8 9 10 10 9 11 12 12 14 13
REMARK SMILES IDX 13 14
REMARK H PARENT
REMARK Flexibility Score: inf
ROOT
ATOM      1  C   UNL     1       5.436   2.907   0.306  1.00  0.00     0.080 C 
ENDROOT
BRANCH   1   2
ATOM      2  C   UNL     1       6.282   3.894   1.033  1.00  0.00     0.130 C 
ATOM      3  C   UNL     1       7.245   4.774   0.319  1.00  0.00     0.087 C 
ATOM      4  O   UNL     1       6.208   4.009   2.246  1.00  0.00    -0.300 OA
ENDBRANCH   1   2
BRANCH   1   5
ATOM      5  C   UNL     1       5.342   1.598   1.064  1.00  0.00     0.043 C 
BRANCH   5   6
ATOM      6  C   UNL     1       6.109   0.527   0.403  1.00  0.00    -0.044 A 
ATOM      7  C   UNL     1       6.386   0.563  -0.968  1.00  0.00     0.008 A 
ATOM      8  C   UNL     1       6.571  -0.537   1.143  1.00  0.00     0.054 A 
ATOM      9  C   UNL     1       7.112  -0.469  -1.534  1.00  0.00     0.051 A 
ATOM     10  C   UNL     1       7.305  -1.579   0.567  1.00  0.00     0.166 A 
ATOM     11  C   UNL     1       7.577  -1.544  -0.783  1.00  0.00     0.165 A 
ATOM     12  O   UNL     1       7.865  -2.729   1.080  1.00  0.00    -0.454 OA
ATOM     13  O   UNL     1       8.307  -2.686  -1.073  1.00  0.00    -0.454 OA
ATOM     14  C   UNL     1       8.591  -3.419   0.095  1.00  0.00     0.468 C 
ENDBRANCH   5   6
ENDBRANCH   1   5
TORSDOF 3
ENDMDL
MODEL 3
REMARK VINA RESULT:      -7.7      1.908      2.647
REMARK SMILES CC(=O)CCc1ccc2c(c1)OCO2
REMARK SMILES IDX 4 1 2 2 1 3 3 4 5 5 6 6 7 7 11 8 8 9 10 10 9 11 12 12 14 13
REMARK SMILES IDX 13 14
REMARK H PARENT
REMARK Flexibility Score: inf
ROOT
ATOM      1  C   UNL     1       5.533   1.926   1.275  1.00  0.00     0.080 C 
ENDROOT
BRANCH   1   2
ATOM      2  C   UNL     1       5.091   0.708   2.009  1.00  0.00     0.130 C 
ATOM      3  C   UNL     1       5.986  -0.468   2.181  1.00  0.00     0.087 C 
ATOM      4  O   UNL     1       3.974   0.640   2.495  1.00  0.00    -0.300 OA
ENDBRANCH   1   2
BRANCH   1   5
ATOM      5  C   UNL     1       5.404   1.742  -0.224  1.00  0.00     0.043 C 
BRANCH   5   6
ATOM      6  C   UNL     1       6.569   1.039  -0.791  1.00  0.00    -0.044 A 
ATOM      7  C   UNL     1       7.877   1.475  -0.549  1.00  0.00     0.008 A 
ATOM      8  C   UNL     1       6.378  -0.075  -1.576  1.00  0.00     0.054 A 
ATOM      9  C   UNL     1       8.931   0.775  -1.107  1.00  0.00     0.051 A 
ATOM     10  C   UNL     1       7.448  -0.779  -2.137  1.00  0.00     0.166 A 
ATOM     11  C   UNL     1       8.735  -0.350  -1.901  1.00  0.00     0.165 A 
ATOM     12  O   UNL     1       7.518  -1.898  -2.940  1.00  0.00    -0.454 OA
ATOM     13  O   UNL     1       9.577  -1.224  -2.570  1.00  0.00    -0.454 OA
ATOM     14  C   UNL     1       8.853  -2.272  -3.167  1.00  0.00     0.468 C 
ENDBRANCH   5   6
ENDBRANCH   1   5
TORSDOF 3
ENDMDL
MODEL 4
REMARK VINA RESULT:      -7.5      1.838      2.808
REMARK SMILES CC(=O)CCc1ccc2c(c1)OCO2
REMARK SMILES IDX 4 1 2 2 1 3 3 4 5 5 6 6 7 7 11 8 8 9 10 10 9 11 12 12 14 13
REMARK SMILES IDX 13 14
REMARK H PARENT
REMARK Flexibility Score: inf
ROOT
ATOM      1  C   UNL     1       6.486   1.053   0.974  1.00  0.00     0.080 C 
ENDROOT
BRANCH   1   2
ATOM      2  C   UNL     1       5.188   1.782   0.912  1.00  0.00     0.130 C 
ATOM      3  C   UNL     1       4.851   2.681  -0.224  1.00  0.00     0.087 C 
ATOM      4  O   UNL     1       4.359   1.662   1.799  1.00  0.00    -0.300 OA
ENDBRANCH   1   2
BRANCH   1   5
ATOM      5  C   UNL     1       7.265   1.205  -0.318  1.00  0.00     0.043 C 
BRANCH   5   6
ATOM      6  C   UNL     1       7.622  -0.102  -0.897  1.00  0.00    -0.044 A 
ATOM      7  C   UNL     1       7.703  -0.293  -2.281  1.00  0.00     0.008 A 
ATOM      8  C   UNL     1       7.889  -1.166  -0.066  1.00  0.00     0.054 A 
ATOM      9  C   UNL     1       8.044  -1.542  -2.767  1.00  0.00     0.051 A 
ATOM     10  C   UNL     1       8.234  -2.427  -0.563  1.00  0.00     0.166 A 
ATOM     11  C   UNL     1       8.312  -2.616  -1.925  1.00  0.00     0.165 A 
ATOM     12  O   UNL     1       8.540  -3.625   0.046  1.00  0.00    -0.454 OA
ATOM     13  O   UNL     1       8.669  -3.940  -2.126  1.00  0.00    -0.454 OA
ATOM     14  C   UNL     1       8.912  -4.592  -0.902  1.00  0.00     0.468 C 
ENDBRANCH   5   6
ENDBRANCH   1   5
TORSDOF 3
ENDMDL
MODEL 5
REMARK VINA RESULT:      -7.5      1.978      3.020
REMARK SMILES CC(=O)CCc1ccc2c(c1)OCO2
REMARK SMILES IDX 4 1 2 2 1 3 3 4 5 5 6 6 7 7 11 8 8 9 10 10 9 11 12 12 14 13
REMARK SMILES IDX 13 14
REMARK H PARENT
REMARK Flexibility Score: inf
ROOT
ATOM      1  C   UNL     1       5.745   1.331  -0.355  1.00  0.00     0.080 C 
ENDROOT
BRANCH   1   2
ATOM      2  C   UNL     1       5.133   1.298   1.003  1.00  0.00     0.130 C 
ATOM      3  C   UNL     1       5.365   0.164   1.937  1.00  0.00     0.087 C 
ATOM      4  O   UNL     1       4.418   2.208   1.390  1.00  0.00    -0.300 OA
ENDBRANCH   1   2
BRANCH   1   5
ATOM      5  C   UNL     1       7.237   1.072  -0.293  1.00  0.00     0.043 C 
BRANCH   5   6
ATOM      6  C   UNL     1       7.593  -0.222  -0.902  1.00  0.00    -0.044 A 
ATOM      7  C   UNL     1       7.624  -0.394  -2.291  1.00  0.00     0.008 A 
ATOM      8  C   UNL     1       7.907  -1.293  -0.096  1.00  0.00     0.054 A 
ATOM      9  C   UNL     1       7.967  -1.631  -2.806  1.00  0.00     0.051 A 
ATOM     10  C   UNL     1       8.253  -2.541  -0.622  1.00  0.00     0.166 A 
ATOM     11  C   UNL     1       8.282  -2.712  -1.988  1.00  0.00     0.165 A 
ATOM     12  O   UNL     1       8.599  -3.742  -0.041  1.00  0.00    -0.454 OA
ATOM     13  O   UNL     1       8.652  -4.027  -2.220  1.00  0.00    -0.454 OA
ATOM     14  C   UNL     1       8.950  -4.691  -1.015  1.00  0.00     0.468 C 
ENDBRANCH   5   6
ENDBRANCH   1   5
TORSDOF 3
ENDMDL
