@<TRIPOS>MOLECULE
/home/cewinharhar/GITHUB/reincatalyze/data/processed/docking_pred/2023-May-22-1902_sub9_nm5_bs15_s42_ex16_mel10_mts1000_k50_ec02_g099_lra9e-4_lrc1e-3/13c3a96d7f073914410e4f6d6c0e2190084e407e_ligand_9.pdbqt
 14 15 0 0 0
SMALL
GASTEIGER

@<TRIPOS>ATOM
      1  C          5.5090    2.8580    0.2450 C.3     1  UNL1        0.0800
      2  C          6.2870    3.8590    1.0270 C.2     1  UNL1        0.1300
      3  C          7.2600    4.7750    0.3740 C.3     1  UNL1        0.0870
      4  O          6.1460    3.9570    2.2350 O.2     1  UNL1       -0.3000
      5  C          5.3380    1.5660    1.0200 C.3     1  UNL1        0.0430
      6  C          6.1380    0.4720    0.4410 C.2     1  UNL1       -0.0440
      7  C          6.5310   -0.6320    1.2050 C.2     1  UNL1        0.0080
      8  C          6.5090    0.5250   -0.8840 C.2     1  UNL1        0.0540
      9  C          7.2800   -1.6300    0.6080 C.2     1  UNL1        0.0510
     10  C          7.2660   -0.4860   -1.4830 C.2     1  UNL1        0.1660
     11  C          7.6550   -1.5730   -0.7310 C.2     1  UNL1        0.1650
     12  O          7.7540   -0.6630   -2.7600 O.2     1  UNL1       -0.4540
     13  O          8.3810   -2.4020   -1.5710 O.2     1  UNL1       -0.4540
     14  C          8.3910   -1.9080   -2.8890 C.3     1  UNL1        0.4680
@<TRIPOS>BOND
     1    14    12    1
     2    14    13    1
     3    12    10    1
     4    13    11    1
     5    10     8    1
     6    10    11    2
     7     8     6    2
     8    11     9    1
     9     1     5    1
    10     1     2    1
    11     3     2    1
    12     6     5    1
    13     6     7    1
    14     9     7    2
    15     2     4    2
