@<TRIPOS>MOLECULE
/home/cewinharhar/GITHUB/reincatalyze/data/processed/docking_pred/2023-May-22-1902_sub9_nm5_bs15_s42_ex16_mel10_mts1000_k50_ec02_g099_lra9e-4_lrc1e-3/13c3a96d7f073914410e4f6d6c0e2190084e407e_ligand_9.pdbqt
 14 15 0 0 0
SMALL
GASTEIGER

@<TRIPOS>ATOM
      1  C          5.4360    2.9070    0.3060 C.3     1  UNL1        0.0800
      2  C          6.2820    3.8940    1.0330 C.2     1  UNL1        0.1300
      3  C          7.2450    4.7740    0.3190 C.3     1  UNL1        0.0870
      4  O          6.2080    4.0090    2.2460 O.2     1  UNL1       -0.3000
      5  C          5.3420    1.5980    1.0640 C.3     1  UNL1        0.0430
      6  C          6.1090    0.5270    0.4030 C.2     1  UNL1       -0.0440
      7  C          6.3860    0.5630   -0.9680 C.2     1  UNL1        0.0080
      8  C          6.5710   -0.5370    1.1430 C.2     1  UNL1        0.0540
      9  C          7.1120   -0.4690   -1.5340 C.2     1  UNL1        0.0510
     10  C          7.3050   -1.5790    0.5670 C.2     1  UNL1        0.1660
     11  C          7.5770   -1.5440   -0.7830 C.2     1  UNL1        0.1650
     12  O          7.8650   -2.7290    1.0800 O.2     1  UNL1       -0.4540
     13  O          8.3070   -2.6860   -1.0730 O.2     1  UNL1       -0.4540
     14  C          8.5910   -3.4190    0.0950 C.3     1  UNL1        0.4680
@<TRIPOS>BOND
     1     9     7    1
     2     9    11    2
     3    13    11    1
     4    13    14    1
     5     7     6    2
     6    11    10    1
     7    14    12    1
     8     1     2    1
     9     1     5    1
    10     3     2    1
    11     6     5    1
    12     6     8    1
    13    10    12    1
    14    10     8    2
    15     2     4    2
