MODEL 1
REMARK VINA RESULT:      -7.9      0.000      0.000
REMARK SMILES CC(=O)CCc1ccc2c(c1)OCO2
REMARK SMILES IDX 4 1 2 2 1 3 3 4 5 5 6 6 7 7 11 8 8 9 10 10 9 11 12 12 14 13
REMARK SMILES IDX 13 14
REMARK H PARENT
REMARK Flexibility Score: inf
ROOT
ATOM      1  C   UNL     1       5.402   2.936   0.115  1.00  0.00     0.080 C 
ENDROOT
BRANCH   1   2
ATOM      2  C   UNL     1       6.304   3.775   0.953  1.00  0.00     0.130 C 
ATOM      3  C   UNL     1       7.226   4.774   0.349  1.00  0.00     0.087 C 
ATOM      4  O   UNL     1       6.312   3.665   2.169  1.00  0.00    -0.300 OA
ENDBRANCH   1   2
BRANCH   1   5
ATOM      5  C   UNL     1       5.083   1.620   0.797  1.00  0.00     0.043 C 
BRANCH   5   6
ATOM      6  C   UNL     1       5.944   0.529   0.309  1.00  0.00    -0.044 A 
ATOM      7  C   UNL     1       6.333  -0.527   1.142  1.00  0.00     0.008 A 
ATOM      8  C   UNL     1       6.381   0.536  -0.996  1.00  0.00     0.054 A 
ATOM      9  C   UNL     1       7.142  -1.524   0.628  1.00  0.00     0.051 A 
ATOM     10  C   UNL     1       7.198  -0.475  -1.511  1.00  0.00     0.166 A 
ATOM     11  C   UNL     1       7.582  -1.513  -0.692  1.00  0.00     0.165 A 
ATOM     12  O   UNL     1       7.756  -0.691  -2.753  1.00  0.00    -0.454 OA
ATOM     13  O   UNL     1       8.375  -2.355  -1.456  1.00  0.00    -0.454 OA
ATOM     14  C   UNL     1       8.437  -1.919  -2.793  1.00  0.00     0.468 C 
ENDBRANCH   5   6
ENDBRANCH   1   5
TORSDOF 3
ENDMDL
MODEL 2
REMARK VINA RESULT:      -7.8      0.960      1.945
REMARK SMILES CC(=O)CCc1ccc2c(c1)OCO2
REMARK SMILES IDX 4 1 2 2 1 3 3 4 5 5 6 6 7 7 11 8 8 9 10 10 9 11 12 12 14 13
REMARK SMILES IDX 13 14
REMARK H PARENT
REMARK Flexibility Score: inf
ROOT
ATOM      1  C   UNL     1       5.482   2.894   0.210  1.00  0.00     0.080 C 
ENDROOT
BRANCH   1   2
ATOM      2  C   UNL     1       6.290   3.872   0.991  1.00  0.00     0.130 C 
ATOM      3  C   UNL     1       7.272   4.775   0.334  1.00  0.00     0.087 C 
ATOM      4  O   UNL     1       6.168   3.959   2.203  1.00  0.00    -0.300 OA
ENDBRANCH   1   2
BRANCH   1   5
ATOM      5  C   UNL     1       5.334   1.582   0.956  1.00  0.00     0.043 C 
BRANCH   5   6
ATOM      6  C   UNL     1       6.112   0.503   0.322  1.00  0.00    -0.044 A 
ATOM      7  C   UNL     1       6.401   0.514  -1.047  1.00  0.00     0.008 A 
ATOM      8  C   UNL     1       6.572  -0.545   1.086  1.00  0.00     0.054 A 
ATOM      9  C   UNL     1       7.136  -0.526  -1.587  1.00  0.00     0.051 A 
ATOM     10  C   UNL     1       7.315  -1.594   0.536  1.00  0.00     0.166 A 
ATOM     11  C   UNL     1       7.599  -1.584  -0.811  1.00  0.00     0.165 A 
ATOM     12  O   UNL     1       7.876  -2.732   1.076  1.00  0.00    -0.454 OA
ATOM     13  O   UNL     1       8.337  -2.728  -1.073  1.00  0.00    -0.454 OA
ATOM     14  C   UNL     1       8.613  -3.437   0.111  1.00  0.00     0.468 C 
ENDBRANCH   5   6
ENDBRANCH   1   5
TORSDOF 3
ENDMDL
MODEL 3
REMARK VINA RESULT:      -7.6      1.881      2.633
REMARK SMILES CC(=O)CCc1ccc2c(c1)OCO2
REMARK SMILES IDX 4 1 2 2 1 3 3 4 5 5 6 6 7 7 11 8 8 9 10 10 9 11 12 12 14 13
REMARK SMILES IDX 13 14
REMARK H PARENT
REMARK Flexibility Score: inf
ROOT
ATOM      1  C   UNL     1       5.554   1.907   1.290  1.00  0.00     0.080 C 
ENDROOT
BRANCH   1   2
ATOM      2  C   UNL     1       5.105   0.691   2.024  1.00  0.00     0.130 C 
ATOM      3  C   UNL     1       5.994  -0.488   2.200  1.00  0.00     0.087 C 
ATOM      4  O   UNL     1       3.985   0.627   2.505  1.00  0.00    -0.300 OA
ENDBRANCH   1   2
BRANCH   1   5
ATOM      5  C   UNL     1       5.418   1.726  -0.209  1.00  0.00     0.043 C 
BRANCH   5   6
ATOM      6  C   UNL     1       6.581   1.026  -0.782  1.00  0.00    -0.044 A 
ATOM      7  C   UNL     1       7.890   1.461  -0.544  1.00  0.00     0.008 A 
ATOM      8  C   UNL     1       6.388  -0.086  -1.570  1.00  0.00     0.054 A 
ATOM      9  C   UNL     1       8.943   0.763  -1.107  1.00  0.00     0.051 A 
ATOM     10  C   UNL     1       7.455  -0.789  -2.137  1.00  0.00     0.166 A 
ATOM     11  C   UNL     1       8.743  -0.360  -1.904  1.00  0.00     0.165 A 
ATOM     12  O   UNL     1       7.523  -1.904  -2.944  1.00  0.00    -0.454 OA
ATOM     13  O   UNL     1       9.584  -1.231  -2.579  1.00  0.00    -0.454 OA
ATOM     14  C   UNL     1       8.857  -2.278  -3.177  1.00  0.00     0.468 C 
ENDBRANCH   5   6
ENDBRANCH   1   5
TORSDOF 3
ENDMDL
MODEL 4
REMARK VINA RESULT:      -7.5      1.948      3.036
REMARK SMILES CC(=O)CCc1ccc2c(c1)OCO2
REMARK SMILES IDX 4 1 2 2 1 3 3 4 5 5 6 6 7 7 11 8 8 9 10 10 9 11 12 12 14 13
REMARK SMILES IDX 13 14
REMARK H PARENT
REMARK Flexibility Score: inf
ROOT
ATOM      1  C   UNL     1       5.742   1.313  -0.374  1.00  0.00     0.080 C 
ENDROOT
BRANCH   1   2
ATOM      2  C   UNL     1       5.165   1.317   1.000  1.00  0.00     0.130 C 
ATOM      3  C   UNL     1       5.368   0.178   1.935  1.00  0.00     0.087 C 
ATOM      4  O   UNL     1       4.504   2.261   1.400  1.00  0.00    -0.300 OA
ENDBRANCH   1   2
BRANCH   1   5
ATOM      5  C   UNL     1       7.242   1.100  -0.340  1.00  0.00     0.043 C 
BRANCH   5   6
ATOM      6  C   UNL     1       7.623  -0.200  -0.920  1.00  0.00    -0.044 A 
ATOM      7  C   UNL     1       7.710  -0.387  -2.305  1.00  0.00     0.008 A 
ATOM      8  C   UNL     1       7.903  -1.261  -0.090  1.00  0.00     0.054 A 
ATOM      9  C   UNL     1       8.073  -1.630  -2.792  1.00  0.00     0.051 A 
ATOM     10  C   UNL     1       8.270  -2.515  -0.588  1.00  0.00     0.166 A 
ATOM     11  C   UNL     1       8.355  -2.701  -1.950  1.00  0.00     0.165 A 
ATOM     12  O   UNL     1       8.592  -3.710   0.020  1.00  0.00    -0.454 OA
ATOM     13  O   UNL     1       8.733  -4.019  -2.152  1.00  0.00    -0.454 OA
ATOM     14  C   UNL     1       8.982  -4.670  -0.928  1.00  0.00     0.468 C 
ENDBRANCH   5   6
ENDBRANCH   1   5
TORSDOF 3
ENDMDL
MODEL 5
REMARK VINA RESULT:      -7.4      1.812      2.853
REMARK SMILES CC(=O)CCc1ccc2c(c1)OCO2
REMARK SMILES IDX 4 1 2 2 1 3 3 4 5 5 6 6 7 7 11 8 8 9 10 10 9 11 12 12 14 13
REMARK SMILES IDX 13 14
REMARK H PARENT
REMARK Flexibility Score: inf
ROOT
ATOM      1  C   UNL     1       6.393   0.884   1.046  1.00  0.00     0.080 C 
ENDROOT
BRANCH   1   2
ATOM      2  C   UNL     1       5.165   1.721   0.947  1.00  0.00     0.130 C 
ATOM      3  C   UNL     1       4.935   2.636  -0.203  1.00  0.00     0.087 C 
ATOM      4  O   UNL     1       4.306   1.679   1.813  1.00  0.00    -0.300 OA
ENDBRANCH   1   2
BRANCH   1   5
ATOM      5  C   UNL     1       7.287   1.072  -0.164  1.00  0.00     0.043 C 
BRANCH   5   6
ATOM      6  C   UNL     1       7.623  -0.215  -0.799  1.00  0.00    -0.044 A 
ATOM      7  C   UNL     1       7.642  -0.362  -2.191  1.00  0.00     0.008 A 
ATOM      8  C   UNL     1       7.929  -1.304  -0.015  1.00  0.00     0.054 A 
ATOM      9  C   UNL     1       7.965  -1.594  -2.731  1.00  0.00     0.051 A 
ATOM     10  C   UNL     1       8.256  -2.546  -0.566  1.00  0.00     0.166 A 
ATOM     11  C   UNL     1       8.274  -2.692  -1.935  1.00  0.00     0.165 A 
ATOM     12  O   UNL     1       8.592  -3.762  -0.009  1.00  0.00    -0.454 OA
ATOM     13  O   UNL     1       8.626  -4.008  -2.193  1.00  0.00    -0.454 OA
ATOM     14  C   UNL     1       8.925  -4.697  -1.003  1.00  0.00     0.468 C 
ENDBRANCH   5   6
ENDBRANCH   1   5
TORSDOF 3
ENDMDL
