@<TRIPOS>MOLECULE
/home/cewinharhar/GITHUB/reincatalyze/data/processed/docking_pred/2023-May-22-1902_sub9_nm5_bs15_s42_ex16_mel10_mts1000_k50_ec02_g099_lra9e-4_lrc1e-3/141a4713aaf07cdd351da17b8461b13d6c9c65f9_ligand_9.pdbqt
 14 15 0 0 0
SMALL
GASTEIGER

@<TRIPOS>ATOM
      1  C          5.5090    1.9240    1.2660 C.3     1  UNL1        0.0800
      2  C          5.0590    0.7090    2.0010 C.2     1  UNL1        0.1300
      3  C          5.9370   -0.4810    2.1550 C.3     1  UNL1        0.0870
      4  O          3.9470    0.6560    2.5010 O.2     1  UNL1       -0.3000
      5  C          5.3870    1.7370   -0.2340 C.3     1  UNL1        0.0430
      6  C          6.5550    1.0360   -0.7950 C.2     1  UNL1       -0.0440
      7  C          7.8610    1.4740   -0.5450 C.2     1  UNL1        0.0080
      8  C          6.3700   -0.0770   -1.5820 C.2     1  UNL1        0.0540
      9  C          8.9200    0.7760   -1.0980 C.2     1  UNL1        0.0510
     10  C          7.4440   -0.7800   -2.1380 C.2     1  UNL1        0.1660
     11  C          8.7290   -0.3490   -1.8940 C.2     1  UNL1        0.1650
     12  O          7.5200   -1.8970   -2.9430 O.2     1  UNL1       -0.4540
     13  O          9.5760   -1.2210   -2.5600 O.2     1  UNL1       -0.4540
     14  C          8.8560   -2.2700   -3.1620 C.3     1  UNL1        0.4680
@<TRIPOS>BOND
     1    14    12    1
     2    14    13    1
     3    12    10    1
     4    13    11    1
     5    10    11    2
     6    10     8    1
     7    11     9    1
     8     8     6    2
     9     9     7    2
    10     6     7    1
    11     6     5    1
    12     5     1    1
    13     1     2    1
    14     2     3    1
    15     2     4    2
