@<TRIPOS>MOLECULE
/home/cewinharhar/GITHUB/reincatalyze/data/processed/docking_pred/2023-May-22-1902_sub9_nm5_bs15_s42_ex16_mel10_mts1000_k50_ec02_g099_lra9e-4_lrc1e-3/141a4713aaf07cdd351da17b8461b13d6c9c65f9_ligand_9.pdbqt
 14 15 0 0 0
SMALL
GASTEIGER

@<TRIPOS>ATOM
      1  C          5.3760    2.9450    0.3020 C.3     1  UNL1        0.0800
      2  C          6.3740    3.7350    1.0760 C.2     1  UNL1        0.1300
      3  C          7.2180    4.7750    0.4300 C.3     1  UNL1        0.0870
      4  O          6.5280    3.5480    2.2720 O.2     1  UNL1       -0.3000
      5  C          5.1310    1.5910    0.9380 C.3     1  UNL1        0.0430
      6  C          5.9760    0.5440    0.3370 C.2     1  UNL1       -0.0440
      7  C          6.3590    0.5940   -1.0080 C.2     1  UNL1        0.0080
      8  C          6.4060   -0.5120    1.1080 C.2     1  UNL1        0.0540
      9  C          7.1530   -0.4170   -1.5170 C.2     1  UNL1        0.0510
     10  C          7.2100   -1.5310    0.5890 C.2     1  UNL1        0.1660
     11  C          7.5860   -1.4840   -0.7350 C.2     1  UNL1        0.1650
     12  O          7.7580   -2.6690    1.1410 O.2     1  UNL1       -0.4540
     13  O          8.3670   -2.6050   -0.9700 O.2     1  UNL1       -0.4540
     14  C          8.5760   -3.3360    0.2150 C.3     1  UNL1        0.4680
@<TRIPOS>BOND
     1     9     7    1
     2     9    11    2
     3     7     6    2
     4    13    11    1
     5    13    14    1
     6    11    10    1
     7    14    12    1
     8     1     5    1
     9     1     2    1
    10     6     5    1
    11     6     8    1
    12     3     2    1
    13    10     8    2
    14    10    12    1
    15     2     4    2
