MODEL 1
REMARK VINA RESULT:      -7.9      0.000      0.000
REMARK SMILES CC(=O)CCc1ccc2c(c1)OCO2
REMARK SMILES IDX 4 1 2 2 1 3 3 4 5 5 6 6 7 7 11 8 8 9 10 10 9 11 12 12 14 13
REMARK SMILES IDX 13 14
REMARK H PARENT
REMARK Flexibility Score: inf
ROOT
ATOM      1  C   UNL     1       5.414   2.948   0.290  1.00  0.00     0.080 C 
ENDROOT
BRANCH   1   2
ATOM      2  C   UNL     1       6.404   3.730   1.082  1.00  0.00     0.130 C 
ATOM      3  C   UNL     1       7.256   4.775   0.453  1.00  0.00     0.087 C 
ATOM      4  O   UNL     1       6.546   3.534   2.278  1.00  0.00    -0.300 OA
ENDBRANCH   1   2
BRANCH   1   5
ATOM      5  C   UNL     1       5.114   1.615   0.947  1.00  0.00     0.043 C 
BRANCH   5   6
ATOM      6  C   UNL     1       5.964   0.538   0.410  1.00  0.00    -0.044 A 
ATOM      7  C   UNL     1       6.324  -0.568   1.188  1.00  0.00     0.008 A 
ATOM      8  C   UNL     1       6.418   0.610  -0.887  1.00  0.00     0.054 A 
ATOM      9  C   UNL     1       7.124  -1.549   0.630  1.00  0.00     0.051 A 
ATOM     10  C   UNL     1       7.226  -0.384  -1.447  1.00  0.00     0.166 A 
ATOM     11  C   UNL     1       7.582  -1.473  -0.682  1.00  0.00     0.165 A 
ATOM     12  O   UNL     1       7.798  -0.541  -2.692  1.00  0.00    -0.454 OA
ATOM     13  O   UNL     1       8.372  -2.284  -1.481  1.00  0.00    -0.454 OA
ATOM     14  C   UNL     1       8.460  -1.776  -2.791  1.00  0.00     0.468 C 
ENDBRANCH   5   6
ENDBRANCH   1   5
TORSDOF 3
ENDMDL
MODEL 2
REMARK VINA RESULT:      -7.8      0.967      1.961
REMARK SMILES CC(=O)CCc1ccc2c(c1)OCO2
REMARK SMILES IDX 4 1 2 2 1 3 3 4 5 5 6 6 7 7 11 8 8 9 10 10 9 11 12 12 14 13
REMARK SMILES IDX 13 14
REMARK H PARENT
REMARK Flexibility Score: inf
ROOT
ATOM      1  C   UNL     1       5.376   2.945   0.302  1.00  0.00     0.080 C 
ENDROOT
BRANCH   1   2
ATOM      2  C   UNL     1       6.374   3.735   1.076  1.00  0.00     0.130 C 
ATOM      3  C   UNL     1       7.218   4.775   0.430  1.00  0.00     0.087 C 
ATOM      4  O   UNL     1       6.528   3.548   2.272  1.00  0.00    -0.300 OA
ENDBRANCH   1   2
BRANCH   1   5
ATOM      5  C   UNL     1       5.131   1.591   0.938  1.00  0.00     0.043 C 
BRANCH   5   6
ATOM      6  C   UNL     1       5.976   0.544   0.337  1.00  0.00    -0.044 A 
ATOM      7  C   UNL     1       6.359   0.594  -1.008  1.00  0.00     0.008 A 
ATOM      8  C   UNL     1       6.406  -0.512   1.108  1.00  0.00     0.054 A 
ATOM      9  C   UNL     1       7.153  -0.417  -1.517  1.00  0.00     0.051 A 
ATOM     10  C   UNL     1       7.210  -1.531   0.589  1.00  0.00     0.166 A 
ATOM     11  C   UNL     1       7.586  -1.484  -0.735  1.00  0.00     0.165 A 
ATOM     12  O   UNL     1       7.758  -2.669   1.141  1.00  0.00    -0.454 OA
ATOM     13  O   UNL     1       8.367  -2.605  -0.970  1.00  0.00    -0.454 OA
ATOM     14  C   UNL     1       8.576  -3.336   0.215  1.00  0.00     0.468 C 
ENDBRANCH   5   6
ENDBRANCH   1   5
TORSDOF 3
ENDMDL
MODEL 3
REMARK VINA RESULT:      -7.7      1.893      2.643
REMARK SMILES CC(=O)CCc1ccc2c(c1)OCO2
REMARK SMILES IDX 4 1 2 2 1 3 3 4 5 5 6 6 7 7 11 8 8 9 10 10 9 11 12 12 14 13
REMARK SMILES IDX 13 14
REMARK H PARENT
REMARK Flexibility Score: inf
ROOT
ATOM      1  C   UNL     1       5.509   1.924   1.266  1.00  0.00     0.080 C 
ENDROOT
BRANCH   1   2
ATOM      2  C   UNL     1       5.059   0.709   2.001  1.00  0.00     0.130 C 
ATOM      3  C   UNL     1       5.937  -0.481   2.155  1.00  0.00     0.087 C 
ATOM      4  O   UNL     1       3.947   0.656   2.501  1.00  0.00    -0.300 OA
ENDBRANCH   1   2
BRANCH   1   5
ATOM      5  C   UNL     1       5.387   1.737  -0.234  1.00  0.00     0.043 C 
BRANCH   5   6
ATOM      6  C   UNL     1       6.555   1.036  -0.795  1.00  0.00    -0.044 A 
ATOM      7  C   UNL     1       7.861   1.474  -0.545  1.00  0.00     0.008 A 
ATOM      8  C   UNL     1       6.370  -0.077  -1.582  1.00  0.00     0.054 A 
ATOM      9  C   UNL     1       8.920   0.776  -1.098  1.00  0.00     0.051 A 
ATOM     10  C   UNL     1       7.444  -0.780  -2.138  1.00  0.00     0.166 A 
ATOM     11  C   UNL     1       8.729  -0.349  -1.894  1.00  0.00     0.165 A 
ATOM     12  O   UNL     1       7.520  -1.897  -2.943  1.00  0.00    -0.454 OA
ATOM     13  O   UNL     1       9.576  -1.221  -2.560  1.00  0.00    -0.454 OA
ATOM     14  C   UNL     1       8.856  -2.270  -3.162  1.00  0.00     0.468 C 
ENDBRANCH   5   6
ENDBRANCH   1   5
TORSDOF 3
ENDMDL
MODEL 4
REMARK VINA RESULT:      -7.6      1.137      1.551
REMARK SMILES CC(=O)CCc1ccc2c(c1)OCO2
REMARK SMILES IDX 4 1 2 2 1 3 3 4 5 5 6 6 7 7 11 8 8 9 10 10 9 11 12 12 14 13
REMARK SMILES IDX 13 14
REMARK H PARENT
REMARK Flexibility Score: inf
ROOT
ATOM      1  C   UNL     1       5.429   2.868   0.220  1.00  0.00     0.080 C 
ENDROOT
BRANCH   1   2
ATOM      2  C   UNL     1       6.308   3.760   1.028  1.00  0.00     0.130 C 
ATOM      3  C   UNL     1       7.191   4.773   0.389  1.00  0.00     0.087 C 
ATOM      4  O   UNL     1       6.328   3.683   2.245  1.00  0.00    -0.300 OA
ENDBRANCH   1   2
BRANCH   1   5
ATOM      5  C   UNL     1       5.644   1.411   0.580  1.00  0.00     0.043 C 
BRANCH   5   6
ATOM      6  C   UNL     1       6.714   0.800  -0.229  1.00  0.00    -0.044 A 
ATOM      7  C   UNL     1       7.988   1.373  -0.311  1.00  0.00     0.008 A 
ATOM      8  C   UNL     1       6.466  -0.363  -0.921  1.00  0.00     0.054 A 
ATOM      9  C   UNL     1       8.953   0.755  -1.085  1.00  0.00     0.051 A 
ATOM     10  C   UNL     1       7.445  -0.985  -1.702  1.00  0.00     0.166 A 
ATOM     11  C   UNL     1       8.699  -0.421  -1.784  1.00  0.00     0.165 A 
ATOM     12  O   UNL     1       7.446  -2.127  -2.473  1.00  0.00    -0.454 OA
ATOM     13  O   UNL     1       9.452  -1.238  -2.613  1.00  0.00    -0.454 OA
ATOM     14  C   UNL     1       8.724  -2.380  -2.999  1.00  0.00     0.468 C 
ENDBRANCH   5   6
ENDBRANCH   1   5
TORSDOF 3
ENDMDL
MODEL 5
REMARK VINA RESULT:      -7.5      2.001      3.072
REMARK SMILES CC(=O)CCc1ccc2c(c1)OCO2
REMARK SMILES IDX 4 1 2 2 1 3 3 4 5 5 6 6 7 7 11 8 8 9 10 10 9 11 12 12 14 13
REMARK SMILES IDX 13 14
REMARK H PARENT
REMARK Flexibility Score: inf
ROOT
ATOM      1  C   UNL     1       5.802   1.379  -0.371  1.00  0.00     0.080 C 
ENDROOT
BRANCH   1   2
ATOM      2  C   UNL     1       5.150   1.335   0.968  1.00  0.00     0.130 C 
ATOM      3  C   UNL     1       5.405   0.224   1.924  1.00  0.00     0.087 C 
ATOM      4  O   UNL     1       4.383   2.215   1.320  1.00  0.00    -0.300 OA
ENDBRANCH   1   2
BRANCH   1   5
ATOM      5  C   UNL     1       7.285   1.077  -0.272  1.00  0.00     0.043 C 
BRANCH   5   6
ATOM      6  C   UNL     1       7.619  -0.225  -0.875  1.00  0.00    -0.044 A 
ATOM      7  C   UNL     1       7.619  -0.412  -2.262  1.00  0.00     0.008 A 
ATOM      8  C   UNL     1       7.943  -1.290  -0.065  1.00  0.00     0.054 A 
ATOM      9  C   UNL     1       7.942  -1.657  -2.772  1.00  0.00     0.051 A 
ATOM     10  C   UNL     1       8.269  -2.546  -0.585  1.00  0.00     0.166 A 
ATOM     11  C   UNL     1       8.268  -2.731  -1.950  1.00  0.00     0.165 A 
ATOM     12  O   UNL     1       8.620  -3.743   0.001  1.00  0.00    -0.454 OA
ATOM     13  O   UNL     1       8.623  -4.051  -2.176  1.00  0.00    -0.454 OA
ATOM     14  C   UNL     1       8.944  -4.705  -0.971  1.00  0.00     0.468 C 
ENDBRANCH   5   6
ENDBRANCH   1   5
TORSDOF 3
ENDMDL
