@<TRIPOS>MOLECULE
/home/cewinharhar/GITHUB/reincatalyze/data/processed/docking_pred/2023-May-22-1902_sub9_nm5_bs15_s42_ex16_mel10_mts1000_k50_ec02_g099_lra9e-4_lrc1e-3/141a4713aaf07cdd351da17b8461b13d6c9c65f9_ligand_9.pdbqt
 14 15 0 0 0
SMALL
GASTEIGER

@<TRIPOS>ATOM
      1  C          5.4140    2.9480    0.2900 C.3     1  UNL1        0.0800
      2  C          6.4040    3.7300    1.0820 C.2     1  UNL1        0.1300
      3  C          7.2560    4.7750    0.4530 C.3     1  UNL1        0.0870
      4  O          6.5460    3.5340    2.2780 O.2     1  UNL1       -0.3000
      5  C          5.1140    1.6150    0.9470 C.3     1  UNL1        0.0430
      6  C          5.9640    0.5380    0.4100 C.2     1  UNL1       -0.0440
      7  C          6.3240   -0.5680    1.1880 C.2     1  UNL1        0.0080
      8  C          6.4180    0.6100   -0.8870 C.2     1  UNL1        0.0540
      9  C          7.1240   -1.5490    0.6300 C.2     1  UNL1        0.0510
     10  C          7.2260   -0.3840   -1.4470 C.2     1  UNL1        0.1660
     11  C          7.5820   -1.4730   -0.6820 C.2     1  UNL1        0.1650
     12  O          7.7980   -0.5410   -2.6920 O.2     1  UNL1       -0.4540
     13  O          8.3720   -2.2840   -1.4810 O.2     1  UNL1       -0.4540
     14  C          8.4600   -1.7760   -2.7910 C.3     1  UNL1        0.4680
@<TRIPOS>BOND
     1    14    12    1
     2    14    13    1
     3    12    10    1
     4    13    11    1
     5    10     8    1
     6    10    11    2
     7     8     6    2
     8    11     9    1
     9     1     5    1
    10     1     2    1
    11     6     5    1
    12     6     7    1
    13     3     2    1
    14     9     7    2
    15     2     4    2
