@<TRIPOS>MOLECULE
/home/cewinharhar/GITHUB/reincatalyze/data/processed/docking_pred/2023-May-22-1902_sub9_nm5_bs15_s42_ex16_mel10_mts1000_k50_ec02_g099_lra9e-4_lrc1e-3/141a4713aaf07cdd351da17b8461b13d6c9c65f9_ligand_9.pdbqt
 14 15 0 0 0
SMALL
GASTEIGER

@<TRIPOS>ATOM
      1  C          5.4290    2.8680    0.2200 C.3     1  UNL1        0.0800
      2  C          6.3080    3.7600    1.0280 C.2     1  UNL1        0.1300
      3  C          7.1910    4.7730    0.3890 C.3     1  UNL1        0.0870
      4  O          6.3280    3.6830    2.2450 O.2     1  UNL1       -0.3000
      5  C          5.6440    1.4110    0.5800 C.3     1  UNL1        0.0430
      6  C          6.7140    0.8000   -0.2290 C.2     1  UNL1       -0.0440
      7  C          7.9880    1.3730   -0.3110 C.2     1  UNL1        0.0080
      8  C          6.4660   -0.3630   -0.9210 C.2     1  UNL1        0.0540
      9  C          8.9530    0.7550   -1.0850 C.2     1  UNL1        0.0510
     10  C          7.4450   -0.9850   -1.7020 C.2     1  UNL1        0.1660
     11  C          8.6990   -0.4210   -1.7840 C.2     1  UNL1        0.1650
     12  O          7.4460   -2.1270   -2.4730 O.2     1  UNL1       -0.4540
     13  O          9.4520   -1.2380   -2.6130 O.2     1  UNL1       -0.4540
     14  C          8.7240   -2.3800   -2.9990 C.3     1  UNL1        0.4680
@<TRIPOS>BOND
     1    14    13    1
     2    14    12    1
     3    13    11    1
     4    12    10    1
     5    11    10    2
     6    11     9    1
     7    10     8    1
     8     9     7    2
     9     8     6    2
    10     7     6    1
    11     6     5    1
    12     1     5    1
    13     1     2    1
    14     3     2    1
    15     2     4    2
