@<TRIPOS>MOLECULE
/home/cewinharhar/GITHUB/reincatalyze/data/processed/docking_pred/2023-May-22-1902_sub9_nm5_bs15_s42_ex16_mel10_mts1000_k50_ec02_g099_lra9e-4_lrc1e-3/1444e75be78da7e2931ed2b5f85ad252461f0798_ligand_9.pdbqt
 14 15 0 0 0
SMALL
GASTEIGER

@<TRIPOS>ATOM
      1  C          5.3740    3.0860    0.1470 C.3     1  UNL1        0.0800
      2  C          6.2760    3.9240    0.9840 C.2     1  UNL1        0.1300
      3  C          7.3370    4.7740    0.3790 C.3     1  UNL1        0.0870
      4  O          6.1710    3.9380    2.2000 O.2     1  UNL1       -0.3000
      5  C          5.0730    1.7610    0.8200 C.3     1  UNL1        0.0430
      6  C          5.9270    0.6780    0.3010 C.2     1  UNL1       -0.0440
      7  C          6.3670    0.6640   -1.0270 C.2     1  UNL1        0.0080
      8  C          6.3100   -0.3480    1.1350 C.2     1  UNL1        0.0540
      9  C          7.1680   -0.3780   -1.4580 C.2     1  UNL1        0.0510
     10  C          7.1200   -1.3990    0.6950 C.2     1  UNL1        0.1660
     11  C          7.5530   -1.4140   -0.6120 C.2     1  UNL1        0.1650
     12  O          7.6290   -2.5180    1.3190 O.2     1  UNL1       -0.4540
     13  O          8.3270   -2.5540   -0.7650 O.2     1  UNL1       -0.4540
     14  C          8.4760   -3.2340    0.4580 C.3     1  UNL1        0.4680
@<TRIPOS>BOND
     1     9     7    1
     2     9    11    2
     3     7     6    2
     4    13    11    1
     5    13    14    1
     6    11    10    1
     7     1     5    1
     8     1     2    1
     9     6     5    1
    10     6     8    1
    11     3     2    1
    12    14    12    1
    13    10     8    2
    14    10    12    1
    15     2     4    2
