@<TRIPOS>MOLECULE
/home/cewinharhar/GITHUB/reincatalyze/data/processed/docking_pred/2023-May-22-1902_sub9_nm5_bs15_s42_ex16_mel10_mts1000_k50_ec02_g099_lra9e-4_lrc1e-3/1444e75be78da7e2931ed2b5f85ad252461f0798_ligand_9.pdbqt
 14 15 0 0 0
SMALL
GASTEIGER

@<TRIPOS>ATOM
      1  C          5.3750    2.9260    0.0500 C.3     1  UNL1        0.0800
      2  C          6.2560    3.7700    0.9040 C.2     1  UNL1        0.1300
      3  C          7.1830    4.7740    0.3170 C.3     1  UNL1        0.0870
      4  O          6.2430    3.6600    2.1190 O.2     1  UNL1       -0.3000
      5  C          5.0330    1.6180    0.7350 C.3     1  UNL1        0.0430
      6  C          5.8770    0.5100    0.2520 C.2     1  UNL1       -0.0440
      7  C          6.1800   -0.5890    1.0640 C.2     1  UNL1        0.0080
      8  C          6.3830    0.5460   -1.0270 C.2     1  UNL1        0.0540
      9  C          6.9770   -1.5990    0.5570 C.2     1  UNL1        0.0510
     10  C          7.1880   -0.4780   -1.5360 C.2     1  UNL1        0.1660
     11  C          7.4870   -1.5590   -0.7370 C.2     1  UNL1        0.1650
     12  O          7.8030   -0.6720   -2.7540 O.2     1  UNL1       -0.4540
     13  O          8.2880   -2.4040   -1.4900 O.2     1  UNL1       -0.4540
     14  C          8.4380   -1.9240   -2.8050 C.3     1  UNL1        0.4680
@<TRIPOS>BOND
     1    14    12    1
     2    14    13    1
     3    12    10    1
     4    10     8    1
     5    10    11    2
     6    13    11    1
     7     8     6    2
     8    11     9    1
     9     1     5    1
    10     1     2    1
    11     6     5    1
    12     6     7    1
    13     3     2    1
    14     9     7    2
    15     2     4    2
