MODEL 1
REMARK VINA RESULT:      -7.9      0.000      0.000
REMARK SMILES CC(=O)CCc1ccc2c(c1)OCO2
REMARK SMILES IDX 4 1 2 2 1 3 3 4 5 5 6 6 7 7 11 8 8 9 10 10 9 11 12 12 14 13
REMARK SMILES IDX 13 14
REMARK H PARENT
REMARK Flexibility Score: inf
ROOT
ATOM      1  C   UNL     1       5.375   2.926   0.050  1.00  0.00     0.080 C 
ENDROOT
BRANCH   1   2
ATOM      2  C   UNL     1       6.256   3.770   0.904  1.00  0.00     0.130 C 
ATOM      3  C   UNL     1       7.183   4.774   0.317  1.00  0.00     0.087 C 
ATOM      4  O   UNL     1       6.243   3.660   2.119  1.00  0.00    -0.300 OA
ENDBRANCH   1   2
BRANCH   1   5
ATOM      5  C   UNL     1       5.033   1.618   0.735  1.00  0.00     0.043 C 
BRANCH   5   6
ATOM      6  C   UNL     1       5.877   0.510   0.252  1.00  0.00    -0.044 A 
ATOM      7  C   UNL     1       6.180  -0.589   1.064  1.00  0.00     0.008 A 
ATOM      8  C   UNL     1       6.383   0.546  -1.027  1.00  0.00     0.054 A 
ATOM      9  C   UNL     1       6.977  -1.599   0.557  1.00  0.00     0.051 A 
ATOM     10  C   UNL     1       7.188  -0.478  -1.536  1.00  0.00     0.166 A 
ATOM     11  C   UNL     1       7.487  -1.559  -0.737  1.00  0.00     0.165 A 
ATOM     12  O   UNL     1       7.803  -0.672  -2.754  1.00  0.00    -0.454 OA
ATOM     13  O   UNL     1       8.288  -2.404  -1.490  1.00  0.00    -0.454 OA
ATOM     14  C   UNL     1       8.438  -1.924  -2.805  1.00  0.00     0.468 C 
ENDBRANCH   5   6
ENDBRANCH   1   5
TORSDOF 3
ENDMDL
MODEL 2
REMARK VINA RESULT:      -7.7      1.022      2.002
REMARK SMILES CC(=O)CCc1ccc2c(c1)OCO2
REMARK SMILES IDX 4 1 2 2 1 3 3 4 5 5 6 6 7 7 11 8 8 9 10 10 9 11 12 12 14 13
REMARK SMILES IDX 13 14
REMARK H PARENT
REMARK Flexibility Score: inf
ROOT
ATOM      1  C   UNL     1       5.374   3.086   0.147  1.00  0.00     0.080 C 
ENDROOT
BRANCH   1   2
ATOM      2  C   UNL     1       6.276   3.924   0.984  1.00  0.00     0.130 C 
ATOM      3  C   UNL     1       7.337   4.774   0.379  1.00  0.00     0.087 C 
ATOM      4  O   UNL     1       6.171   3.938   2.200  1.00  0.00    -0.300 OA
ENDBRANCH   1   2
BRANCH   1   5
ATOM      5  C   UNL     1       5.073   1.761   0.820  1.00  0.00     0.043 C 
BRANCH   5   6
ATOM      6  C   UNL     1       5.927   0.678   0.301  1.00  0.00    -0.044 A 
ATOM      7  C   UNL     1       6.367   0.664  -1.027  1.00  0.00     0.008 A 
ATOM      8  C   UNL     1       6.310  -0.348   1.135  1.00  0.00     0.054 A 
ATOM      9  C   UNL     1       7.168  -0.378  -1.458  1.00  0.00     0.051 A 
ATOM     10  C   UNL     1       7.120  -1.399   0.695  1.00  0.00     0.166 A 
ATOM     11  C   UNL     1       7.553  -1.414  -0.612  1.00  0.00     0.165 A 
ATOM     12  O   UNL     1       7.629  -2.518   1.319  1.00  0.00    -0.454 OA
ATOM     13  O   UNL     1       8.327  -2.554  -0.765  1.00  0.00    -0.454 OA
ATOM     14  C   UNL     1       8.476  -3.234   0.458  1.00  0.00     0.468 C 
ENDBRANCH   5   6
ENDBRANCH   1   5
TORSDOF 3
ENDMDL
MODEL 3
REMARK VINA RESULT:      -7.6      1.868      2.648
REMARK SMILES CC(=O)CCc1ccc2c(c1)OCO2
REMARK SMILES IDX 4 1 2 2 1 3 3 4 5 5 6 6 7 7 11 8 8 9 10 10 9 11 12 12 14 13
REMARK SMILES IDX 13 14
REMARK H PARENT
REMARK Flexibility Score: inf
ROOT
ATOM      1  C   UNL     1       5.518   1.926   1.282  1.00  0.00     0.080 C 
ENDROOT
BRANCH   1   2
ATOM      2  C   UNL     1       5.045   0.711   2.002  1.00  0.00     0.130 C 
ATOM      3  C   UNL     1       5.907  -0.492   2.153  1.00  0.00     0.087 C 
ATOM      4  O   UNL     1       3.928   0.668   2.491  1.00  0.00    -0.300 OA
ENDBRANCH   1   2
BRANCH   1   5
ATOM      5  C   UNL     1       5.397   1.758  -0.220  1.00  0.00     0.043 C 
BRANCH   5   6
ATOM      6  C   UNL     1       6.560   1.051  -0.786  1.00  0.00    -0.044 A 
ATOM      7  C   UNL     1       7.870   1.478  -0.539  1.00  0.00     0.008 A 
ATOM      8  C   UNL     1       6.365  -0.059  -1.576  1.00  0.00     0.054 A 
ATOM      9  C   UNL     1       8.922   0.774  -1.096  1.00  0.00     0.051 A 
ATOM     10  C   UNL     1       7.432  -0.768  -2.136  1.00  0.00     0.166 A 
ATOM     11  C   UNL     1       8.720  -0.347  -1.895  1.00  0.00     0.165 A 
ATOM     12  O   UNL     1       7.498  -1.883  -2.944  1.00  0.00    -0.454 OA
ATOM     13  O   UNL     1       9.560  -1.223  -2.565  1.00  0.00    -0.454 OA
ATOM     14  C   UNL     1       8.831  -2.265  -3.168  1.00  0.00     0.468 C 
ENDBRANCH   5   6
ENDBRANCH   1   5
TORSDOF 3
ENDMDL
MODEL 4
REMARK VINA RESULT:      -7.6      1.160      1.597
REMARK SMILES CC(=O)CCc1ccc2c(c1)OCO2
REMARK SMILES IDX 4 1 2 2 1 3 3 4 5 5 6 6 7 7 11 8 8 9 10 10 9 11 12 12 14 13
REMARK SMILES IDX 13 14
REMARK H PARENT
REMARK Flexibility Score: inf
ROOT
ATOM      1  C   UNL     1       5.430   2.824   0.162  1.00  0.00     0.080 C 
ENDROOT
BRANCH   1   2
ATOM      2  C   UNL     1       6.264   3.743   0.987  1.00  0.00     0.130 C 
ATOM      3  C   UNL     1       7.137   4.774   0.365  1.00  0.00     0.087 C 
ATOM      4  O   UNL     1       6.254   3.675   2.205  1.00  0.00    -0.300 OA
ENDBRANCH   1   2
BRANCH   1   5
ATOM      5  C   UNL     1       5.669   1.376   0.541  1.00  0.00     0.043 C 
BRANCH   5   6
ATOM      6  C   UNL     1       6.743   0.770  -0.266  1.00  0.00    -0.044 A 
ATOM      7  C   UNL     1       8.002   1.372  -0.381  1.00  0.00     0.008 A 
ATOM      8  C   UNL     1       6.516  -0.417  -0.924  1.00  0.00     0.054 A 
ATOM      9  C   UNL     1       8.972   0.757  -1.152  1.00  0.00     0.051 A 
ATOM     10  C   UNL     1       7.500  -1.035  -1.701  1.00  0.00     0.166 A 
ATOM     11  C   UNL     1       8.738  -0.443  -1.816  1.00  0.00     0.165 A 
ATOM     12  O   UNL     1       7.520  -2.198  -2.443  1.00  0.00    -0.454 OA
ATOM     13  O   UNL     1       9.500  -1.263  -2.633  1.00  0.00    -0.454 OA
ATOM     14  C   UNL     1       8.796  -2.432  -2.979  1.00  0.00     0.468 C 
ENDBRANCH   5   6
ENDBRANCH   1   5
TORSDOF 3
ENDMDL
MODEL 5
REMARK VINA RESULT:      -7.4      1.961      3.019
REMARK SMILES CC(=O)CCc1ccc2c(c1)OCO2
REMARK SMILES IDX 4 1 2 2 1 3 3 4 5 5 6 6 7 7 11 8 8 9 10 10 9 11 12 12 14 13
REMARK SMILES IDX 13 14
REMARK H PARENT
REMARK Flexibility Score: inf
ROOT
ATOM      1  C   UNL     1       5.780   1.411  -0.348  1.00  0.00     0.080 C 
ENDROOT
BRANCH   1   2
ATOM      2  C   UNL     1       5.048   1.320   0.946  1.00  0.00     0.130 C 
ATOM      3  C   UNL     1       5.268   0.191   1.890  1.00  0.00     0.087 C 
ATOM      4  O   UNL     1       4.240   2.175   1.271  1.00  0.00    -0.300 OA
ENDBRANCH   1   2
BRANCH   1   5
ATOM      5  C   UNL     1       7.252   1.099  -0.171  1.00  0.00     0.043 C 
BRANCH   5   6
ATOM      6  C   UNL     1       7.619  -0.184  -0.797  1.00  0.00    -0.044 A 
ATOM      7  C   UNL     1       7.675  -0.331  -2.187  1.00  0.00     0.008 A 
ATOM      8  C   UNL     1       7.917  -1.269  -0.004  1.00  0.00     0.054 A 
ATOM      9  C   UNL     1       8.026  -1.559  -2.718  1.00  0.00     0.051 A 
ATOM     10  C   UNL     1       8.271  -2.508  -0.546  1.00  0.00     0.166 A 
ATOM     11  C   UNL     1       8.326  -2.654  -1.914  1.00  0.00     0.165 A 
ATOM     12  O   UNL     1       8.606  -3.720   0.020  1.00  0.00    -0.454 OA
ATOM     13  O   UNL     1       8.699  -3.966  -2.163  1.00  0.00    -0.454 OA
ATOM     14  C   UNL     1       8.975  -4.652  -0.965  1.00  0.00     0.468 C 
ENDBRANCH   5   6
ENDBRANCH   1   5
TORSDOF 3
ENDMDL
