@<TRIPOS>MOLECULE
/home/cewinharhar/GITHUB/reincatalyze/data/processed/docking_pred/2023-May-22-1902_sub9_nm5_bs15_s42_ex16_mel10_mts1000_k50_ec02_g099_lra9e-4_lrc1e-3/1444e75be78da7e2931ed2b5f85ad252461f0798_ligand_9.pdbqt
 14 15 0 0 0
SMALL
GASTEIGER

@<TRIPOS>ATOM
      1  C          5.5180    1.9260    1.2820 C.3     1  UNL1        0.0800
      2  C          5.0450    0.7110    2.0020 C.2     1  UNL1        0.1300
      3  C          5.9070   -0.4920    2.1530 C.3     1  UNL1        0.0870
      4  O          3.9280    0.6680    2.4910 O.2     1  UNL1       -0.3000
      5  C          5.3970    1.7580   -0.2200 C.3     1  UNL1        0.0430
      6  C          6.5600    1.0510   -0.7860 C.2     1  UNL1       -0.0440
      7  C          7.8700    1.4780   -0.5390 C.2     1  UNL1        0.0080
      8  C          6.3650   -0.0590   -1.5760 C.2     1  UNL1        0.0540
      9  C          8.9220    0.7740   -1.0960 C.2     1  UNL1        0.0510
     10  C          7.4320   -0.7680   -2.1360 C.2     1  UNL1        0.1660
     11  C          8.7200   -0.3470   -1.8950 C.2     1  UNL1        0.1650
     12  O          7.4980   -1.8830   -2.9440 O.2     1  UNL1       -0.4540
     13  O          9.5600   -1.2230   -2.5650 O.2     1  UNL1       -0.4540
     14  C          8.8310   -2.2650   -3.1680 C.3     1  UNL1        0.4680
@<TRIPOS>BOND
     1    14    12    1
     2    14    13    1
     3    12    10    1
     4    13    11    1
     5    10    11    2
     6    10     8    1
     7    11     9    1
     8     8     6    2
     9     9     7    2
    10     6     7    1
    11     6     5    1
    12     5     1    1
    13     1     2    1
    14     2     3    1
    15     2     4    2
