@<TRIPOS>MOLECULE
/home/cewinharhar/GITHUB/reincatalyze/data/processed/docking_pred/2023-May-22-1902_sub9_nm5_bs15_s42_ex16_mel10_mts1000_k50_ec02_g099_lra9e-4_lrc1e-3/1444e75be78da7e2931ed2b5f85ad252461f0798_ligand_9.pdbqt
 14 15 0 0 0
SMALL
GASTEIGER

@<TRIPOS>ATOM
      1  C          5.4300    2.8240    0.1620 C.3     1  UNL1        0.0800
      2  C          6.2640    3.7430    0.9870 C.2     1  UNL1        0.1300
      3  C          7.1370    4.7740    0.3650 C.3     1  UNL1        0.0870
      4  O          6.2540    3.6750    2.2050 O.2     1  UNL1       -0.3000
      5  C          5.6690    1.3760    0.5410 C.3     1  UNL1        0.0430
      6  C          6.7430    0.7700   -0.2660 C.2     1  UNL1       -0.0440
      7  C          8.0020    1.3720   -0.3810 C.2     1  UNL1        0.0080
      8  C          6.5160   -0.4170   -0.9240 C.2     1  UNL1        0.0540
      9  C          8.9720    0.7570   -1.1520 C.2     1  UNL1        0.0510
     10  C          7.5000   -1.0350   -1.7010 C.2     1  UNL1        0.1660
     11  C          8.7380   -0.4430   -1.8160 C.2     1  UNL1        0.1650
     12  O          7.5200   -2.1980   -2.4430 O.2     1  UNL1       -0.4540
     13  O          9.5000   -1.2630   -2.6330 O.2     1  UNL1       -0.4540
     14  C          8.7960   -2.4320   -2.9790 C.3     1  UNL1        0.4680
@<TRIPOS>BOND
     1    14    13    1
     2    14    12    1
     3    13    11    1
     4    12    10    1
     5    11    10    2
     6    11     9    1
     7    10     8    1
     8     9     7    2
     9     8     6    2
    10     7     6    1
    11     6     5    1
    12     1     5    1
    13     1     2    1
    14     3     2    1
    15     2     4    2
