@<TRIPOS>MOLECULE
/home/cewinharhar/GITHUB/reincatalyze/data/processed/docking_pred/2023-May-22-1902_sub9_nm5_bs15_s42_ex16_mel10_mts1000_k50_ec02_g099_lra9e-4_lrc1e-3/16519f8051380dc2329c6f51dcb24a8f5dfeda31_ligand_9.pdbqt
 14 15 0 0 0
SMALL
GASTEIGER

@<TRIPOS>ATOM
      1  C          5.4160    2.8100    0.2660 C.3     1  UNL1        0.0800
      2  C          6.3420    3.6330    1.0930 C.2     1  UNL1        0.1300
      3  C          7.1030    4.7720    0.5140 C.3     1  UNL1        0.0870
      4  O          6.5050    3.3920    2.2790 O.2     1  UNL1       -0.3000
      5  C          5.5990    1.3310    0.5410 C.3     1  UNL1        0.0430
      6  C          6.6910    0.7560   -0.2650 C.2     1  UNL1       -0.0440
      7  C          7.9420    1.3780   -0.3540 C.2     1  UNL1        0.0080
      8  C          6.4880   -0.4210   -0.9490 C.2     1  UNL1        0.0540
      9  C          8.9290    0.7920   -1.1250 C.2     1  UNL1        0.0510
     10  C          7.4890   -1.0090   -1.7270 C.2     1  UNL1        0.1660
     11  C          8.7200   -0.3970   -1.8160 C.2     1  UNL1        0.1650
     12  O          7.5340   -2.1560   -2.4910 O.2     1  UNL1       -0.4540
     13  O          9.5030   -1.1900   -2.6400 O.2     1  UNL1       -0.4540
     14  C          8.8200   -2.3620   -3.0170 C.3     1  UNL1        0.4680
@<TRIPOS>BOND
     1    14    13    1
     2    14    12    1
     3    13    11    1
     4    12    10    1
     5    11    10    2
     6    11     9    1
     7    10     8    1
     8     9     7    2
     9     8     6    2
    10     7     6    1
    11     6     5    1
    12     1     5    1
    13     1     2    1
    14     3     2    1
    15     2     4    2
