@<TRIPOS>MOLECULE
/home/cewinharhar/GITHUB/reincatalyze/data/processed/docking_pred/2023-May-22-1902_sub9_nm5_bs15_s42_ex16_mel10_mts1000_k50_ec02_g099_lra9e-4_lrc1e-3/16519f8051380dc2329c6f51dcb24a8f5dfeda31_ligand_9.pdbqt
 14 15 0 0 0
SMALL
GASTEIGER

@<TRIPOS>ATOM
      1  C          5.4260    2.9290    0.3840 C.3     1  UNL1        0.0800
      2  C          6.2560    3.9460    1.0880 C.2     1  UNL1        0.1300
      3  C          7.2780    4.7530    0.3700 C.3     1  UNL1        0.0870
      4  O          6.1200    4.1460    2.2840 O.2     1  UNL1       -0.3000
      5  C          5.3080    1.6560    1.1970 C.3     1  UNL1        0.0430
      6  C          6.1880    0.5930    0.6800 C.2     1  UNL1       -0.0440
      7  C          6.9520   -0.2090    1.5370 C.2     1  UNL1        0.0080
      8  C          6.2680    0.3730   -0.6760 C.2     1  UNL1        0.0540
      9  C          7.7600   -1.1910    0.9940 C.2     1  UNL1        0.0510
     10  C          7.0860   -0.6220   -1.2200 C.2     1  UNL1        0.1660
     11  C          7.8380   -1.4100   -0.3780 C.2     1  UNL1        0.1650
     12  O          7.3360   -1.0300   -2.5130 O.2     1  UNL1       -0.4540
     13  O          8.5410   -2.2960   -1.1800 O.2     1  UNL1       -0.4540
     14  C          8.1830   -2.1500   -2.5330 C.3     1  UNL1        0.4680
@<TRIPOS>BOND
     1    14    12    1
     2    14    13    1
     3    12    10    1
     4    10     8    1
     5    10    11    2
     6    13    11    1
     7     8     6    2
     8    11     9    1
     9     3     2    1
    10     1     2    1
    11     1     5    1
    12     6     5    1
    13     6     7    1
    14     9     7    2
    15     2     4    2
