@<TRIPOS>MOLECULE
/home/cewinharhar/GITHUB/reincatalyze/data/processed/docking_pred/2023-May-22-1902_sub9_nm5_bs15_s42_ex16_mel10_mts1000_k50_ec02_g099_lra9e-4_lrc1e-3/16519f8051380dc2329c6f51dcb24a8f5dfeda31_ligand_9.pdbqt
 14 15 0 0 0
SMALL
GASTEIGER

@<TRIPOS>ATOM
      1  C          6.1540    0.8010    1.2220 C.3     1  UNL1        0.0800
      2  C          5.0110    1.7260    0.9850 C.2     1  UNL1        0.1300
      3  C          4.9220    2.5580   -0.2440 C.3     1  UNL1        0.0870
      4  O          4.1080    1.8270    1.8000 O.2     1  UNL1       -0.3000
      5  C          7.2540    1.0120    0.2000 C.3     1  UNL1        0.0430
      6  C          7.5890   -0.2360   -0.5080 C.2     1  UNL1       -0.0440
      7  C          7.5520   -0.3190   -1.9040 C.2     1  UNL1        0.0080
      8  C          7.9500   -1.3520    0.2120 C.2     1  UNL1        0.0540
      9  C          7.8780   -1.5170   -2.5140 C.2     1  UNL1        0.0510
     10  C          8.2790   -2.5610   -0.4090 C.2     1  UNL1        0.1660
     11  C          8.2420   -2.6440   -1.7830 C.2     1  UNL1        0.1650
     12  O          8.6630   -3.7930    0.0760 O.2     1  UNL1       -0.4540
     13  O          8.6090   -3.9390   -2.1160 O.2     1  UNL1       -0.4540
     14  C          8.9730   -4.6740   -0.9730 C.3     1  UNL1        0.4680
@<TRIPOS>BOND
     1     9     7    1
     2     9    11    2
     3    13    11    1
     4    13    14    1
     5     7     6    2
     6    11    10    1
     7    14    12    1
     8     6     5    1
     9     6     8    1
    10    10    12    1
    11    10     8    2
    12     3     2    1
    13     5     1    1
    14     2     1    1
    15     2     4    2
