MODEL 1
REMARK VINA RESULT:      -7.7      0.000      0.000
REMARK SMILES CC(=O)CCc1ccc2c(c1)OCO2
REMARK SMILES IDX 4 1 2 2 1 3 3 4 5 5 6 6 7 7 11 8 8 9 10 10 9 11 12 12 14 13
REMARK SMILES IDX 13 14
REMARK H PARENT
REMARK Flexibility Score: inf
ROOT
ATOM      1  C   UNL     1       5.426   2.929   0.384  1.00  0.00     0.080 C 
ENDROOT
BRANCH   1   2
ATOM      2  C   UNL     1       6.256   3.946   1.088  1.00  0.00     0.130 C 
ATOM      3  C   UNL     1       7.278   4.753   0.370  1.00  0.00     0.087 C 
ATOM      4  O   UNL     1       6.120   4.146   2.284  1.00  0.00    -0.300 OA
ENDBRANCH   1   2
BRANCH   1   5
ATOM      5  C   UNL     1       5.308   1.656   1.197  1.00  0.00     0.043 C 
BRANCH   5   6
ATOM      6  C   UNL     1       6.188   0.593   0.680  1.00  0.00    -0.044 A 
ATOM      7  C   UNL     1       6.952  -0.209   1.537  1.00  0.00     0.008 A 
ATOM      8  C   UNL     1       6.268   0.373  -0.676  1.00  0.00     0.054 A 
ATOM      9  C   UNL     1       7.760  -1.191   0.994  1.00  0.00     0.051 A 
ATOM     10  C   UNL     1       7.086  -0.622  -1.220  1.00  0.00     0.166 A 
ATOM     11  C   UNL     1       7.838  -1.410  -0.378  1.00  0.00     0.165 A 
ATOM     12  O   UNL     1       7.336  -1.030  -2.513  1.00  0.00    -0.454 OA
ATOM     13  O   UNL     1       8.541  -2.296  -1.180  1.00  0.00    -0.454 OA
ATOM     14  C   UNL     1       8.183  -2.150  -2.533  1.00  0.00     0.468 C 
ENDBRANCH   5   6
ENDBRANCH   1   5
TORSDOF 3
ENDMDL
MODEL 2
REMARK VINA RESULT:      -7.6      1.246      1.489
REMARK SMILES CC(=O)CCc1ccc2c(c1)OCO2
REMARK SMILES IDX 4 1 2 2 1 3 3 4 5 5 6 6 7 7 11 8 8 9 10 10 9 11 12 12 14 13
REMARK SMILES IDX 13 14
REMARK H PARENT
REMARK Flexibility Score: inf
ROOT
ATOM      1  C   UNL     1       5.416   2.810   0.266  1.00  0.00     0.080 C 
ENDROOT
BRANCH   1   2
ATOM      2  C   UNL     1       6.342   3.633   1.093  1.00  0.00     0.130 C 
ATOM      3  C   UNL     1       7.103   4.772   0.514  1.00  0.00     0.087 C 
ATOM      4  O   UNL     1       6.505   3.392   2.279  1.00  0.00    -0.300 OA
ENDBRANCH   1   2
BRANCH   1   5
ATOM      5  C   UNL     1       5.599   1.331   0.541  1.00  0.00     0.043 C 
BRANCH   5   6
ATOM      6  C   UNL     1       6.691   0.756  -0.265  1.00  0.00    -0.044 A 
ATOM      7  C   UNL     1       7.942   1.378  -0.354  1.00  0.00     0.008 A 
ATOM      8  C   UNL     1       6.488  -0.421  -0.949  1.00  0.00     0.054 A 
ATOM      9  C   UNL     1       8.929   0.792  -1.125  1.00  0.00     0.051 A 
ATOM     10  C   UNL     1       7.489  -1.009  -1.727  1.00  0.00     0.166 A 
ATOM     11  C   UNL     1       8.720  -0.397  -1.816  1.00  0.00     0.165 A 
ATOM     12  O   UNL     1       7.534  -2.156  -2.491  1.00  0.00    -0.454 OA
ATOM     13  O   UNL     1       9.503  -1.190  -2.640  1.00  0.00    -0.454 OA
ATOM     14  C   UNL     1       8.820  -2.362  -3.017  1.00  0.00     0.468 C 
ENDBRANCH   5   6
ENDBRANCH   1   5
TORSDOF 3
ENDMDL
MODEL 3
REMARK VINA RESULT:      -7.5      1.836      2.825
REMARK SMILES CC(=O)CCc1ccc2c(c1)OCO2
REMARK SMILES IDX 4 1 2 2 1 3 3 4 5 5 6 6 7 7 11 8 8 9 10 10 9 11 12 12 14 13
REMARK SMILES IDX 13 14
REMARK H PARENT
REMARK Flexibility Score: inf
ROOT
ATOM      1  C   UNL     1       6.154   0.801   1.222  1.00  0.00     0.080 C 
ENDROOT
BRANCH   1   2
ATOM      2  C   UNL     1       5.011   1.726   0.985  1.00  0.00     0.130 C 
ATOM      3  C   UNL     1       4.922   2.558  -0.244  1.00  0.00     0.087 C 
ATOM      4  O   UNL     1       4.108   1.827   1.800  1.00  0.00    -0.300 OA
ENDBRANCH   1   2
BRANCH   1   5
ATOM      5  C   UNL     1       7.254   1.012   0.200  1.00  0.00     0.043 C 
BRANCH   5   6
ATOM      6  C   UNL     1       7.589  -0.236  -0.508  1.00  0.00    -0.044 A 
ATOM      7  C   UNL     1       7.552  -0.319  -1.904  1.00  0.00     0.008 A 
ATOM      8  C   UNL     1       7.950  -1.352   0.212  1.00  0.00     0.054 A 
ATOM      9  C   UNL     1       7.878  -1.517  -2.514  1.00  0.00     0.051 A 
ATOM     10  C   UNL     1       8.279  -2.561  -0.409  1.00  0.00     0.166 A 
ATOM     11  C   UNL     1       8.242  -2.644  -1.783  1.00  0.00     0.165 A 
ATOM     12  O   UNL     1       8.663  -3.793   0.076  1.00  0.00    -0.454 OA
ATOM     13  O   UNL     1       8.609  -3.939  -2.116  1.00  0.00    -0.454 OA
ATOM     14  C   UNL     1       8.973  -4.674  -0.973  1.00  0.00     0.468 C 
ENDBRANCH   5   6
ENDBRANCH   1   5
TORSDOF 3
ENDMDL
MODEL 4
REMARK VINA RESULT:      -7.5      1.563      2.160
REMARK SMILES CC(=O)CCc1ccc2c(c1)OCO2
REMARK SMILES IDX 4 1 2 2 1 3 3 4 5 5 6 6 7 7 11 8 8 9 10 10 9 11 12 12 14 13
REMARK SMILES IDX 13 14
REMARK H PARENT
REMARK Flexibility Score: inf
ROOT
ATOM      1  C   UNL     1       5.618   1.289  -0.516  1.00  0.00     0.080 C 
ENDROOT
BRANCH   1   2
ATOM      2  C   UNL     1       5.348   2.251   0.589  1.00  0.00     0.130 C 
ATOM      3  C   UNL     1       6.125   3.510   0.736  1.00  0.00     0.087 C 
ATOM      4  O   UNL     1       4.474   2.030   1.412  1.00  0.00    -0.300 OA
ENDBRANCH   1   2
BRANCH   1   5
ATOM      5  C   UNL     1       7.107   1.111  -0.738  1.00  0.00     0.043 C 
BRANCH   5   6
ATOM      6  C   UNL     1       7.545  -0.262  -0.433  1.00  0.00    -0.044 A 
ATOM      7  C   UNL     1       7.677  -0.713   0.886  1.00  0.00     0.008 A 
ATOM      8  C   UNL     1       7.830  -1.132  -1.461  1.00  0.00     0.054 A 
ATOM      9  C   UNL     1       8.091  -2.013   1.112  1.00  0.00     0.051 A 
ATOM     10  C   UNL     1       8.248  -2.446  -1.227  1.00  0.00     0.166 A 
ATOM     11  C   UNL     1       8.380  -2.890   0.070  1.00  0.00     0.165 A 
ATOM     12  O   UNL     1       8.588  -3.487  -2.064  1.00  0.00    -0.454 OA
ATOM     13  O   UNL     1       8.801  -4.208   0.001  1.00  0.00    -0.454 OA
ATOM     14  C   UNL     1       8.859  -4.655  -1.333  1.00  0.00     0.468 C 
ENDBRANCH   5   6
ENDBRANCH   1   5
TORSDOF 3
ENDMDL
MODEL 5
REMARK VINA RESULT:      -7.5      0.848      1.737
REMARK SMILES CC(=O)CCc1ccc2c(c1)OCO2
REMARK SMILES IDX 4 1 2 2 1 3 3 4 5 5 6 6 7 7 11 8 8 9 10 10 9 11 12 12 14 13
REMARK SMILES IDX 13 14
REMARK H PARENT
REMARK Flexibility Score: inf
ROOT
ATOM      1  C   UNL     1       5.645   2.737   0.729  1.00  0.00     0.080 C 
ENDROOT
BRANCH   1   2
ATOM      2  C   UNL     1       6.302   3.972   1.242  1.00  0.00     0.130 C 
ATOM      3  C   UNL     1       7.225   4.775   0.396  1.00  0.00     0.087 C 
ATOM      4  O   UNL     1       6.099   4.362   2.381  1.00  0.00    -0.300 OA
ENDBRANCH   1   2
BRANCH   1   5
ATOM      5  C   UNL     1       6.283   1.492   1.312  1.00  0.00     0.043 C 
BRANCH   5   6
ATOM      6  C   UNL     1       6.658   0.528   0.262  1.00  0.00    -0.044 A 
ATOM      7  C   UNL     1       6.338   0.746  -1.083  1.00  0.00     0.008 A 
ATOM      8  C   UNL     1       7.343  -0.618   0.601  1.00  0.00     0.054 A 
ATOM      9  C   UNL     1       6.716  -0.193  -2.024  1.00  0.00     0.051 A 
ATOM     10  C   UNL     1       7.724  -1.564  -0.355  1.00  0.00     0.166 A 
ATOM     11  C   UNL     1       7.407  -1.350  -1.678  1.00  0.00     0.165 A 
ATOM     12  O   UNL     1       8.399  -2.764  -0.273  1.00  0.00    -0.454 OA
ATOM     13  O   UNL     1       7.901  -2.434  -2.388  1.00  0.00    -0.454 OA
ATOM     14  C   UNL     1       8.616  -3.309  -1.549  1.00  0.00     0.468 C 
ENDBRANCH   5   6
ENDBRANCH   1   5
TORSDOF 3
ENDMDL
