@<TRIPOS>MOLECULE
/home/cewinharhar/GITHUB/reincatalyze/data/processed/docking_pred/2023-May-22-1902_sub9_nm5_bs15_s42_ex16_mel10_mts1000_k50_ec02_g099_lra9e-4_lrc1e-3/16519f8051380dc2329c6f51dcb24a8f5dfeda31_ligand_9.pdbqt
 14 15 0 0 0
SMALL
GASTEIGER

@<TRIPOS>ATOM
      1  C          5.6450    2.7370    0.7290 C.3     1  UNL1        0.0800
      2  C          6.3020    3.9720    1.2420 C.2     1  UNL1        0.1300
      3  C          7.2250    4.7750    0.3960 C.3     1  UNL1        0.0870
      4  O          6.0990    4.3620    2.3810 O.2     1  UNL1       -0.3000
      5  C          6.2830    1.4920    1.3120 C.3     1  UNL1        0.0430
      6  C          6.6580    0.5280    0.2620 C.2     1  UNL1       -0.0440
      7  C          6.3380    0.7460   -1.0830 C.2     1  UNL1        0.0080
      8  C          7.3430   -0.6180    0.6010 C.2     1  UNL1        0.0540
      9  C          6.7160   -0.1930   -2.0240 C.2     1  UNL1        0.0510
     10  C          7.7240   -1.5640   -0.3550 C.2     1  UNL1        0.1660
     11  C          7.4070   -1.3500   -1.6780 C.2     1  UNL1        0.1650
     12  O          8.3990   -2.7640   -0.2730 O.2     1  UNL1       -0.4540
     13  O          7.9010   -2.4340   -2.3880 O.2     1  UNL1       -0.4540
     14  C          8.6160   -3.3090   -1.5490 C.3     1  UNL1        0.4680
@<TRIPOS>BOND
     1    13    11    1
     2    13    14    1
     3     9    11    2
     4     9     7    1
     5    11    10    1
     6    14    12    1
     7     7     6    2
     8    10    12    1
     9    10     8    2
    10     6     8    1
    11     6     5    1
    12     3     2    1
    13     1     2    1
    14     1     5    1
    15     2     4    2
