@<TRIPOS>MOLECULE
/home/cewinharhar/GITHUB/reincatalyze/data/processed/docking_pred/2023-May-22-1902_sub9_nm5_bs15_s42_ex16_mel10_mts1000_k50_ec02_g099_lra9e-4_lrc1e-3/1a0a4210c7fbec369f44508687af2363e72d8760_ligand_9.pdbqt
 14 15 0 0 0
SMALL
GASTEIGER

@<TRIPOS>ATOM
      1  C          5.5150    1.9430    1.2530 C.3     1  UNL1        0.0800
      2  C          5.0930    0.7270    2.0030 C.2     1  UNL1        0.1300
      3  C          6.0060   -0.4320    2.1880 C.3     1  UNL1        0.0870
      4  O          3.9770    0.6470    2.4900 O.2     1  UNL1       -0.3000
      5  C          5.3880    1.7380   -0.2440 C.3     1  UNL1        0.0430
      6  C          6.5580    1.0350   -0.8000 C.2     1  UNL1       -0.0440
      7  C          7.8640    1.4660   -0.5410 C.2     1  UNL1        0.0080
      8  C          6.3740   -0.0740   -1.5930 C.2     1  UNL1        0.0540
      9  C          8.9230    0.7670   -1.0890 C.2     1  UNL1        0.0510
     10  C          7.4480   -0.7790   -2.1450 C.2     1  UNL1        0.1660
     11  C          8.7330   -0.3550   -1.8910 C.2     1  UNL1        0.1650
     12  O          7.5250   -1.8930   -2.9530 O.2     1  UNL1       -0.4540
     13  O          9.5820   -1.2270   -2.5550 O.2     1  UNL1       -0.4540
     14  C          8.8610   -2.2700   -3.1660 C.3     1  UNL1        0.4680
@<TRIPOS>BOND
     1    14    12    1
     2    14    13    1
     3    12    10    1
     4    13    11    1
     5    10    11    2
     6    10     8    1
     7    11     9    1
     8     8     6    2
     9     9     7    2
    10     6     7    1
    11     6     5    1
    12     5     1    1
    13     1     2    1
    14     2     3    1
    15     2     4    2
