MODEL 1
REMARK VINA RESULT:      -8.0      0.000      0.000
REMARK SMILES CC(=O)CCc1ccc2c(c1)OCO2
REMARK SMILES IDX 4 1 2 2 1 3 3 4 5 5 6 6 7 7 11 8 8 9 10 10 9 11 12 12 14 13
REMARK SMILES IDX 13 14
REMARK H PARENT
REMARK Flexibility Score: inf
ROOT
ATOM      1  C   UNL     1       5.421   2.928   0.113  1.00  0.00     0.080 C 
ENDROOT
BRANCH   1   2
ATOM      2  C   UNL     1       6.311   3.776   0.955  1.00  0.00     0.130 C 
ATOM      3  C   UNL     1       7.237   4.773   0.353  1.00  0.00     0.087 C 
ATOM      4  O   UNL     1       6.305   3.677   2.171  1.00  0.00    -0.300 OA
ENDBRANCH   1   2
BRANCH   1   5
ATOM      5  C   UNL     1       5.110   1.611   0.796  1.00  0.00     0.043 C 
BRANCH   5   6
ATOM      6  C   UNL     1       5.968   0.521   0.298  1.00  0.00    -0.044 A 
ATOM      7  C   UNL     1       6.356  -0.541   1.123  1.00  0.00     0.008 A 
ATOM      8  C   UNL     1       6.403   0.538  -1.008  1.00  0.00     0.054 A 
ATOM      9  C   UNL     1       7.162  -1.536   0.600  1.00  0.00     0.051 A 
ATOM     10  C   UNL     1       7.218  -0.471  -1.531  1.00  0.00     0.166 A 
ATOM     11  C   UNL     1       7.601  -1.516  -0.720  1.00  0.00     0.165 A 
ATOM     12  O   UNL     1       7.774  -0.679  -2.775  1.00  0.00    -0.454 OA
ATOM     13  O   UNL     1       8.391  -2.353  -1.492  1.00  0.00    -0.454 OA
ATOM     14  C   UNL     1       8.453  -1.908  -2.826  1.00  0.00     0.468 C 
ENDBRANCH   5   6
ENDBRANCH   1   5
TORSDOF 3
ENDMDL
MODEL 2
REMARK VINA RESULT:      -7.9      0.983      1.978
REMARK SMILES CC(=O)CCc1ccc2c(c1)OCO2
REMARK SMILES IDX 4 1 2 2 1 3 3 4 5 5 6 6 7 7 11 8 8 9 10 10 9 11 12 12 14 13
REMARK SMILES IDX 13 14
REMARK H PARENT
REMARK Flexibility Score: inf
ROOT
ATOM      1  C   UNL     1       5.408   2.956   0.077  1.00  0.00     0.080 C 
ENDROOT
BRANCH   1   2
ATOM      2  C   UNL     1       6.279   3.810   0.933  1.00  0.00     0.130 C 
ATOM      3  C   UNL     1       7.248   4.773   0.345  1.00  0.00     0.087 C 
ATOM      4  O   UNL     1       6.222   3.742   2.150  1.00  0.00    -0.300 OA
ENDBRANCH   1   2
BRANCH   1   5
ATOM      5  C   UNL     1       5.116   1.626   0.743  1.00  0.00     0.043 C 
BRANCH   5   6
ATOM      6  C   UNL     1       5.967   0.548   0.208  1.00  0.00    -0.044 A 
ATOM      7  C   UNL     1       6.368   0.529  -1.132  1.00  0.00     0.008 A 
ATOM      8  C   UNL     1       6.385  -0.467   1.039  1.00  0.00     0.054 A 
ATOM      9  C   UNL     1       7.168  -0.508  -1.578  1.00  0.00     0.051 A 
ATOM     10  C   UNL     1       7.194  -1.512   0.583  1.00  0.00     0.166 A 
ATOM     11  C   UNL     1       7.588  -1.533  -0.736  1.00  0.00     0.165 A 
ATOM     12  O   UNL     1       7.733  -2.621   1.201  1.00  0.00    -0.454 OA
ATOM     13  O   UNL     1       8.370  -2.665  -0.903  1.00  0.00    -0.454 OA
ATOM     14  C   UNL     1       8.563  -3.335   0.320  1.00  0.00     0.468 C 
ENDBRANCH   5   6
ENDBRANCH   1   5
TORSDOF 3
ENDMDL
MODEL 3
REMARK VINA RESULT:      -7.6      1.876      2.608
REMARK SMILES CC(=O)CCc1ccc2c(c1)OCO2
REMARK SMILES IDX 4 1 2 2 1 3 3 4 5 5 6 6 7 7 11 8 8 9 10 10 9 11 12 12 14 13
REMARK SMILES IDX 13 14
REMARK H PARENT
REMARK Flexibility Score: inf
ROOT
ATOM      1  C   UNL     1       5.515   1.943   1.253  1.00  0.00     0.080 C 
ENDROOT
BRANCH   1   2
ATOM      2  C   UNL     1       5.093   0.727   2.003  1.00  0.00     0.130 C 
ATOM      3  C   UNL     1       6.006  -0.432   2.188  1.00  0.00     0.087 C 
ATOM      4  O   UNL     1       3.977   0.647   2.490  1.00  0.00    -0.300 OA
ENDBRANCH   1   2
BRANCH   1   5
ATOM      5  C   UNL     1       5.388   1.738  -0.244  1.00  0.00     0.043 C 
BRANCH   5   6
ATOM      6  C   UNL     1       6.558   1.035  -0.800  1.00  0.00    -0.044 A 
ATOM      7  C   UNL     1       7.864   1.466  -0.541  1.00  0.00     0.008 A 
ATOM      8  C   UNL     1       6.374  -0.074  -1.593  1.00  0.00     0.054 A 
ATOM      9  C   UNL     1       8.923   0.767  -1.089  1.00  0.00     0.051 A 
ATOM     10  C   UNL     1       7.448  -0.779  -2.145  1.00  0.00     0.166 A 
ATOM     11  C   UNL     1       8.733  -0.355  -1.891  1.00  0.00     0.165 A 
ATOM     12  O   UNL     1       7.525  -1.893  -2.953  1.00  0.00    -0.454 OA
ATOM     13  O   UNL     1       9.582  -1.227  -2.555  1.00  0.00    -0.454 OA
ATOM     14  C   UNL     1       8.861  -2.270  -3.166  1.00  0.00     0.468 C 
ENDBRANCH   5   6
ENDBRANCH   1   5
TORSDOF 3
ENDMDL
MODEL 4
REMARK VINA RESULT:      -7.5      1.955      3.013
REMARK SMILES CC(=O)CCc1ccc2c(c1)OCO2
REMARK SMILES IDX 4 1 2 2 1 3 3 4 5 5 6 6 7 7 11 8 8 9 10 10 9 11 12 12 14 13
REMARK SMILES IDX 13 14
REMARK H PARENT
REMARK Flexibility Score: inf
ROOT
ATOM      1  C   UNL     1       5.756   1.378  -0.338  1.00  0.00     0.080 C 
ENDROOT
BRANCH   1   2
ATOM      2  C   UNL     1       5.122   1.308   1.009  1.00  0.00     0.130 C 
ATOM      3  C   UNL     1       5.410   0.194   1.950  1.00  0.00     0.087 C 
ATOM      4  O   UNL     1       4.342   2.171   1.380  1.00  0.00    -0.300 OA
ENDBRANCH   1   2
BRANCH   1   5
ATOM      5  C   UNL     1       7.248   1.126  -0.258  1.00  0.00     0.043 C 
BRANCH   5   6
ATOM      6  C   UNL     1       7.617  -0.165  -0.865  1.00  0.00    -0.044 A 
ATOM      7  C   UNL     1       7.692  -0.328  -2.253  1.00  0.00     0.008 A 
ATOM      8  C   UNL     1       7.900  -1.243  -0.056  1.00  0.00     0.054 A 
ATOM      9  C   UNL     1       8.045  -1.563  -2.765  1.00  0.00     0.051 A 
ATOM     10  C   UNL     1       8.257  -2.490  -0.580  1.00  0.00     0.166 A 
ATOM     11  C   UNL     1       8.329  -2.651  -1.945  1.00  0.00     0.165 A 
ATOM     12  O   UNL     1       8.579  -3.696   0.004  1.00  0.00    -0.454 OA
ATOM     13  O   UNL     1       8.699  -3.967  -2.174  1.00  0.00    -0.454 OA
ATOM     14  C   UNL     1       8.956  -4.640  -0.965  1.00  0.00     0.468 C 
ENDBRANCH   5   6
ENDBRANCH   1   5
TORSDOF 3
ENDMDL
MODEL 5
REMARK VINA RESULT:      -7.4      1.811      2.814
REMARK SMILES CC(=O)CCc1ccc2c(c1)OCO2
REMARK SMILES IDX 4 1 2 2 1 3 3 4 5 5 6 6 7 7 11 8 8 9 10 10 9 11 12 12 14 13
REMARK SMILES IDX 13 14
REMARK H PARENT
REMARK Flexibility Score: inf
ROOT
ATOM      1  C   UNL     1       6.094   0.781   1.137  1.00  0.00     0.080 C 
ENDROOT
BRANCH   1   2
ATOM      2  C   UNL     1       4.968   1.743   0.977  1.00  0.00     0.130 C 
ATOM      3  C   UNL     1       4.883   2.658  -0.192  1.00  0.00     0.087 C 
ATOM      4  O   UNL     1       4.076   1.808   1.808  1.00  0.00    -0.300 OA
ENDBRANCH   1   2
BRANCH   1   5
ATOM      5  C   UNL     1       7.169   1.013   0.094  1.00  0.00     0.043 C 
BRANCH   5   6
ATOM      6  C   UNL     1       7.541  -0.235  -0.595  1.00  0.00    -0.044 A 
ATOM      7  C   UNL     1       7.556  -0.326  -1.991  1.00  0.00     0.008 A 
ATOM      8  C   UNL     1       7.887  -1.344   0.143  1.00  0.00     0.054 A 
ATOM      9  C   UNL     1       7.914  -1.524  -2.582  1.00  0.00     0.051 A 
ATOM     10  C   UNL     1       8.250  -2.553  -0.459  1.00  0.00     0.166 A 
ATOM     11  C   UNL     1       8.263  -2.643  -1.833  1.00  0.00     0.165 A 
ATOM     12  O   UNL     1       8.628  -3.779   0.046  1.00  0.00    -0.454 OA
ATOM     13  O   UNL     1       8.654  -3.936  -2.146  1.00  0.00    -0.454 OA
ATOM     14  C   UNL     1       8.983  -4.662  -0.986  1.00  0.00     0.468 C 
ENDBRANCH   5   6
ENDBRANCH   1   5
TORSDOF 3
ENDMDL
