@<TRIPOS>MOLECULE
/home/cewinharhar/GITHUB/reincatalyze/data/processed/docking_pred/2023-May-22-1902_sub9_nm5_bs15_s42_ex16_mel10_mts1000_k50_ec02_g099_lra9e-4_lrc1e-3/1b5ae47dc41e9fd81b532b383f57e012b2e09fc7_ligand_9.pdbqt
 14 15 0 0 0
SMALL
GASTEIGER

@<TRIPOS>ATOM
      1  C          5.4020    2.8300    0.1860 C.3     1  UNL1        0.0800
      2  C          6.2300    3.7540    1.0100 C.2     1  UNL1        0.1300
      3  C          7.1150    4.7750    0.3880 C.3     1  UNL1        0.0870
      4  O          6.2050    3.7000    2.2290 O.2     1  UNL1       -0.3000
      5  C          5.6440    1.3840    0.5700 C.3     1  UNL1        0.0430
      6  C          6.7090    0.7730   -0.2450 C.2     1  UNL1       -0.0440
      7  C          7.9690    1.3700   -0.3710 C.2     1  UNL1        0.0080
      8  C          6.4710   -0.4140   -0.9000 C.2     1  UNL1        0.0540
      9  C          8.9300    0.7500   -1.1480 C.2     1  UNL1        0.0510
     10  C          7.4470   -1.0370   -1.6840 C.2     1  UNL1        0.1660
     11  C          8.6860   -0.4500   -1.8100 C.2     1  UNL1        0.1650
     12  O          7.4560   -2.2000   -2.4250 O.2     1  UNL1       -0.4540
     13  O          9.4390   -1.2740   -2.6320 O.2     1  UNL1       -0.4540
     14  C          8.7270   -2.4400   -2.9710 C.3     1  UNL1        0.4680
@<TRIPOS>BOND
     1    14    13    1
     2    14    12    1
     3    13    11    1
     4    12    10    1
     5    11    10    2
     6    11     9    1
     7    10     8    1
     8     9     7    2
     9     8     6    2
    10     7     6    1
    11     6     5    1
    12     1     5    1
    13     1     2    1
    14     3     2    1
    15     2     4    2
