MODEL 1
REMARK VINA RESULT:      -7.9      0.000      0.000
REMARK SMILES CC(=O)CCc1ccc2c(c1)OCO2
REMARK SMILES IDX 4 1 2 2 1 3 3 4 5 5 6 6 7 7 11 8 8 9 10 10 9 11 12 12 14 13
REMARK SMILES IDX 13 14
REMARK H PARENT
REMARK Flexibility Score: inf
ROOT
ATOM      1  C   UNL     1       5.424   2.956   0.190  1.00  0.00     0.080 C 
ENDROOT
BRANCH   1   2
ATOM      2  C   UNL     1       6.283   3.873   0.991  1.00  0.00     0.130 C 
ATOM      3  C   UNL     1       7.276   4.774   0.346  1.00  0.00     0.087 C 
ATOM      4  O   UNL     1       6.196   3.911   2.207  1.00  0.00    -0.300 OA
ENDBRANCH   1   2
BRANCH   1   5
ATOM      5  C   UNL     1       5.180   1.651   0.922  1.00  0.00     0.043 C 
BRANCH   5   6
ATOM      6  C   UNL     1       5.989   0.553   0.364  1.00  0.00    -0.044 A 
ATOM      7  C   UNL     1       6.341  -0.562   1.134  1.00  0.00     0.008 A 
ATOM      8  C   UNL     1       6.412   0.613  -0.944  1.00  0.00     0.054 A 
ATOM      9  C   UNL     1       7.101  -1.563   0.556  1.00  0.00     0.051 A 
ATOM     10  C   UNL     1       7.179  -0.402  -1.523  1.00  0.00     0.166 A 
ATOM     11  C   UNL     1       7.527  -1.499  -0.767  1.00  0.00     0.165 A 
ATOM     12  O   UNL     1       7.714  -0.573  -2.782  1.00  0.00    -0.454 OA
ATOM     13  O   UNL     1       8.275  -2.330  -1.585  1.00  0.00    -0.454 OA
ATOM     14  C   UNL     1       8.342  -1.825  -2.898  1.00  0.00     0.468 C 
ENDBRANCH   5   6
ENDBRANCH   1   5
TORSDOF 3
ENDMDL
MODEL 2
REMARK VINA RESULT:      -7.9      0.997      1.989
REMARK SMILES CC(=O)CCc1ccc2c(c1)OCO2
REMARK SMILES IDX 4 1 2 2 1 3 3 4 5 5 6 6 7 7 11 8 8 9 10 10 9 11 12 12 14 13
REMARK SMILES IDX 13 14
REMARK H PARENT
REMARK Flexibility Score: inf
ROOT
ATOM      1  C   UNL     1       5.399   2.944   0.133  1.00  0.00     0.080 C 
ENDROOT
BRANCH   1   2
ATOM      2  C   UNL     1       6.279   3.810   0.965  1.00  0.00     0.130 C 
ATOM      3  C   UNL     1       7.233   4.773   0.352  1.00  0.00     0.087 C 
ATOM      4  O   UNL     1       6.243   3.754   2.184  1.00  0.00    -0.300 OA
ENDBRANCH   1   2
BRANCH   1   5
ATOM      5  C   UNL     1       5.150   1.607   0.803  1.00  0.00     0.043 C 
BRANCH   5   6
ATOM      6  C   UNL     1       6.003   0.545   0.239  1.00  0.00    -0.044 A 
ATOM      7  C   UNL     1       6.435   0.581  -1.091  1.00  0.00     0.008 A 
ATOM      8  C   UNL     1       6.391  -0.510   1.032  1.00  0.00     0.054 A 
ATOM      9  C   UNL     1       7.235  -0.443  -1.565  1.00  0.00     0.051 A 
ATOM     10  C   UNL     1       7.201  -1.542   0.549  1.00  0.00     0.166 A 
ATOM     11  C   UNL     1       7.626  -1.509  -0.760  1.00  0.00     0.165 A 
ATOM     12  O   UNL     1       7.715  -2.683   1.128  1.00  0.00    -0.454 OA
ATOM     13  O   UNL     1       8.401  -2.640  -0.960  1.00  0.00    -0.454 OA
ATOM     14  C   UNL     1       8.558  -3.366   0.236  1.00  0.00     0.468 C 
ENDBRANCH   5   6
ENDBRANCH   1   5
TORSDOF 3
ENDMDL
MODEL 3
REMARK VINA RESULT:      -7.7      1.903      2.655
REMARK SMILES CC(=O)CCc1ccc2c(c1)OCO2
REMARK SMILES IDX 4 1 2 2 1 3 3 4 5 5 6 6 7 7 11 8 8 9 10 10 9 11 12 12 14 13
REMARK SMILES IDX 13 14
REMARK H PARENT
REMARK Flexibility Score: inf
ROOT
ATOM      1  C   UNL     1       5.504   1.923   1.251  1.00  0.00     0.080 C 
ENDROOT
BRANCH   1   2
ATOM      2  C   UNL     1       5.065   0.711   1.997  1.00  0.00     0.130 C 
ATOM      3  C   UNL     1       5.954  -0.470   2.161  1.00  0.00     0.087 C 
ATOM      4  O   UNL     1       3.954   0.653   2.499  1.00  0.00    -0.300 OA
ENDBRANCH   1   2
BRANCH   1   5
ATOM      5  C   UNL     1       5.380   1.722  -0.247  1.00  0.00     0.043 C 
BRANCH   5   6
ATOM      6  C   UNL     1       6.552   1.022  -0.803  1.00  0.00    -0.044 A 
ATOM      7  C   UNL     1       7.857   1.460  -0.547  1.00  0.00     0.008 A 
ATOM      8  C   UNL     1       6.371  -0.090  -1.593  1.00  0.00     0.054 A 
ATOM      9  C   UNL     1       8.918   0.762  -1.096  1.00  0.00     0.051 A 
ATOM     10  C   UNL     1       7.447  -0.792  -2.144  1.00  0.00     0.166 A 
ATOM     11  C   UNL     1       8.731  -0.362  -1.894  1.00  0.00     0.165 A 
ATOM     12  O   UNL     1       7.527  -1.909  -2.949  1.00  0.00    -0.454 OA
ATOM     13  O   UNL     1       9.581  -1.233  -2.556  1.00  0.00    -0.454 OA
ATOM     14  C   UNL     1       8.864  -2.281  -3.163  1.00  0.00     0.468 C 
ENDBRANCH   5   6
ENDBRANCH   1   5
TORSDOF 3
ENDMDL
MODEL 4
REMARK VINA RESULT:      -7.6      1.138      1.552
REMARK SMILES CC(=O)CCc1ccc2c(c1)OCO2
REMARK SMILES IDX 4 1 2 2 1 3 3 4 5 5 6 6 7 7 11 8 8 9 10 10 9 11 12 12 14 13
REMARK SMILES IDX 13 14
REMARK H PARENT
REMARK Flexibility Score: inf
ROOT
ATOM      1  C   UNL     1       5.402   2.830   0.186  1.00  0.00     0.080 C 
ENDROOT
BRANCH   1   2
ATOM      2  C   UNL     1       6.230   3.754   1.010  1.00  0.00     0.130 C 
ATOM      3  C   UNL     1       7.115   4.775   0.388  1.00  0.00     0.087 C 
ATOM      4  O   UNL     1       6.205   3.700   2.229  1.00  0.00    -0.300 OA
ENDBRANCH   1   2
BRANCH   1   5
ATOM      5  C   UNL     1       5.644   1.384   0.570  1.00  0.00     0.043 C 
BRANCH   5   6
ATOM      6  C   UNL     1       6.709   0.773  -0.245  1.00  0.00    -0.044 A 
ATOM      7  C   UNL     1       7.969   1.370  -0.371  1.00  0.00     0.008 A 
ATOM      8  C   UNL     1       6.471  -0.414  -0.900  1.00  0.00     0.054 A 
ATOM      9  C   UNL     1       8.930   0.750  -1.148  1.00  0.00     0.051 A 
ATOM     10  C   UNL     1       7.447  -1.037  -1.684  1.00  0.00     0.166 A 
ATOM     11  C   UNL     1       8.686  -0.450  -1.810  1.00  0.00     0.165 A 
ATOM     12  O   UNL     1       7.456  -2.200  -2.425  1.00  0.00    -0.454 OA
ATOM     13  O   UNL     1       9.439  -1.274  -2.632  1.00  0.00    -0.454 OA
ATOM     14  C   UNL     1       8.727  -2.440  -2.971  1.00  0.00     0.468 C 
ENDBRANCH   5   6
ENDBRANCH   1   5
TORSDOF 3
ENDMDL
MODEL 5
REMARK VINA RESULT:      -7.4      0.956      1.803
REMARK SMILES CC(=O)CCc1ccc2c(c1)OCO2
REMARK SMILES IDX 4 1 2 2 1 3 3 4 5 5 6 6 7 7 11 8 8 9 10 10 9 11 12 12 14 13
REMARK SMILES IDX 13 14
REMARK H PARENT
REMARK Flexibility Score: inf
ROOT
ATOM      1  C   UNL     1       5.723   2.536   0.752  1.00  0.00     0.080 C 
ENDROOT
BRANCH   1   2
ATOM      2  C   UNL     1       6.414   3.749   1.271  1.00  0.00     0.130 C 
ATOM      3  C   UNL     1       7.132   4.686   0.366  1.00  0.00     0.087 C 
ATOM      4  O   UNL     1       6.412   4.009   2.463  1.00  0.00    -0.300 OA
ENDBRANCH   1   2
BRANCH   1   5
ATOM      5  C   UNL     1       6.326   1.270   1.327  1.00  0.00     0.043 C 
BRANCH   5   6
ATOM      6  C   UNL     1       6.723   0.325   0.268  1.00  0.00    -0.044 A 
ATOM      7  C   UNL     1       6.456   0.581  -1.082  1.00  0.00     0.008 A 
ATOM      8  C   UNL     1       7.374  -0.841   0.603  1.00  0.00     0.054 A 
ATOM      9  C   UNL     1       6.853  -0.343  -2.032  1.00  0.00     0.051 A 
ATOM     10  C   UNL     1       7.774  -1.771  -0.361  1.00  0.00     0.166 A 
ATOM     11  C   UNL     1       7.510  -1.520  -1.689  1.00  0.00     0.165 A 
ATOM     12  O   UNL     1       8.424  -2.984  -0.283  1.00  0.00    -0.454 OA
ATOM     13  O   UNL     1       8.011  -2.595  -2.407  1.00  0.00    -0.454 OA
ATOM     14  C   UNL     1       8.679  -3.503  -1.564  1.00  0.00     0.468 C 
ENDBRANCH   5   6
ENDBRANCH   1   5
TORSDOF 3
ENDMDL
