@<TRIPOS>MOLECULE
/home/cewinharhar/GITHUB/reincatalyze/data/processed/docking_pred/2023-May-22-1902_sub9_nm5_bs15_s42_ex16_mel10_mts1000_k50_ec02_g099_lra9e-4_lrc1e-3/1b5ae47dc41e9fd81b532b383f57e012b2e09fc7_ligand_9.pdbqt
 14 15 0 0 0
SMALL
GASTEIGER

@<TRIPOS>ATOM
      1  C          5.4240    2.9560    0.1900 C.3     1  UNL1        0.0800
      2  C          6.2830    3.8730    0.9910 C.2     1  UNL1        0.1300
      3  C          7.2760    4.7740    0.3460 C.3     1  UNL1        0.0870
      4  O          6.1960    3.9110    2.2070 O.2     1  UNL1       -0.3000
      5  C          5.1800    1.6510    0.9220 C.3     1  UNL1        0.0430
      6  C          5.9890    0.5530    0.3640 C.2     1  UNL1       -0.0440
      7  C          6.3410   -0.5620    1.1340 C.2     1  UNL1        0.0080
      8  C          6.4120    0.6130   -0.9440 C.2     1  UNL1        0.0540
      9  C          7.1010   -1.5630    0.5560 C.2     1  UNL1        0.0510
     10  C          7.1790   -0.4020   -1.5230 C.2     1  UNL1        0.1660
     11  C          7.5270   -1.4990   -0.7670 C.2     1  UNL1        0.1650
     12  O          7.7140   -0.5730   -2.7820 O.2     1  UNL1       -0.4540
     13  O          8.2750   -2.3300   -1.5850 O.2     1  UNL1       -0.4540
     14  C          8.3420   -1.8250   -2.8980 C.3     1  UNL1        0.4680
@<TRIPOS>BOND
     1    14    12    1
     2    14    13    1
     3    12    10    1
     4    13    11    1
     5    10     8    1
     6    10    11    2
     7     8     6    2
     8    11     9    1
     9     1     5    1
    10     1     2    1
    11     3     2    1
    12     6     5    1
    13     6     7    1
    14     9     7    2
    15     2     4    2
