@<TRIPOS>MOLECULE
/home/cewinharhar/GITHUB/reincatalyze/data/processed/docking_pred/2023-May-22-1902_sub9_nm5_bs15_s42_ex16_mel10_mts1000_k50_ec02_g099_lra9e-4_lrc1e-3/1c0c8a91d3eae7937fa2398dc61f909c50ab5738_ligand_9.pdbqt
 14 15 0 0 0
SMALL
GASTEIGER

@<TRIPOS>ATOM
      1  C          5.4600    2.9080    0.0520 C.3     1  UNL1        0.0800
      2  C          6.3690    3.8880    0.7110 C.2     1  UNL1        0.1300
      3  C          6.6530    3.8310    2.1700 C.3     1  UNL1        0.0870
      4  O          6.9090    4.7720    0.0660 O.2     1  UNL1       -0.3000
      5  C          5.2850    1.6640    0.9000 C.3     1  UNL1        0.0430
      6  C          6.0940    0.5400    0.3950 C.2     1  UNL1       -0.0440
      7  C          6.5110   -0.4990    1.2360 C.2     1  UNL1        0.0080
      8  C          6.4520    0.5000   -0.9330 C.2     1  UNL1        0.0540
      9  C          7.2680   -1.5280    0.7060 C.2     1  UNL1        0.0510
     10  C          7.2170   -0.5430   -1.4640 C.2     1  UNL1        0.1660
     11  C          7.6290   -1.5650   -0.6380 C.2     1  UNL1        0.1650
     12  O          7.6960   -0.8070   -2.7300 O.2     1  UNL1       -0.4540
     13  O          8.3580   -2.4450   -1.4210 O.2     1  UNL1       -0.4540
     14  C          8.3490   -2.0500   -2.7720 C.3     1  UNL1        0.4680
@<TRIPOS>BOND
     1    14    12    1
     2    14    13    1
     3    12    10    1
     4    10     8    1
     5    10    11    2
     6    13    11    1
     7     8     6    2
     8    11     9    1
     9     1     2    1
    10     1     5    1
    11     4     2    2
    12     6     5    1
    13     6     7    1
    14     9     7    2
    15     2     3    1
