@<TRIPOS>MOLECULE
/home/cewinharhar/GITHUB/reincatalyze/data/processed/docking_pred/2023-May-22-1902_sub9_nm5_bs15_s42_ex16_mel10_mts1000_k50_ec02_g099_lra9e-4_lrc1e-3/1c0c8a91d3eae7937fa2398dc61f909c50ab5738_ligand_9.pdbqt
 14 15 0 0 0
SMALL
GASTEIGER

@<TRIPOS>ATOM
      1  C          5.8120    1.4030   -0.3320 C.3     1  UNL1        0.0800
      2  C          5.1320    1.3320    0.9910 C.2     1  UNL1        0.1300
      3  C          5.4010    0.2270    1.9490 C.3     1  UNL1        0.0870
      4  O          4.3280    2.1860    1.3290 O.2     1  UNL1       -0.3000
      5  C          7.2880    1.0780   -0.2100 C.3     1  UNL1        0.0430
      6  C          7.6150   -0.2190   -0.8300 C.2     1  UNL1       -0.0440
      7  C          7.5930   -0.3930   -2.2190 C.2     1  UNL1        0.0080
      8  C          7.9530   -1.2900   -0.0350 C.2     1  UNL1        0.0540
      9  C          7.9100   -1.6330   -2.7440 C.2     1  UNL1        0.0510
     10  C          8.2730   -2.5400   -0.5710 C.2     1  UNL1        0.1660
     11  C          8.2510   -2.7130   -1.9370 C.2     1  UNL1        0.1650
     12  O          8.6360   -3.7420   -0.0010 O.2     1  UNL1       -0.4540
     13  O          8.6050   -4.0310   -2.1800 O.2     1  UNL1       -0.4540
     14  C          8.9460   -4.6950   -0.9860 C.3     1  UNL1        0.4680
@<TRIPOS>BOND
     1     9     7    1
     2     9    11    2
     3     7     6    2
     4    13    11    1
     5    13    14    1
     6    11    10    1
     7    14    12    1
     8     6     5    1
     9     6     8    1
    10    10     8    2
    11    10    12    1
    12     1     5    1
    13     1     2    1
    14     2     4    2
    15     2     3    1
