@<TRIPOS>MOLECULE
/home/cewinharhar/GITHUB/reincatalyze/data/processed/docking_pred/2023-May-22-1902_sub9_nm5_bs15_s42_ex16_mel10_mts1000_k50_ec02_g099_lra9e-4_lrc1e-3/1c0c8a91d3eae7937fa2398dc61f909c50ab5738_ligand_9.pdbqt
 14 15 0 0 0
SMALL
GASTEIGER

@<TRIPOS>ATOM
      1  C          5.5110    1.9370    1.2610 C.3     1  UNL1        0.0800
      2  C          5.0750    0.7200    2.0010 C.2     1  UNL1        0.1300
      3  C          5.9700   -0.4580    2.1630 C.3     1  UNL1        0.0870
      4  O          3.9630    0.6530    2.4980 O.2     1  UNL1       -0.3000
      5  C          5.3850    1.7450   -0.2370 C.3     1  UNL1        0.0430
      6  C          6.5540    1.0450   -0.7980 C.2     1  UNL1       -0.0440
      7  C          7.8590    1.4930   -0.5640 C.2     1  UNL1        0.0080
      8  C          6.3700   -0.0790   -1.5710 C.2     1  UNL1        0.0540
      9  C          8.9180    0.7950   -1.1160 C.2     1  UNL1        0.0510
     10  C          7.4440   -0.7820   -2.1270 C.2     1  UNL1        0.1660
     11  C          8.7280   -0.3410   -1.8970 C.2     1  UNL1        0.1650
     12  O          7.5210   -1.9080   -2.9180 O.2     1  UNL1       -0.4540
     13  O          9.5760   -1.2150   -2.5590 O.2     1  UNL1       -0.4540
     14  C          8.8580   -2.2750   -3.1430 C.3     1  UNL1        0.4680
@<TRIPOS>BOND
     1    14    12    1
     2    14    13    1
     3    12    10    1
     4    13    11    1
     5    10    11    2
     6    10     8    1
     7    11     9    1
     8     8     6    2
     9     9     7    2
    10     6     7    1
    11     6     5    1
    12     5     1    1
    13     1     2    1
    14     2     3    1
    15     2     4    2
