@<TRIPOS>MOLECULE
/home/cewinharhar/GITHUB/reincatalyze/data/processed/docking_pred/2023-May-22-1902_sub9_nm5_bs15_s42_ex16_mel10_mts1000_k50_ec02_g099_lra9e-4_lrc1e-3/1c0c8a91d3eae7937fa2398dc61f909c50ab5738_ligand_9.pdbqt
 14 15 0 0 0
SMALL
GASTEIGER

@<TRIPOS>ATOM
      1  C          6.9080    2.1690   -0.0990 C.3     1  UNL1        0.0800
      2  C          6.1040    3.0000    0.8400 C.2     1  UNL1        0.1300
      3  C          6.5580    4.3490    1.2720 C.3     1  UNL1        0.0870
      4  O          5.0430    2.5950    1.2840 O.2     1  UNL1       -0.3000
      5  C          6.1130    0.9790   -0.5990 C.3     1  UNL1        0.0430
      6  C          6.7960   -0.2950   -0.3120 C.2     1  UNL1       -0.0440
      7  C          6.9870   -0.7440    1.0000 C.2     1  UNL1        0.0080
      8  C          7.2600   -1.0700   -1.3500 C.2     1  UNL1        0.0540
      9  C          7.6350   -1.9480    1.2090 C.2     1  UNL1        0.0510
     10  C          7.9140   -2.2860   -1.1340 C.2     1  UNL1        0.1660
     11  C          8.1030   -2.7290    0.1570 C.2     1  UNL1        0.1650
     12  O          8.4600   -3.2240   -1.9840 O.2     1  UNL1       -0.4540
     13  O          8.7670   -3.9430    0.0710 O.2     1  UNL1       -0.4540
     14  C          8.9330   -4.3380   -1.2700 C.3     1  UNL1        0.4680
@<TRIPOS>BOND
     1    12    14    1
     2    12    10    1
     3     8    10    1
     4     8     6    2
     5    14    13    1
     6    10    11    2
     7     5     6    1
     8     5     1    1
     9     6     7    1
    10     1     2    1
    11    13    11    1
    12    11     9    1
    13     2     3    1
    14     2     4    2
    15     7     9    2
