@<TRIPOS>MOLECULE
/home/cewinharhar/GITHUB/reincatalyze/data/processed/docking_pred/2023-May-22-1902_sub9_nm5_bs15_s42_ex16_mel10_mts1000_k50_ec02_g099_lra9e-4_lrc1e-3/1c86ade130d2cc9f902dffb19ba95248752a952e_ligand_9.pdbqt
 14 15 0 0 0
SMALL
GASTEIGER

@<TRIPOS>ATOM
      1  C          5.5040    1.9520    1.2480 C.3     1  UNL1        0.0800
      2  C          5.0930    0.7350    2.0020 C.2     1  UNL1        0.1300
      3  C          6.0130   -0.4200    2.1830 C.3     1  UNL1        0.0870
      4  O          3.9810    0.6500    2.4960 O.2     1  UNL1       -0.3000
      5  C          5.3780    1.7410   -0.2480 C.3     1  UNL1        0.0430
      6  C          6.5520    1.0430   -0.8020 C.2     1  UNL1       -0.0440
      7  C          7.8550    1.4860   -0.5490 C.2     1  UNL1        0.0080
      8  C          6.3740   -0.0740   -1.5870 C.2     1  UNL1        0.0540
      9  C          8.9190    0.7900   -1.0950 C.2     1  UNL1        0.0510
     10  C          7.4520   -0.7740   -2.1370 C.2     1  UNL1        0.1660
     11  C          8.7350   -0.3380   -1.8890 C.2     1  UNL1        0.1650
     12  O          7.5360   -1.8930   -2.9370 O.2     1  UNL1       -0.4540
     13  O          9.5890   -1.2090   -2.5480 O.2     1  UNL1       -0.4540
     14  C          8.8750   -2.2620   -3.1510 C.3     1  UNL1        0.4680
@<TRIPOS>BOND
     1    14    12    1
     2    14    13    1
     3    12    10    1
     4    13    11    1
     5    10    11    2
     6    10     8    1
     7    11     9    1
     8     8     6    2
     9     9     7    2
    10     6     7    1
    11     6     5    1
    12     5     1    1
    13     1     2    1
    14     2     3    1
    15     2     4    2
