@<TRIPOS>MOLECULE
/home/cewinharhar/GITHUB/reincatalyze/data/processed/docking_pred/2023-May-22-1902_sub9_nm5_bs15_s42_ex16_mel10_mts1000_k50_ec02_g099_lra9e-4_lrc1e-3/1c86ade130d2cc9f902dffb19ba95248752a952e_ligand_9.pdbqt
 14 15 0 0 0
SMALL
GASTEIGER

@<TRIPOS>ATOM
      1  C          5.7730    2.6360    0.3690 C.3     1  UNL1        0.0800
      2  C          6.3840    3.8040    1.0630 C.2     1  UNL1        0.1300
      3  C          7.2500    4.7750    0.3430 C.3     1  UNL1        0.0870
      4  O          6.1890    3.9980    2.2520 O.2     1  UNL1       -0.3000
      5  C          6.1770    1.3320    1.0280 C.3     1  UNL1        0.0430
      6  C          6.6380    0.3400    0.0390 C.2     1  UNL1       -0.0440
      7  C          6.4370    0.5250   -1.3330 C.2     1  UNL1        0.0080
      8  C          7.2850   -0.7970    0.4650 C.2     1  UNL1        0.0540
      9  C          6.8930   -0.4390   -2.2140 C.2     1  UNL1        0.0510
     10  C          7.7450   -1.7690   -0.4290 C.2     1  UNL1        0.1660
     11  C          7.5460   -1.5880   -1.7800 C.2     1  UNL1        0.1650
     12  O          8.4050   -2.9670   -0.2580 O.2     1  UNL1       -0.4540
     13  O          8.0950   -2.6900   -2.4170 O.2     1  UNL1       -0.4540
     14  C          8.7300   -3.5450   -1.4960 C.3     1  UNL1        0.4680
@<TRIPOS>BOND
     1    13    11    1
     2    13    14    1
     3     9    11    2
     4     9     7    1
     5    11    10    1
     6    14    12    1
     7     7     6    2
     8    10    12    1
     9    10     8    2
    10     6     8    1
    11     6     5    1
    12     3     2    1
    13     1     5    1
    14     1     2    1
    15     2     4    2
