@<TRIPOS>MOLECULE
/home/cewinharhar/GITHUB/reincatalyze/data/processed/docking_pred/2023-May-22-1902_sub9_nm5_bs15_s42_ex16_mel10_mts1000_k50_ec02_g099_lra9e-4_lrc1e-3/1e16add1d5649bf0b13dd0d86c7d3fc630d89625_ligand_9.pdbqt
 14 15 0 0 0
SMALL
GASTEIGER

@<TRIPOS>ATOM
      1  C          5.7140    0.2860    0.9860 C.3     1  UNL1        0.0800
      2  C          4.9580    1.5690    1.0040 C.2     1  UNL1        0.1300
      3  C          5.2210    2.6440    0.0110 C.3     1  UNL1        0.0870
      4  O          4.0940    1.7760    1.8410 O.2     1  UNL1       -0.3000
      5  C          7.1820    0.5160    0.6890 C.3     1  UNL1        0.0430
      6  C          7.5970   -0.1450   -0.5610 C.2     1  UNL1       -0.0440
      7  C          7.7900    0.5790   -1.7440 C.2     1  UNL1        0.0080
      8  C          7.8050   -1.5050   -0.5770 C.2     1  UNL1        0.0540
      9  C          8.1800   -0.0950   -2.8860 C.2     1  UNL1        0.0510
     10  C          8.2010   -2.1820   -1.7350 C.2     1  UNL1        0.1660
     11  C          8.3890   -1.4710   -2.8990 C.2     1  UNL1        0.1650
     12  O          8.4670   -3.5070   -2.0040 O.2     1  UNL1       -0.4540
     13  O          8.7730   -2.3840   -3.8690 O.2     1  UNL1       -0.4540
     14  C          8.9230   -3.6720   -3.3230 C.3     1  UNL1        0.4680
@<TRIPOS>BOND
     1    13    14    1
     2    13    11    1
     3    14    12    1
     4    11     9    2
     5    11    10    1
     6     9     7    1
     7    12    10    1
     8     7     6    2
     9    10     8    2
    10     8     6    1
    11     6     5    1
    12     3     2    1
    13     5     1    1
    14     1     2    1
    15     2     4    2
