MODEL 1
REMARK VINA RESULT:      -8.1      0.000      0.000
REMARK SMILES CC(=O)CCc1ccc2c(c1)OCO2
REMARK SMILES IDX 4 1 2 2 1 3 3 4 5 5 6 6 7 7 11 8 8 9 10 10 9 11 12 12 14 13
REMARK SMILES IDX 13 14
REMARK H PARENT
REMARK Flexibility Score: inf
ROOT
ATOM      1  C   UNL     1       6.014   1.632   1.147  1.00  0.00     0.080 C 
ENDROOT
BRANCH   1   2
ATOM      2  C   UNL     1       5.445   0.538   1.983  1.00  0.00     0.130 C 
ATOM      3  C   UNL     1       6.233  -0.677   2.321  1.00  0.00     0.087 C 
ATOM      4  O   UNL     1       4.306   0.609   2.417  1.00  0.00    -0.300 OA
ENDBRANCH   1   2
BRANCH   1   5
ATOM      5  C   UNL     1       5.732   1.403  -0.325  1.00  0.00     0.043 C 
BRANCH   5   6
ATOM      6  C   UNL     1       6.805   0.627  -0.973  1.00  0.00    -0.044 A 
ATOM      7  C   UNL     1       8.149   1.003  -0.864  1.00  0.00     0.008 A 
ATOM      8  C   UNL     1       6.489  -0.496  -1.702  1.00  0.00     0.054 A 
ATOM      9  C   UNL     1       9.113   0.236  -1.493  1.00  0.00     0.051 A 
ATOM     10  C   UNL     1       7.468  -1.269  -2.336  1.00  0.00     0.166 A 
ATOM     11  C   UNL     1       8.790  -0.899  -2.230  1.00  0.00     0.165 A 
ATOM     12  O   UNL     1       7.410  -2.410  -3.107  1.00  0.00    -0.454 OA
ATOM     13  O   UNL     1       9.525  -1.832  -2.945  1.00  0.00    -0.454 OA
ATOM     14  C   UNL     1       8.699  -2.858  -3.442  1.00  0.00     0.468 C 
ENDBRANCH   5   6
ENDBRANCH   1   5
TORSDOF 3
ENDMDL
MODEL 2
REMARK VINA RESULT:      -7.8      1.444      2.075
REMARK SMILES CC(=O)CCc1ccc2c(c1)OCO2
REMARK SMILES IDX 4 1 2 2 1 3 3 4 5 5 6 6 7 7 11 8 8 9 10 10 9 11 12 12 14 13
REMARK SMILES IDX 13 14
REMARK H PARENT
REMARK Flexibility Score: inf
ROOT
ATOM      1  C   UNL     1       5.561   2.754  -0.208  1.00  0.00     0.080 C 
ENDROOT
BRANCH   1   2
ATOM      2  C   UNL     1       6.254   3.580   0.820  1.00  0.00     0.130 C 
ATOM      3  C   UNL     1       7.085   4.755   0.447  1.00  0.00     0.087 C 
ATOM      4  O   UNL     1       6.158   3.313   2.007  1.00  0.00    -0.300 OA
ENDBRANCH   1   2
BRANCH   1   5
ATOM      5  C   UNL     1       5.653   1.277   0.119  1.00  0.00     0.043 C 
BRANCH   5   6
ATOM      6  C   UNL     1       6.738   0.617  -0.628  1.00  0.00    -0.044 A 
ATOM      7  C   UNL     1       8.035   1.143  -0.654  1.00  0.00     0.008 A 
ATOM      8  C   UNL     1       6.483  -0.545  -1.319  1.00  0.00     0.054 A 
ATOM      9  C   UNL     1       9.014   0.481  -1.372  1.00  0.00     0.051 A 
ATOM     10  C   UNL     1       7.476  -1.212  -2.043  1.00  0.00     0.166 A 
ATOM     11  C   UNL     1       8.752  -0.694  -2.070  1.00  0.00     0.165 A 
ATOM     12  O   UNL     1       7.473  -2.364  -2.801  1.00  0.00    -0.454 OA
ATOM     13  O   UNL     1       9.514  -1.549  -2.851  1.00  0.00    -0.454 OA
ATOM     14  C   UNL     1       8.765  -2.668  -3.259  1.00  0.00     0.468 C 
ENDBRANCH   5   6
ENDBRANCH   1   5
TORSDOF 3
ENDMDL
MODEL 3
REMARK VINA RESULT:      -7.7      1.952      2.705
REMARK SMILES CC(=O)CCc1ccc2c(c1)OCO2
REMARK SMILES IDX 4 1 2 2 1 3 3 4 5 5 6 6 7 7 11 8 8 9 10 10 9 11 12 12 14 13
REMARK SMILES IDX 13 14
REMARK H PARENT
REMARK Flexibility Score: inf
ROOT
ATOM      1  C   UNL     1       5.420   2.905   0.063  1.00  0.00     0.080 C 
ENDROOT
BRANCH   1   2
ATOM      2  C   UNL     1       6.248   3.813   0.905  1.00  0.00     0.130 C 
ATOM      3  C   UNL     1       7.211   4.774   0.303  1.00  0.00     0.087 C 
ATOM      4  O   UNL     1       6.160   3.794   2.122  1.00  0.00    -0.300 OA
ENDBRANCH   1   2
BRANCH   1   5
ATOM      5  C   UNL     1       5.166   1.584   0.763  1.00  0.00     0.043 C 
BRANCH   5   6
ATOM      6  C   UNL     1       6.016   0.508   0.224  1.00  0.00    -0.044 A 
ATOM      7  C   UNL     1       6.357  -0.612   0.992  1.00  0.00     0.008 A 
ATOM      8  C   UNL     1       6.491   0.594  -1.066  1.00  0.00     0.054 A 
ATOM      9  C   UNL     1       7.157  -1.591   0.432  1.00  0.00     0.051 A 
ATOM     10  C   UNL     1       7.299  -0.399  -1.627  1.00  0.00     0.166 A 
ATOM     11  C   UNL     1       7.635  -1.500  -0.871  1.00  0.00     0.165 A 
ATOM     12  O   UNL     1       7.888  -0.543  -2.865  1.00  0.00    -0.454 OA
ATOM     13  O   UNL     1       8.431  -2.307  -1.670  1.00  0.00    -0.454 OA
ATOM     14  C   UNL     1       8.541  -1.782  -2.972  1.00  0.00     0.468 C 
ENDBRANCH   5   6
ENDBRANCH   1   5
TORSDOF 3
ENDMDL
MODEL 4
REMARK VINA RESULT:      -7.7      2.415      3.096
REMARK SMILES CC(=O)CCc1ccc2c(c1)OCO2
REMARK SMILES IDX 4 1 2 2 1 3 3 4 5 5 6 6 7 7 11 8 8 9 10 10 9 11 12 12 14 13
REMARK SMILES IDX 13 14
REMARK H PARENT
REMARK Flexibility Score: inf
ROOT
ATOM      1  C   UNL     1       5.366   2.999   0.183  1.00  0.00     0.080 C 
ENDROOT
BRANCH   1   2
ATOM      2  C   UNL     1       6.309   3.819   0.994  1.00  0.00     0.130 C 
ATOM      3  C   UNL     1       7.257   4.774   0.360  1.00  0.00     0.087 C 
ATOM      4  O   UNL     1       6.330   3.729   2.211  1.00  0.00    -0.300 OA
ENDBRANCH   1   2
BRANCH   1   5
ATOM      5  C   UNL     1       5.107   1.654   0.833  1.00  0.00     0.043 C 
BRANCH   5   6
ATOM      6  C   UNL     1       5.972   0.600   0.274  1.00  0.00    -0.044 A 
ATOM      7  C   UNL     1       6.409   0.639  -1.055  1.00  0.00     0.008 A 
ATOM      8  C   UNL     1       6.369  -0.450   1.070  1.00  0.00     0.054 A 
ATOM      9  C   UNL     1       7.221  -0.377  -1.525  1.00  0.00     0.051 A 
ATOM     10  C   UNL     1       7.190  -1.475   0.591  1.00  0.00     0.166 A 
ATOM     11  C   UNL     1       7.619  -1.438  -0.717  1.00  0.00     0.165 A 
ATOM     12  O   UNL     1       7.714  -2.610   1.173  1.00  0.00    -0.454 OA
ATOM     13  O   UNL     1       8.406  -2.562  -0.913  1.00  0.00    -0.454 OA
ATOM     14  C   UNL     1       8.567  -3.285   0.285  1.00  0.00     0.468 C 
ENDBRANCH   5   6
ENDBRANCH   1   5
TORSDOF 3
ENDMDL
MODEL 5
REMARK VINA RESULT:      -7.3      1.325      1.799
REMARK SMILES CC(=O)CCc1ccc2c(c1)OCO2
REMARK SMILES IDX 4 1 2 2 1 3 3 4 5 5 6 6 7 7 11 8 8 9 10 10 9 11 12 12 14 13
REMARK SMILES IDX 13 14
REMARK H PARENT
REMARK Flexibility Score: inf
ROOT
ATOM      1  C   UNL     1       5.714   0.286   0.986  1.00  0.00     0.080 C 
ENDROOT
BRANCH   1   2
ATOM      2  C   UNL     1       4.958   1.569   1.004  1.00  0.00     0.130 C 
ATOM      3  C   UNL     1       5.221   2.644   0.011  1.00  0.00     0.087 C 
ATOM      4  O   UNL     1       4.094   1.776   1.841  1.00  0.00    -0.300 OA
ENDBRANCH   1   2
BRANCH   1   5
ATOM      5  C   UNL     1       7.182   0.516   0.689  1.00  0.00     0.043 C 
BRANCH   5   6
ATOM      6  C   UNL     1       7.597  -0.145  -0.561  1.00  0.00    -0.044 A 
ATOM      7  C   UNL     1       7.790   0.579  -1.744  1.00  0.00     0.008 A 
ATOM      8  C   UNL     1       7.805  -1.505  -0.577  1.00  0.00     0.054 A 
ATOM      9  C   UNL     1       8.180  -0.095  -2.886  1.00  0.00     0.051 A 
ATOM     10  C   UNL     1       8.201  -2.182  -1.735  1.00  0.00     0.166 A 
ATOM     11  C   UNL     1       8.389  -1.471  -2.899  1.00  0.00     0.165 A 
ATOM     12  O   UNL     1       8.467  -3.507  -2.004  1.00  0.00    -0.454 OA
ATOM     13  O   UNL     1       8.773  -2.384  -3.869  1.00  0.00    -0.454 OA
ATOM     14  C   UNL     1       8.923  -3.672  -3.323  1.00  0.00     0.468 C 
ENDBRANCH   5   6
ENDBRANCH   1   5
TORSDOF 3
ENDMDL
