@<TRIPOS>MOLECULE
/home/cewinharhar/GITHUB/reincatalyze/data/processed/docking_pred/2023-May-22-1902_sub9_nm5_bs15_s42_ex16_mel10_mts1000_k50_ec02_g099_lra9e-4_lrc1e-3/1e16add1d5649bf0b13dd0d86c7d3fc630d89625_ligand_9.pdbqt
 14 15 0 0 0
SMALL
GASTEIGER

@<TRIPOS>ATOM
      1  C          5.4200    2.9050    0.0630 C.3     1  UNL1        0.0800
      2  C          6.2480    3.8130    0.9050 C.2     1  UNL1        0.1300
      3  C          7.2110    4.7740    0.3030 C.3     1  UNL1        0.0870
      4  O          6.1600    3.7940    2.1220 O.2     1  UNL1       -0.3000
      5  C          5.1660    1.5840    0.7630 C.3     1  UNL1        0.0430
      6  C          6.0160    0.5080    0.2240 C.2     1  UNL1       -0.0440
      7  C          6.3570   -0.6120    0.9920 C.2     1  UNL1        0.0080
      8  C          6.4910    0.5940   -1.0660 C.2     1  UNL1        0.0540
      9  C          7.1570   -1.5910    0.4320 C.2     1  UNL1        0.0510
     10  C          7.2990   -0.3990   -1.6270 C.2     1  UNL1        0.1660
     11  C          7.6350   -1.5000   -0.8710 C.2     1  UNL1        0.1650
     12  O          7.8880   -0.5430   -2.8650 O.2     1  UNL1       -0.4540
     13  O          8.4310   -2.3070   -1.6700 O.2     1  UNL1       -0.4540
     14  C          8.5410   -1.7820   -2.9720 C.3     1  UNL1        0.4680
@<TRIPOS>BOND
     1    14    12    1
     2    14    13    1
     3    12    10    1
     4    13    11    1
     5    10     8    1
     6    10    11    2
     7     8     6    2
     8    11     9    1
     9     1     5    1
    10     1     2    1
    11     6     5    1
    12     6     7    1
    13     3     2    1
    14     9     7    2
    15     2     4    2
