@<TRIPOS>MOLECULE
/home/cewinharhar/GITHUB/reincatalyze/data/processed/docking_pred/2023-May-22-1902_sub9_nm5_bs15_s42_ex16_mel10_mts1000_k50_ec02_g099_lra9e-4_lrc1e-3/1e16add1d5649bf0b13dd0d86c7d3fc630d89625_ligand_9.pdbqt
 14 15 0 0 0
SMALL
GASTEIGER

@<TRIPOS>ATOM
      1  C          5.5610    2.7540   -0.2080 C.3     1  UNL1        0.0800
      2  C          6.2540    3.5800    0.8200 C.2     1  UNL1        0.1300
      3  C          7.0850    4.7550    0.4470 C.3     1  UNL1        0.0870
      4  O          6.1580    3.3130    2.0070 O.2     1  UNL1       -0.3000
      5  C          5.6530    1.2770    0.1190 C.3     1  UNL1        0.0430
      6  C          6.7380    0.6170   -0.6280 C.2     1  UNL1       -0.0440
      7  C          8.0350    1.1430   -0.6540 C.2     1  UNL1        0.0080
      8  C          6.4830   -0.5450   -1.3190 C.2     1  UNL1        0.0540
      9  C          9.0140    0.4810   -1.3720 C.2     1  UNL1        0.0510
     10  C          7.4760   -1.2120   -2.0430 C.2     1  UNL1        0.1660
     11  C          8.7520   -0.6940   -2.0700 C.2     1  UNL1        0.1650
     12  O          7.4730   -2.3640   -2.8010 O.2     1  UNL1       -0.4540
     13  O          9.5140   -1.5490   -2.8510 O.2     1  UNL1       -0.4540
     14  C          8.7650   -2.6680   -3.2590 C.3     1  UNL1        0.4680
@<TRIPOS>BOND
     1    14    13    1
     2    14    12    1
     3    13    11    1
     4    12    10    1
     5    11    10    2
     6    11     9    1
     7    10     8    1
     8     9     7    2
     9     8     6    2
    10     7     6    1
    11     6     5    1
    12     1     5    1
    13     1     2    1
    14     3     2    1
    15     2     4    2
