@<TRIPOS>MOLECULE
/home/cewinharhar/GITHUB/reincatalyze/data/processed/docking_pred/2023-May-22-1902_sub9_nm5_bs15_s42_ex16_mel10_mts1000_k50_ec02_g099_lra9e-4_lrc1e-3/1e16add1d5649bf0b13dd0d86c7d3fc630d89625_ligand_9.pdbqt
 14 15 0 0 0
SMALL
GASTEIGER

@<TRIPOS>ATOM
      1  C          5.3660    2.9990    0.1830 C.3     1  UNL1        0.0800
      2  C          6.3090    3.8190    0.9940 C.2     1  UNL1        0.1300
      3  C          7.2570    4.7740    0.3600 C.3     1  UNL1        0.0870
      4  O          6.3300    3.7290    2.2110 O.2     1  UNL1       -0.3000
      5  C          5.1070    1.6540    0.8330 C.3     1  UNL1        0.0430
      6  C          5.9720    0.6000    0.2740 C.2     1  UNL1       -0.0440
      7  C          6.4090    0.6390   -1.0550 C.2     1  UNL1        0.0080
      8  C          6.3690   -0.4500    1.0700 C.2     1  UNL1        0.0540
      9  C          7.2210   -0.3770   -1.5250 C.2     1  UNL1        0.0510
     10  C          7.1900   -1.4750    0.5910 C.2     1  UNL1        0.1660
     11  C          7.6190   -1.4380   -0.7170 C.2     1  UNL1        0.1650
     12  O          7.7140   -2.6100    1.1730 O.2     1  UNL1       -0.4540
     13  O          8.4060   -2.5620   -0.9130 O.2     1  UNL1       -0.4540
     14  C          8.5670   -3.2850    0.2850 C.3     1  UNL1        0.4680
@<TRIPOS>BOND
     1     9     7    1
     2     9    11    2
     3     7     6    2
     4    13    11    1
     5    13    14    1
     6    11    10    1
     7     1     5    1
     8     1     2    1
     9     6     5    1
    10     6     8    1
    11    14    12    1
    12     3     2    1
    13    10     8    2
    14    10    12    1
    15     2     4    2
