@<TRIPOS>MOLECULE
/home/cewinharhar/GITHUB/reincatalyze/data/processed/docking_pred/2023-May-22-1902_sub9_nm5_bs15_s42_ex16_mel10_mts1000_k50_ec02_g099_lra9e-4_lrc1e-3/1e8ffecbec14ce573bf52adb8829230239be76a8_ligand_9.pdbqt
 14 15 0 0 0
SMALL
GASTEIGER

@<TRIPOS>ATOM
      1  C          5.5300    2.8970    0.1600 C.3     1  UNL1        0.0800
      2  C          6.2120    3.9600    0.9500 C.2     1  UNL1        0.1300
      3  C          7.3150    4.7750    0.3740 C.3     1  UNL1        0.0870
      4  O          5.8820    4.1940    2.1010 O.2     1  UNL1       -0.3000
      5  C          5.4270    1.6060    0.9480 C.3     1  UNL1        0.0430
      6  C          6.1760    0.5120    0.3060 C.2     1  UNL1       -0.0440
      7  C          6.4310    0.5060   -1.0700 C.2     1  UNL1        0.0080
      8  C          6.6450   -0.5340    1.0690 C.2     1  UNL1        0.0540
      9  C          7.1410   -0.5470   -1.6170 C.2     1  UNL1        0.0510
     10  C          7.3620   -1.5960    0.5110 C.2     1  UNL1        0.1660
     11  C          7.6120   -1.6030   -0.8430 C.2     1  UNL1        0.1650
     12  O          7.9240   -2.7350    1.0480 O.2     1  UNL1       -0.4540
     13  O          8.3310   -2.7570   -1.1120 O.2     1  UNL1       -0.4540
     14  C          8.6290   -3.4580    0.0720 C.3     1  UNL1        0.4680
@<TRIPOS>BOND
     1     9     7    1
     2     9    11    2
     3    13    11    1
     4    13    14    1
     5     7     6    2
     6    11    10    1
     7    14    12    1
     8     1     5    1
     9     1     2    1
    10     6     5    1
    11     6     8    1
    12     3     2    1
    13    10    12    1
    14    10     8    2
    15     2     4    2
