MODEL 1
REMARK VINA RESULT:      -7.9      0.000      0.000
REMARK SMILES CC(=O)CCc1ccc2c(c1)OCO2
REMARK SMILES IDX 4 1 2 2 1 3 3 4 5 5 6 6 7 7 11 8 8 9 10 10 9 11 12 12 14 13
REMARK SMILES IDX 13 14
REMARK H PARENT
REMARK Flexibility Score: inf
ROOT
ATOM      1  C   UNL     1       5.403   2.872   0.193  1.00  0.00     0.080 C 
ENDROOT
BRANCH   1   2
ATOM      2  C   UNL     1       6.356   3.675   1.009  1.00  0.00     0.130 C 
ATOM      3  C   UNL     1       7.163   4.772   0.412  1.00  0.00     0.087 C 
ATOM      4  O   UNL     1       6.503   3.453   2.200  1.00  0.00    -0.300 OA
ENDBRANCH   1   2
BRANCH   1   5
ATOM      5  C   UNL     1       5.101   1.541   0.852  1.00  0.00     0.043 C 
BRANCH   5   6
ATOM      6  C   UNL     1       5.960   0.464   0.327  1.00  0.00    -0.044 A 
ATOM      7  C   UNL     1       6.329  -0.630   1.118  1.00  0.00     0.008 A 
ATOM      8  C   UNL     1       6.414   0.525  -0.971  1.00  0.00     0.054 A 
ATOM      9  C   UNL     1       7.136  -1.611   0.571  1.00  0.00     0.051 A 
ATOM     10  C   UNL     1       7.229  -0.470  -1.519  1.00  0.00     0.166 A 
ATOM     11  C   UNL     1       7.594  -1.546  -0.741  1.00  0.00     0.165 A 
ATOM     12  O   UNL     1       7.802  -0.636  -2.762  1.00  0.00    -0.454 OA
ATOM     13  O   UNL     1       8.391  -2.360  -1.531  1.00  0.00    -0.454 OA
ATOM     14  C   UNL     1       8.474  -1.867  -2.847  1.00  0.00     0.468 C 
ENDBRANCH   5   6
ENDBRANCH   1   5
TORSDOF 3
ENDMDL
MODEL 2
REMARK VINA RESULT:      -7.7      1.007      1.971
REMARK SMILES CC(=O)CCc1ccc2c(c1)OCO2
REMARK SMILES IDX 4 1 2 2 1 3 3 4 5 5 6 6 7 7 11 8 8 9 10 10 9 11 12 12 14 13
REMARK SMILES IDX 13 14
REMARK H PARENT
REMARK Flexibility Score: inf
ROOT
ATOM      1  C   UNL     1       5.530   2.897   0.160  1.00  0.00     0.080 C 
ENDROOT
BRANCH   1   2
ATOM      2  C   UNL     1       6.212   3.960   0.950  1.00  0.00     0.130 C 
ATOM      3  C   UNL     1       7.315   4.775   0.374  1.00  0.00     0.087 C 
ATOM      4  O   UNL     1       5.882   4.194   2.101  1.00  0.00    -0.300 OA
ENDBRANCH   1   2
BRANCH   1   5
ATOM      5  C   UNL     1       5.427   1.606   0.948  1.00  0.00     0.043 C 
BRANCH   5   6
ATOM      6  C   UNL     1       6.176   0.512   0.306  1.00  0.00    -0.044 A 
ATOM      7  C   UNL     1       6.431   0.506  -1.070  1.00  0.00     0.008 A 
ATOM      8  C   UNL     1       6.645  -0.534   1.069  1.00  0.00     0.054 A 
ATOM      9  C   UNL     1       7.141  -0.547  -1.617  1.00  0.00     0.051 A 
ATOM     10  C   UNL     1       7.362  -1.596   0.511  1.00  0.00     0.166 A 
ATOM     11  C   UNL     1       7.612  -1.603  -0.843  1.00  0.00     0.165 A 
ATOM     12  O   UNL     1       7.924  -2.735   1.048  1.00  0.00    -0.454 OA
ATOM     13  O   UNL     1       8.331  -2.757  -1.112  1.00  0.00    -0.454 OA
ATOM     14  C   UNL     1       8.629  -3.458   0.072  1.00  0.00     0.468 C 
ENDBRANCH   5   6
ENDBRANCH   1   5
TORSDOF 3
ENDMDL
MODEL 3
REMARK VINA RESULT:      -7.7      1.870      2.621
REMARK SMILES CC(=O)CCc1ccc2c(c1)OCO2
REMARK SMILES IDX 4 1 2 2 1 3 3 4 5 5 6 6 7 7 11 8 8 9 10 10 9 11 12 12 14 13
REMARK SMILES IDX 13 14
REMARK H PARENT
REMARK Flexibility Score: inf
ROOT
ATOM      1  C   UNL     1       5.536   1.899   1.281  1.00  0.00     0.080 C 
ENDROOT
BRANCH   1   2
ATOM      2  C   UNL     1       5.096   0.676   2.009  1.00  0.00     0.130 C 
ATOM      3  C   UNL     1       5.991  -0.500   2.173  1.00  0.00     0.087 C 
ATOM      4  O   UNL     1       3.979   0.605   2.495  1.00  0.00    -0.300 OA
ENDBRANCH   1   2
BRANCH   1   5
ATOM      5  C   UNL     1       5.409   1.722  -0.219  1.00  0.00     0.043 C 
BRANCH   5   6
ATOM      6  C   UNL     1       6.574   1.021  -0.787  1.00  0.00    -0.044 A 
ATOM      7  C   UNL     1       7.882   1.454  -0.542  1.00  0.00     0.008 A 
ATOM      8  C   UNL     1       6.382  -0.089  -1.578  1.00  0.00     0.054 A 
ATOM      9  C   UNL     1       8.936   0.756  -1.102  1.00  0.00     0.051 A 
ATOM     10  C   UNL     1       7.452  -0.792  -2.141  1.00  0.00     0.166 A 
ATOM     11  C   UNL     1       8.739  -0.366  -1.901  1.00  0.00     0.165 A 
ATOM     12  O   UNL     1       7.522  -1.907  -2.950  1.00  0.00    -0.454 OA
ATOM     13  O   UNL     1       9.582  -1.237  -2.574  1.00  0.00    -0.454 OA
ATOM     14  C   UNL     1       8.856  -2.282  -3.177  1.00  0.00     0.468 C 
ENDBRANCH   5   6
ENDBRANCH   1   5
TORSDOF 3
ENDMDL
MODEL 4
REMARK VINA RESULT:      -7.6      1.145      1.546
REMARK SMILES CC(=O)CCc1ccc2c(c1)OCO2
REMARK SMILES IDX 4 1 2 2 1 3 3 4 5 5 6 6 7 7 11 8 8 9 10 10 9 11 12 12 14 13
REMARK SMILES IDX 13 14
REMARK H PARENT
REMARK Flexibility Score: inf
ROOT
ATOM      1  C   UNL     1       5.412   2.927   0.056  1.00  0.00     0.080 C 
ENDROOT
BRANCH   1   2
ATOM      2  C   UNL     1       6.224   3.812   0.937  1.00  0.00     0.130 C 
ATOM      3  C   UNL     1       7.215   4.772   0.380  1.00  0.00     0.087 C 
ATOM      4  O   UNL     1       6.099   3.774   2.151  1.00  0.00    -0.300 OA
ENDBRANCH   1   2
BRANCH   1   5
ATOM      5  C   UNL     1       5.588   1.468   0.428  1.00  0.00     0.043 C 
BRANCH   5   6
ATOM      6  C   UNL     1       6.679   0.838  -0.336  1.00  0.00    -0.044 A 
ATOM      7  C   UNL     1       7.966   1.388  -0.367  1.00  0.00     0.008 A 
ATOM      8  C   UNL     1       6.439  -0.322  -1.038  1.00  0.00     0.054 A 
ATOM      9  C   UNL     1       8.950   0.752  -1.101  1.00  0.00     0.051 A 
ATOM     10  C   UNL     1       7.438  -0.961  -1.778  1.00  0.00     0.166 A 
ATOM     11  C   UNL     1       8.704  -0.420  -1.809  1.00  0.00     0.165 A 
ATOM     12  O   UNL     1       7.451  -2.105  -2.548  1.00  0.00    -0.454 OA
ATOM     13  O   UNL     1       9.476  -1.251  -2.606  1.00  0.00    -0.454 OA
ATOM     14  C   UNL     1       8.744  -2.380  -3.021  1.00  0.00     0.468 C 
ENDBRANCH   5   6
ENDBRANCH   1   5
TORSDOF 3
ENDMDL
MODEL 5
REMARK VINA RESULT:      -7.5      1.949      3.012
REMARK SMILES CC(=O)CCc1ccc2c(c1)OCO2
REMARK SMILES IDX 4 1 2 2 1 3 3 4 5 5 6 6 7 7 11 8 8 9 10 10 9 11 12 12 14 13
REMARK SMILES IDX 13 14
REMARK H PARENT
REMARK Flexibility Score: inf
ROOT
ATOM      1  C   UNL     1       5.781   1.380  -0.321  1.00  0.00     0.080 C 
ENDROOT
BRANCH   1   2
ATOM      2  C   UNL     1       5.155   1.301   1.029  1.00  0.00     0.130 C 
ATOM      3  C   UNL     1       5.366   0.130   1.920  1.00  0.00     0.087 C 
ATOM      4  O   UNL     1       4.445   2.203   1.443  1.00  0.00    -0.300 OA
ENDBRANCH   1   2
BRANCH   1   5
ATOM      5  C   UNL     1       7.273   1.125  -0.251  1.00  0.00     0.043 C 
BRANCH   5   6
ATOM      6  C   UNL     1       7.635  -0.171  -0.854  1.00  0.00    -0.044 A 
ATOM      7  C   UNL     1       7.703  -0.339  -2.242  1.00  0.00     0.008 A 
ATOM      8  C   UNL     1       7.918  -1.246  -0.043  1.00  0.00     0.054 A 
ATOM      9  C   UNL     1       8.049  -1.578  -2.751  1.00  0.00     0.051 A 
ATOM     10  C   UNL     1       8.268  -2.496  -0.563  1.00  0.00     0.166 A 
ATOM     11  C   UNL     1       8.333  -2.663  -1.928  1.00  0.00     0.165 A 
ATOM     12  O   UNL     1       8.588  -3.701   0.025  1.00  0.00    -0.454 OA
ATOM     13  O   UNL     1       8.698  -3.981  -2.153  1.00  0.00    -0.454 OA
ATOM     14  C   UNL     1       8.958  -4.651  -0.942  1.00  0.00     0.468 C 
ENDBRANCH   5   6
ENDBRANCH   1   5
TORSDOF 3
ENDMDL
