@<TRIPOS>MOLECULE
/home/cewinharhar/GITHUB/reincatalyze/data/processed/docking_pred/2023-May-22-1902_sub9_nm5_bs15_s42_ex16_mel10_mts1000_k50_ec02_g099_lra9e-4_lrc1e-3/1e8ffecbec14ce573bf52adb8829230239be76a8_ligand_9.pdbqt
 14 15 0 0 0
SMALL
GASTEIGER

@<TRIPOS>ATOM
      1  C          5.7810    1.3800   -0.3210 C.3     1  UNL1        0.0800
      2  C          5.1550    1.3010    1.0290 C.2     1  UNL1        0.1300
      3  C          5.3660    0.1300    1.9200 C.3     1  UNL1        0.0870
      4  O          4.4450    2.2030    1.4430 O.2     1  UNL1       -0.3000
      5  C          7.2730    1.1250   -0.2510 C.3     1  UNL1        0.0430
      6  C          7.6350   -0.1710   -0.8540 C.2     1  UNL1       -0.0440
      7  C          7.7030   -0.3390   -2.2420 C.2     1  UNL1        0.0080
      8  C          7.9180   -1.2460   -0.0430 C.2     1  UNL1        0.0540
      9  C          8.0490   -1.5780   -2.7510 C.2     1  UNL1        0.0510
     10  C          8.2680   -2.4960   -0.5630 C.2     1  UNL1        0.1660
     11  C          8.3330   -2.6630   -1.9280 C.2     1  UNL1        0.1650
     12  O          8.5880   -3.7010    0.0250 O.2     1  UNL1       -0.4540
     13  O          8.6980   -3.9810   -2.1530 O.2     1  UNL1       -0.4540
     14  C          8.9580   -4.6510   -0.9420 C.3     1  UNL1        0.4680
@<TRIPOS>BOND
     1     9     7    1
     2     9    11    2
     3     7     6    2
     4    13    11    1
     5    13    14    1
     6    11    10    1
     7    14    12    1
     8     6     5    1
     9     6     8    1
    10    10     8    2
    11    10    12    1
    12     1     5    1
    13     1     2    1
    14     2     4    2
    15     2     3    1
