@<TRIPOS>MOLECULE
/home/cewinharhar/GITHUB/reincatalyze/data/processed/docking_pred/2023-May-22-1902_sub9_nm5_bs15_s42_ex16_mel10_mts1000_k50_ec02_g099_lra9e-4_lrc1e-3/1e8ffecbec14ce573bf52adb8829230239be76a8_ligand_9.pdbqt
 14 15 0 0 0
SMALL
GASTEIGER

@<TRIPOS>ATOM
      1  C          5.4120    2.9270    0.0560 C.3     1  UNL1        0.0800
      2  C          6.2240    3.8120    0.9370 C.2     1  UNL1        0.1300
      3  C          7.2150    4.7720    0.3800 C.3     1  UNL1        0.0870
      4  O          6.0990    3.7740    2.1510 O.2     1  UNL1       -0.3000
      5  C          5.5880    1.4680    0.4280 C.3     1  UNL1        0.0430
      6  C          6.6790    0.8380   -0.3360 C.2     1  UNL1       -0.0440
      7  C          7.9660    1.3880   -0.3670 C.2     1  UNL1        0.0080
      8  C          6.4390   -0.3220   -1.0380 C.2     1  UNL1        0.0540
      9  C          8.9500    0.7520   -1.1010 C.2     1  UNL1        0.0510
     10  C          7.4380   -0.9610   -1.7780 C.2     1  UNL1        0.1660
     11  C          8.7040   -0.4200   -1.8090 C.2     1  UNL1        0.1650
     12  O          7.4510   -2.1050   -2.5480 O.2     1  UNL1       -0.4540
     13  O          9.4760   -1.2510   -2.6060 O.2     1  UNL1       -0.4540
     14  C          8.7440   -2.3800   -3.0210 C.3     1  UNL1        0.4680
@<TRIPOS>BOND
     1    14    13    1
     2    14    12    1
     3    13    11    1
     4    12    10    1
     5    11    10    2
     6    11     9    1
     7    10     8    1
     8     9     7    2
     9     8     6    2
    10     7     6    1
    11     6     5    1
    12     1     5    1
    13     1     2    1
    14     3     2    1
    15     2     4    2
