@<TRIPOS>MOLECULE
/home/cewinharhar/GITHUB/reincatalyze/data/processed/docking_pred/2023-May-22-1902_sub9_nm5_bs15_s42_ex16_mel10_mts1000_k50_ec02_g099_lra9e-4_lrc1e-3/1ec3d4ded79b7f38a98788c4b0a5da992fc20b58_ligand_9.pdbqt
 14 15 0 0 0
SMALL
GASTEIGER

@<TRIPOS>ATOM
      1  C          6.3380    0.9080    1.0250 C.3     1  UNL1        0.0800
      2  C          5.1080    1.7440    0.9360 C.2     1  UNL1        0.1300
      3  C          4.8660    2.6560   -0.2130 C.3     1  UNL1        0.0870
      4  O          4.2590    1.7040    1.8120 O.2     1  UNL1       -0.3000
      5  C          7.2230    1.1000   -0.1910 C.3     1  UNL1        0.0430
      6  C          7.5740   -0.1860   -0.8190 C.2     1  UNL1       -0.0440
      7  C          7.6000   -0.3390   -2.2100 C.2     1  UNL1        0.0080
      8  C          7.8890   -1.2680   -0.0290 C.2     1  UNL1        0.0540
      9  C          7.9380   -1.5700   -2.7440 C.2     1  UNL1        0.0510
     10  C          8.2310   -2.5100   -0.5730 C.2     1  UNL1        0.1660
     11  C          8.2550   -2.6620   -1.9420 C.2     1  UNL1        0.1650
     12  O          8.5780   -3.7190   -0.0100 O.2     1  UNL1       -0.4540
     13  O          8.6210   -3.9750   -2.1930 O.2     1  UNL1       -0.4540
     14  C          8.9230   -4.6550   -0.9980 C.3     1  UNL1        0.4680
@<TRIPOS>BOND
     1     9     7    1
     2     9    11    2
     3     7     6    2
     4    13    11    1
     5    13    14    1
     6    11    10    1
     7    14    12    1
     8     6     5    1
     9     6     8    1
    10    10     8    2
    11    10    12    1
    12     3     2    1
    13     5     1    1
    14     2     1    1
    15     2     4    2
