@<TRIPOS>MOLECULE
/home/cewinharhar/GITHUB/reincatalyze/data/processed/docking_pred/2023-May-22-1902_sub9_nm5_bs15_s42_ex16_mel10_mts1000_k50_ec02_g099_lra9e-4_lrc1e-3/1f3204452a604bf2b5a1468570937d609aafa137_ligand_9.pdbqt
 14 15 0 0 0
SMALL
GASTEIGER

@<TRIPOS>ATOM
      1  C          5.6390    3.0810    0.2290 C.3     1  UNL1        0.0800
      2  C          6.4900    3.7340    1.2630 C.2     1  UNL1        0.1300
      3  C          7.9600    3.5130    1.3180 C.3     1  UNL1        0.0870
      4  O          6.0010    4.4740    2.1010 O.2     1  UNL1       -0.3000
      5  C          5.1000    1.7520    0.7190 C.3     1  UNL1        0.0430
      6  C          5.9250    0.6230    0.2560 C.2     1  UNL1       -0.0440
      7  C          6.2490   -0.4440    1.1020 C.2     1  UNL1        0.0080
      8  C          6.3930    0.6050   -1.0380 C.2     1  UNL1        0.0540
      9  C          7.0270   -1.4770    0.6120 C.2     1  UNL1        0.0510
     10  C          7.1780   -0.4420   -1.5290 C.2     1  UNL1        0.1660
     11  C          7.4990   -1.4920   -0.6970 C.2     1  UNL1        0.1650
     12  O          7.7560   -0.6880   -2.7570 O.2     1  UNL1       -0.4540
     13  O          8.2730   -2.3690   -1.4390 O.2     1  UNL1       -0.4540
     14  C          8.3860   -1.9430   -2.7760 C.3     1  UNL1        0.4680
@<TRIPOS>BOND
     1    14    12    1
     2    14    13    1
     3    12    10    1
     4    10     8    1
     5    10    11    2
     6    13    11    1
     7     8     6    2
     8    11     9    1
     9     1     5    1
    10     1     2    1
    11     6     5    1
    12     6     7    1
    13     9     7    2
    14     2     3    1
    15     2     4    2
