MODEL 1
REMARK VINA RESULT:      -7.9      0.000      0.000
REMARK SMILES CC(=O)CCc1ccc2c(c1)OCO2
REMARK SMILES IDX 4 1 2 2 1 3 3 4 5 5 6 6 7 7 11 8 8 9 10 10 9 11 12 12 14 13
REMARK SMILES IDX 13 14
REMARK H PARENT
REMARK Flexibility Score: inf
ROOT
ATOM      1  C   UNL     1       5.444   2.947   0.171  1.00  0.00     0.080 C 
ENDROOT
BRANCH   1   2
ATOM      2  C   UNL     1       6.265   3.883   0.989  1.00  0.00     0.130 C 
ATOM      3  C   UNL     1       7.282   4.775   0.370  1.00  0.00     0.087 C 
ATOM      4  O   UNL     1       6.127   3.943   2.200  1.00  0.00    -0.300 OA
ENDBRANCH   1   2
BRANCH   1   5
ATOM      5  C   UNL     1       5.185   1.650   0.912  1.00  0.00     0.043 C 
BRANCH   5   6
ATOM      6  C   UNL     1       6.005   0.546   0.384  1.00  0.00    -0.044 A 
ATOM      7  C   UNL     1       6.322  -0.571   1.166  1.00  0.00     0.008 A 
ATOM      8  C   UNL     1       6.475   0.602  -0.909  1.00  0.00     0.054 A 
ATOM      9  C   UNL     1       7.096  -1.577   0.616  1.00  0.00     0.051 A 
ATOM     10  C   UNL     1       7.256  -0.418  -1.460  1.00  0.00     0.166 A 
ATOM     11  C   UNL     1       7.569  -1.516  -0.691  1.00  0.00     0.165 A 
ATOM     12  O   UNL     1       7.834  -0.593  -2.699  1.00  0.00    -0.454 OA
ATOM     13  O   UNL     1       8.340  -2.353  -1.483  1.00  0.00    -0.454 OA
ATOM     14  C   UNL     1       8.457  -1.849  -2.792  1.00  0.00     0.468 C 
ENDBRANCH   5   6
ENDBRANCH   1   5
TORSDOF 3
ENDMDL
MODEL 2
REMARK VINA RESULT:      -7.9      0.999      1.980
REMARK SMILES CC(=O)CCc1ccc2c(c1)OCO2
REMARK SMILES IDX 4 1 2 2 1 3 3 4 5 5 6 6 7 7 11 8 8 9 10 10 9 11 12 12 14 13
REMARK SMILES IDX 13 14
REMARK H PARENT
REMARK Flexibility Score: inf
ROOT
ATOM      1  C   UNL     1       5.267   3.020   0.228  1.00  0.00     0.080 C 
ENDROOT
BRANCH   1   2
ATOM      2  C   UNL     1       6.270   3.799   1.006  1.00  0.00     0.130 C 
ATOM      3  C   UNL     1       7.182   4.774   0.350  1.00  0.00     0.087 C 
ATOM      4  O   UNL     1       6.372   3.659   2.214  1.00  0.00    -0.300 OA
ENDBRANCH   1   2
BRANCH   1   5
ATOM      5  C   UNL     1       4.997   1.674   0.871  1.00  0.00     0.043 C 
BRANCH   5   6
ATOM      6  C   UNL     1       5.869   0.621   0.320  1.00  0.00    -0.044 A 
ATOM      7  C   UNL     1       6.261   0.622  -1.023  1.00  0.00     0.008 A 
ATOM      8  C   UNL     1       6.316  -0.392   1.139  1.00  0.00     0.054 A 
ATOM      9  C   UNL     1       7.082  -0.392  -1.483  1.00  0.00     0.051 A 
ATOM     10  C   UNL     1       7.146  -1.414   0.669  1.00  0.00     0.166 A 
ATOM     11  C   UNL     1       7.531  -1.415  -0.653  1.00  0.00     0.165 A 
ATOM     12  O   UNL     1       7.714  -2.515   1.273  1.00  0.00    -0.454 OA
ATOM     13  O   UNL     1       8.338  -2.527  -0.835  1.00  0.00    -0.454 OA
ATOM     14  C   UNL     1       8.554  -3.202   0.381  1.00  0.00     0.468 C 
ENDBRANCH   5   6
ENDBRANCH   1   5
TORSDOF 3
ENDMDL
MODEL 3
REMARK VINA RESULT:      -7.7      1.910      2.668
REMARK SMILES CC(=O)CCc1ccc2c(c1)OCO2
REMARK SMILES IDX 4 1 2 2 1 3 3 4 5 5 6 6 7 7 11 8 8 9 10 10 9 11 12 12 14 13
REMARK SMILES IDX 13 14
REMARK H PARENT
REMARK Flexibility Score: inf
ROOT
ATOM      1  C   UNL     1       5.531   1.918   1.268  1.00  0.00     0.080 C 
ENDROOT
BRANCH   1   2
ATOM      2  C   UNL     1       5.093   0.701   2.006  1.00  0.00     0.130 C 
ATOM      3  C   UNL     1       5.991  -0.471   2.183  1.00  0.00     0.087 C 
ATOM      4  O   UNL     1       3.974   0.631   2.489  1.00  0.00    -0.300 OA
ENDBRANCH   1   2
BRANCH   1   5
ATOM      5  C   UNL     1       5.403   1.729  -0.231  1.00  0.00     0.043 C 
BRANCH   5   6
ATOM      6  C   UNL     1       6.570   1.028  -0.795  1.00  0.00    -0.044 A 
ATOM      7  C   UNL     1       7.877   1.459  -0.542  1.00  0.00     0.008 A 
ATOM      8  C   UNL     1       6.382  -0.080  -1.590  1.00  0.00     0.054 A 
ATOM      9  C   UNL     1       8.934   0.761  -1.098  1.00  0.00     0.051 A 
ATOM     10  C   UNL     1       7.453  -0.783  -2.149  1.00  0.00     0.166 A 
ATOM     11  C   UNL     1       8.740  -0.358  -1.902  1.00  0.00     0.165 A 
ATOM     12  O   UNL     1       7.526  -1.895  -2.960  1.00  0.00    -0.454 OA
ATOM     13  O   UNL     1       9.585  -1.229  -2.572  1.00  0.00    -0.454 OA
ATOM     14  C   UNL     1       8.861  -2.271  -3.181  1.00  0.00     0.468 C 
ENDBRANCH   5   6
ENDBRANCH   1   5
TORSDOF 3
ENDMDL
MODEL 4
REMARK VINA RESULT:      -7.6      1.118      1.538
REMARK SMILES CC(=O)CCc1ccc2c(c1)OCO2
REMARK SMILES IDX 4 1 2 2 1 3 3 4 5 5 6 6 7 7 11 8 8 9 10 10 9 11 12 12 14 13
REMARK SMILES IDX 13 14
REMARK H PARENT
REMARK Flexibility Score: inf
ROOT
ATOM      1  C   UNL     1       5.405   2.875   0.173  1.00  0.00     0.080 C 
ENDROOT
BRANCH   1   2
ATOM      2  C   UNL     1       6.275   3.750   1.007  1.00  0.00     0.130 C 
ATOM      3  C   UNL     1       7.166   4.774   0.397  1.00  0.00     0.087 C 
ATOM      4  O   UNL     1       6.282   3.651   2.223  1.00  0.00    -0.300 OA
ENDBRANCH   1   2
BRANCH   1   5
ATOM      5  C   UNL     1       5.597   1.413   0.525  1.00  0.00     0.043 C 
BRANCH   5   6
ATOM      6  C   UNL     1       6.683   0.799  -0.260  1.00  0.00    -0.044 A 
ATOM      7  C   UNL     1       7.967   1.355  -0.295  1.00  0.00     0.008 A 
ATOM      8  C   UNL     1       6.440  -0.350  -0.978  1.00  0.00     0.054 A 
ATOM      9  C   UNL     1       8.946   0.735  -1.049  1.00  0.00     0.051 A 
ATOM     10  C   UNL     1       7.434  -0.974  -1.737  1.00  0.00     0.166 A 
ATOM     11  C   UNL     1       8.698  -0.427  -1.774  1.00  0.00     0.165 A 
ATOM     12  O   UNL     1       7.443  -2.105  -2.526  1.00  0.00    -0.454 OA
ATOM     13  O   UNL     1       9.464  -1.242  -2.592  1.00  0.00    -0.454 OA
ATOM     14  C   UNL     1       8.733  -2.367  -3.017  1.00  0.00     0.468 C 
ENDBRANCH   5   6
ENDBRANCH   1   5
TORSDOF 3
ENDMDL
MODEL 5
REMARK VINA RESULT:      -7.6      1.962      3.064
REMARK SMILES CC(=O)CCc1ccc2c(c1)OCO2
REMARK SMILES IDX 4 1 2 2 1 3 3 4 5 5 6 6 7 7 11 8 8 9 10 10 9 11 12 12 14 13
REMARK SMILES IDX 13 14
REMARK H PARENT
REMARK Flexibility Score: inf
ROOT
ATOM      1  C   UNL     1       5.777   1.293  -0.429  1.00  0.00     0.080 C 
ENDROOT
BRANCH   1   2
ATOM      2  C   UNL     1       5.201   1.365   0.943  1.00  0.00     0.130 C 
ATOM      3  C   UNL     1       5.304   0.225   1.893  1.00  0.00     0.087 C 
ATOM      4  O   UNL     1       4.623   2.368   1.329  1.00  0.00    -0.300 OA
ENDBRANCH   1   2
BRANCH   1   5
ATOM      5  C   UNL     1       7.279   1.096  -0.386  1.00  0.00     0.043 C 
BRANCH   5   6
ATOM      6  C   UNL     1       7.676  -0.205  -0.953  1.00  0.00    -0.044 A 
ATOM      7  C   UNL     1       7.828  -0.387  -2.332  1.00  0.00     0.008 A 
ATOM      8  C   UNL     1       7.909  -1.272  -0.115  1.00  0.00     0.054 A 
ATOM      9  C   UNL     1       8.204  -1.631  -2.806  1.00  0.00     0.051 A 
ATOM     10  C   UNL     1       8.289  -2.527  -0.599  1.00  0.00     0.166 A 
ATOM     11  C   UNL     1       8.437  -2.708  -1.957  1.00  0.00     0.165 A 
ATOM     12  O   UNL     1       8.573  -3.726   0.018  1.00  0.00    -0.454 OA
ATOM     13  O   UNL     1       8.814  -4.028  -2.146  1.00  0.00    -0.454 OA
ATOM     14  C   UNL     1       9.000  -4.685  -0.915  1.00  0.00     0.468 C 
ENDBRANCH   5   6
ENDBRANCH   1   5
TORSDOF 3
ENDMDL
