@<TRIPOS>MOLECULE
/home/cewinharhar/GITHUB/reincatalyze/data/processed/docking_pred/2023-May-22-1902_sub9_nm5_bs15_s42_ex16_mel10_mts1000_k50_ec02_g099_lra9e-4_lrc1e-3/1f53ccdef65850680f3a99c865464637782ca6a5_ligand_9.pdbqt
 14 15 0 0 0
SMALL
GASTEIGER

@<TRIPOS>ATOM
      1  C          5.4050    2.8750    0.1730 C.3     1  UNL1        0.0800
      2  C          6.2750    3.7500    1.0070 C.2     1  UNL1        0.1300
      3  C          7.1660    4.7740    0.3970 C.3     1  UNL1        0.0870
      4  O          6.2820    3.6510    2.2230 O.2     1  UNL1       -0.3000
      5  C          5.5970    1.4130    0.5250 C.3     1  UNL1        0.0430
      6  C          6.6830    0.7990   -0.2600 C.2     1  UNL1       -0.0440
      7  C          7.9670    1.3550   -0.2950 C.2     1  UNL1        0.0080
      8  C          6.4400   -0.3500   -0.9780 C.2     1  UNL1        0.0540
      9  C          8.9460    0.7350   -1.0490 C.2     1  UNL1        0.0510
     10  C          7.4340   -0.9740   -1.7370 C.2     1  UNL1        0.1660
     11  C          8.6980   -0.4270   -1.7740 C.2     1  UNL1        0.1650
     12  O          7.4430   -2.1050   -2.5260 O.2     1  UNL1       -0.4540
     13  O          9.4640   -1.2420   -2.5920 O.2     1  UNL1       -0.4540
     14  C          8.7330   -2.3670   -3.0170 C.3     1  UNL1        0.4680
@<TRIPOS>BOND
     1    14    13    1
     2    14    12    1
     3    13    11    1
     4    12    10    1
     5    11    10    2
     6    11     9    1
     7    10     8    1
     8     9     7    2
     9     8     6    2
    10     7     6    1
    11     6     5    1
    12     1     5    1
    13     1     2    1
    14     3     2    1
    15     2     4    2
