@<TRIPOS>MOLECULE
/home/cewinharhar/GITHUB/reincatalyze/data/processed/docking_pred/2023-May-22-1902_sub9_nm5_bs15_s42_ex16_mel10_mts1000_k50_ec02_g099_lra9e-4_lrc1e-3/1f53ccdef65850680f3a99c865464637782ca6a5_ligand_9.pdbqt
 14 15 0 0 0
SMALL
GASTEIGER

@<TRIPOS>ATOM
      1  C          5.2670    3.0200    0.2280 C.3     1  UNL1        0.0800
      2  C          6.2700    3.7990    1.0060 C.2     1  UNL1        0.1300
      3  C          7.1820    4.7740    0.3500 C.3     1  UNL1        0.0870
      4  O          6.3720    3.6590    2.2140 O.2     1  UNL1       -0.3000
      5  C          4.9970    1.6740    0.8710 C.3     1  UNL1        0.0430
      6  C          5.8690    0.6210    0.3200 C.2     1  UNL1       -0.0440
      7  C          6.2610    0.6220   -1.0230 C.2     1  UNL1        0.0080
      8  C          6.3160   -0.3920    1.1390 C.2     1  UNL1        0.0540
      9  C          7.0820   -0.3920   -1.4830 C.2     1  UNL1        0.0510
     10  C          7.1460   -1.4140    0.6690 C.2     1  UNL1        0.1660
     11  C          7.5310   -1.4150   -0.6530 C.2     1  UNL1        0.1650
     12  O          7.7140   -2.5150    1.2730 O.2     1  UNL1       -0.4540
     13  O          8.3380   -2.5270   -0.8350 O.2     1  UNL1       -0.4540
     14  C          8.5540   -3.2020    0.3810 C.3     1  UNL1        0.4680
@<TRIPOS>BOND
     1     9     7    1
     2     9    11    2
     3     7     6    2
     4    13    11    1
     5    13    14    1
     6    11    10    1
     7     1     5    1
     8     1     2    1
     9     6     5    1
    10     6     8    1
    11     3     2    1
    12    14    12    1
    13    10     8    2
    14    10    12    1
    15     2     4    2
