@<TRIPOS>MOLECULE
/home/cewinharhar/GITHUB/reincatalyze/data/processed/docking_pred/2023-May-22-1902_sub9_nm5_bs15_s42_ex16_mel10_mts1000_k50_ec02_g099_lra9e-4_lrc1e-3/1f53ccdef65850680f3a99c865464637782ca6a5_ligand_9.pdbqt
 14 15 0 0 0
SMALL
GASTEIGER

@<TRIPOS>ATOM
      1  C          5.4440    2.9470    0.1710 C.3     1  UNL1        0.0800
      2  C          6.2650    3.8830    0.9890 C.2     1  UNL1        0.1300
      3  C          7.2820    4.7750    0.3700 C.3     1  UNL1        0.0870
      4  O          6.1270    3.9430    2.2000 O.2     1  UNL1       -0.3000
      5  C          5.1850    1.6500    0.9120 C.3     1  UNL1        0.0430
      6  C          6.0050    0.5460    0.3840 C.2     1  UNL1       -0.0440
      7  C          6.3220   -0.5710    1.1660 C.2     1  UNL1        0.0080
      8  C          6.4750    0.6020   -0.9090 C.2     1  UNL1        0.0540
      9  C          7.0960   -1.5770    0.6160 C.2     1  UNL1        0.0510
     10  C          7.2560   -0.4180   -1.4600 C.2     1  UNL1        0.1660
     11  C          7.5690   -1.5160   -0.6910 C.2     1  UNL1        0.1650
     12  O          7.8340   -0.5930   -2.6990 O.2     1  UNL1       -0.4540
     13  O          8.3400   -2.3530   -1.4830 O.2     1  UNL1       -0.4540
     14  C          8.4570   -1.8490   -2.7920 C.3     1  UNL1        0.4680
@<TRIPOS>BOND
     1    14    12    1
     2    14    13    1
     3    12    10    1
     4    13    11    1
     5    10     8    1
     6    10    11    2
     7     8     6    2
     8    11     9    1
     9     1     5    1
    10     1     2    1
    11     3     2    1
    12     6     5    1
    13     6     7    1
    14     9     7    2
    15     2     4    2
