@<TRIPOS>MOLECULE
/home/cewinharhar/GITHUB/reincatalyze/data/processed/docking_pred/2023-May-22-1902_sub9_nm5_bs15_s42_ex16_mel10_mts1000_k50_ec02_g099_lra9e-4_lrc1e-3/1f53ccdef65850680f3a99c865464637782ca6a5_ligand_9.pdbqt
 14 15 0 0 0
SMALL
GASTEIGER

@<TRIPOS>ATOM
      1  C          5.5310    1.9180    1.2680 C.3     1  UNL1        0.0800
      2  C          5.0930    0.7010    2.0060 C.2     1  UNL1        0.1300
      3  C          5.9910   -0.4710    2.1830 C.3     1  UNL1        0.0870
      4  O          3.9740    0.6310    2.4890 O.2     1  UNL1       -0.3000
      5  C          5.4030    1.7290   -0.2310 C.3     1  UNL1        0.0430
      6  C          6.5700    1.0280   -0.7950 C.2     1  UNL1       -0.0440
      7  C          7.8770    1.4590   -0.5420 C.2     1  UNL1        0.0080
      8  C          6.3820   -0.0800   -1.5900 C.2     1  UNL1        0.0540
      9  C          8.9340    0.7610   -1.0980 C.2     1  UNL1        0.0510
     10  C          7.4530   -0.7830   -2.1490 C.2     1  UNL1        0.1660
     11  C          8.7400   -0.3580   -1.9020 C.2     1  UNL1        0.1650
     12  O          7.5260   -1.8950   -2.9600 O.2     1  UNL1       -0.4540
     13  O          9.5850   -1.2290   -2.5720 O.2     1  UNL1       -0.4540
     14  C          8.8610   -2.2710   -3.1810 C.3     1  UNL1        0.4680
@<TRIPOS>BOND
     1    14    12    1
     2    14    13    1
     3    12    10    1
     4    13    11    1
     5    10    11    2
     6    10     8    1
     7    11     9    1
     8     8     6    2
     9     9     7    2
    10     6     7    1
    11     6     5    1
    12     5     1    1
    13     1     2    1
    14     2     3    1
    15     2     4    2
