@<TRIPOS>MOLECULE
/home/cewinharhar/GITHUB/reincatalyze/data/processed/docking_pred/2023-May-22-1902_sub9_nm5_bs15_s42_ex16_mel10_mts1000_k50_ec02_g099_lra9e-4_lrc1e-3/1f774135605f6656ff2aa9e322f53f2a679c664c_ligand_9.pdbqt
 14 15 0 0 0
SMALL
GASTEIGER

@<TRIPOS>ATOM
      1  C          5.4610    2.8980    0.2980 C.3     1  UNL1        0.0800
      2  C          6.2750    3.9060    1.0330 C.2     1  UNL1        0.1300
      3  C          7.2610    4.7740    0.3350 C.3     1  UNL1        0.0870
      4  O          6.1540    4.0490    2.2390 O.2     1  UNL1       -0.3000
      5  C          5.3280    1.6130    1.0910 C.3     1  UNL1        0.0430
      6  C          6.1240    0.5220    0.5010 C.2     1  UNL1       -0.0440
      7  C          6.4790   -0.6100    1.2430 C.2     1  UNL1        0.0080
      8  C          6.5300    0.6060   -0.8110 C.2     1  UNL1        0.0540
      9  C          7.2260   -1.6040    0.6360 C.2     1  UNL1        0.0510
     10  C          7.2850   -0.4010   -1.4210 C.2     1  UNL1        0.1660
     11  C          7.6360   -1.5150   -0.6910 C.2     1  UNL1        0.1650
     12  O          7.8040   -0.5490   -2.6890 O.2     1  UNL1       -0.4540
     13  O          8.3690   -2.3330   -1.5360 O.2     1  UNL1       -0.4540
     14  C          8.4220   -1.8010   -2.8380 C.3     1  UNL1        0.4680
@<TRIPOS>BOND
     1    14    12    1
     2    14    13    1
     3    12    10    1
     4    13    11    1
     5    10     8    1
     6    10    11    2
     7     8     6    2
     8    11     9    1
     9     1     2    1
    10     1     5    1
    11     3     2    1
    12     6     5    1
    13     6     7    1
    14     9     7    2
    15     2     4    2
