@<TRIPOS>MOLECULE
/home/cewinharhar/GITHUB/reincatalyze/data/processed/docking_pred/2023-May-22-1902_sub9_nm5_bs15_s42_ex16_mel10_mts1000_k50_ec02_g099_lra9e-4_lrc1e-3/1f774135605f6656ff2aa9e322f53f2a679c664c_ligand_9.pdbqt
 14 15 0 0 0
SMALL
GASTEIGER

@<TRIPOS>ATOM
      1  C          5.5430    1.9150    1.2710 C.3     1  UNL1        0.0800
      2  C          5.1020    0.7010    2.0140 C.2     1  UNL1        0.1300
      3  C          5.9980   -0.4720    2.1950 C.3     1  UNL1        0.0870
      4  O          3.9840    0.6360    2.5000 O.2     1  UNL1       -0.3000
      5  C          5.4090    1.7210   -0.2270 C.3     1  UNL1        0.0430
      6  C          6.5760    1.0200   -0.7930 C.2     1  UNL1       -0.0440
      7  C          7.8830    1.4530   -0.5440 C.2     1  UNL1        0.0080
      8  C          6.3870   -0.0890   -1.5860 C.2     1  UNL1        0.0540
      9  C          8.9390    0.7550   -1.1010 C.2     1  UNL1        0.0510
     10  C          7.4570   -0.7910   -2.1470 C.2     1  UNL1        0.1660
     11  C          8.7440   -0.3650   -1.9030 C.2     1  UNL1        0.1650
     12  O          7.5300   -1.9050   -2.9570 O.2     1  UNL1       -0.4540
     13  O          9.5890   -1.2360   -2.5740 O.2     1  UNL1       -0.4540
     14  C          8.8650   -2.2800   -3.1810 C.3     1  UNL1        0.4680
@<TRIPOS>BOND
     1    14    12    1
     2    14    13    1
     3    12    10    1
     4    13    11    1
     5    10    11    2
     6    10     8    1
     7    11     9    1
     8     8     6    2
     9     9     7    2
    10     6     7    1
    11     6     5    1
    12     5     1    1
    13     1     2    1
    14     2     3    1
    15     2     4    2
