@<TRIPOS>MOLECULE
/home/cewinharhar/GITHUB/reincatalyze/data/processed/docking_pred/2023-May-22-1902_sub9_nm5_bs15_s42_ex16_mel10_mts1000_k50_ec02_g099_lra9e-4_lrc1e-3/1fd5ec6d4a6889d2560636754963a08404c0587d_ligand_9.pdbqt
 14 15 0 0 0
SMALL
GASTEIGER

@<TRIPOS>ATOM
      1  C          5.4570    2.9400    0.0590 C.3     1  UNL1        0.0800
      2  C          6.3010    3.8080    0.9270 C.2     1  UNL1        0.1300
      3  C          7.2770    4.7730    0.3540 C.3     1  UNL1        0.0870
      4  O          6.2140    3.7510    2.1430 O.2     1  UNL1       -0.3000
      5  C          5.1240    1.6310    0.7460 C.3     1  UNL1        0.0430
      6  C          5.9690    0.5260    0.2570 C.2     1  UNL1       -0.0440
      7  C          6.2930   -0.5650    1.0710 C.2     1  UNL1        0.0080
      8  C          6.4530    0.5570   -1.0310 C.2     1  UNL1        0.0540
      9  C          7.0890   -1.5720    0.5570 C.2     1  UNL1        0.0510
     10  C          7.2560   -0.4640   -1.5460 C.2     1  UNL1        0.1660
     11  C          7.5780   -1.5380   -0.7450 C.2     1  UNL1        0.1650
     12  O          7.8530   -0.6620   -2.7730 O.2     1  UNL1       -0.4540
     13  O          8.3720   -2.3820   -1.5060 O.2     1  UNL1       -0.4540
     14  C          8.4960   -1.9100   -2.8260 C.3     1  UNL1        0.4680
@<TRIPOS>BOND
     1    14    12    1
     2    14    13    1
     3    12    10    1
     4    10     8    1
     5    10    11    2
     6    13    11    1
     7     8     6    2
     8    11     9    1
     9     1     5    1
    10     1     2    1
    11     6     5    1
    12     6     7    1
    13     3     2    1
    14     9     7    2
    15     2     4    2
