@<TRIPOS>MOLECULE
/home/cewinharhar/GITHUB/reincatalyze/data/processed/docking_pred/2023-May-22-1902_sub9_nm5_bs15_s42_ex16_mel10_mts1000_k50_ec02_g099_lra9e-4_lrc1e-3/1fd5ec6d4a6889d2560636754963a08404c0587d_ligand_9.pdbqt
 14 15 0 0 0
SMALL
GASTEIGER

@<TRIPOS>ATOM
      1  C          6.1390    0.7970    1.1730 C.3     1  UNL1        0.0800
      2  C          5.0070    1.7450    0.9780 C.2     1  UNL1        0.1300
      3  C          4.9290    2.6330   -0.2120 C.3     1  UNL1        0.0870
      4  O          4.1050    1.8200    1.7960 O.2     1  UNL1       -0.3000
      5  C          7.2230    1.0120    0.1350 C.3     1  UNL1        0.0430
      6  C          7.5560   -0.2360   -0.5740 C.2     1  UNL1       -0.0440
      7  C          7.5070   -0.3210   -1.9700 C.2     1  UNL1        0.0080
      8  C          7.9270   -1.3500    0.1430 C.2     1  UNL1        0.0540
      9  C          7.8310   -1.5180   -2.5820 C.2     1  UNL1        0.0510
     10  C          8.2540   -2.5590   -0.4800 C.2     1  UNL1        0.1660
     11  C          8.2060   -2.6430   -1.8530 C.2     1  UNL1        0.1650
     12  O          8.6470   -3.7890    0.0040 O.2     1  UNL1       -0.4540
     13  O          8.5740   -3.9370   -2.1890 O.2     1  UNL1       -0.4540
     14  C          8.9500   -4.6700   -1.0470 C.3     1  UNL1        0.4680
@<TRIPOS>BOND
     1     9     7    1
     2     9    11    2
     3    13    11    1
     4    13    14    1
     5     7     6    2
     6    11    10    1
     7    14    12    1
     8     6     5    1
     9     6     8    1
    10    10    12    1
    11    10     8    2
    12     3     2    1
    13     5     1    1
    14     2     1    1
    15     2     4    2
