MODEL 1
REMARK VINA RESULT:      -8.0      0.000      0.000
REMARK SMILES CC(=O)CCc1ccc2c(c1)OCO2
REMARK SMILES IDX 4 1 2 2 1 3 3 4 5 5 6 6 7 7 11 8 8 9 10 10 9 11 12 12 14 13
REMARK SMILES IDX 13 14
REMARK H PARENT
REMARK Flexibility Score: inf
ROOT
ATOM      1  C   UNL     1       5.457   2.940   0.059  1.00  0.00     0.080 C 
ENDROOT
BRANCH   1   2
ATOM      2  C   UNL     1       6.301   3.808   0.927  1.00  0.00     0.130 C 
ATOM      3  C   UNL     1       7.277   4.773   0.354  1.00  0.00     0.087 C 
ATOM      4  O   UNL     1       6.214   3.751   2.143  1.00  0.00    -0.300 OA
ENDBRANCH   1   2
BRANCH   1   5
ATOM      5  C   UNL     1       5.124   1.631   0.746  1.00  0.00     0.043 C 
BRANCH   5   6
ATOM      6  C   UNL     1       5.969   0.526   0.257  1.00  0.00    -0.044 A 
ATOM      7  C   UNL     1       6.293  -0.565   1.071  1.00  0.00     0.008 A 
ATOM      8  C   UNL     1       6.453   0.557  -1.031  1.00  0.00     0.054 A 
ATOM      9  C   UNL     1       7.089  -1.572   0.557  1.00  0.00     0.051 A 
ATOM     10  C   UNL     1       7.256  -0.464  -1.546  1.00  0.00     0.166 A 
ATOM     11  C   UNL     1       7.578  -1.538  -0.745  1.00  0.00     0.165 A 
ATOM     12  O   UNL     1       7.853  -0.662  -2.773  1.00  0.00    -0.454 OA
ATOM     13  O   UNL     1       8.372  -2.382  -1.506  1.00  0.00    -0.454 OA
ATOM     14  C   UNL     1       8.496  -1.910  -2.826  1.00  0.00     0.468 C 
ENDBRANCH   5   6
ENDBRANCH   1   5
TORSDOF 3
ENDMDL
MODEL 2
REMARK VINA RESULT:      -7.8      0.968      1.951
REMARK SMILES CC(=O)CCc1ccc2c(c1)OCO2
REMARK SMILES IDX 4 1 2 2 1 3 3 4 5 5 6 6 7 7 11 8 8 9 10 10 9 11 12 12 14 13
REMARK SMILES IDX 13 14
REMARK H PARENT
REMARK Flexibility Score: inf
ROOT
ATOM      1  C   UNL     1       5.482   2.894   0.210  1.00  0.00     0.080 C 
ENDROOT
BRANCH   1   2
ATOM      2  C   UNL     1       6.290   3.872   0.991  1.00  0.00     0.130 C 
ATOM      3  C   UNL     1       7.272   4.775   0.334  1.00  0.00     0.087 C 
ATOM      4  O   UNL     1       6.168   3.959   2.203  1.00  0.00    -0.300 OA
ENDBRANCH   1   2
BRANCH   1   5
ATOM      5  C   UNL     1       5.334   1.582   0.956  1.00  0.00     0.043 C 
BRANCH   5   6
ATOM      6  C   UNL     1       6.112   0.503   0.322  1.00  0.00    -0.044 A 
ATOM      7  C   UNL     1       6.401   0.514  -1.047  1.00  0.00     0.008 A 
ATOM      8  C   UNL     1       6.572  -0.545   1.086  1.00  0.00     0.054 A 
ATOM      9  C   UNL     1       7.136  -0.526  -1.587  1.00  0.00     0.051 A 
ATOM     10  C   UNL     1       7.315  -1.594   0.536  1.00  0.00     0.166 A 
ATOM     11  C   UNL     1       7.599  -1.584  -0.811  1.00  0.00     0.165 A 
ATOM     12  O   UNL     1       7.876  -2.732   1.076  1.00  0.00    -0.454 OA
ATOM     13  O   UNL     1       8.337  -2.728  -1.073  1.00  0.00    -0.454 OA
ATOM     14  C   UNL     1       8.613  -3.437   0.111  1.00  0.00     0.468 C 
ENDBRANCH   5   6
ENDBRANCH   1   5
TORSDOF 3
ENDMDL
MODEL 3
REMARK VINA RESULT:      -7.7      1.884      2.627
REMARK SMILES CC(=O)CCc1ccc2c(c1)OCO2
REMARK SMILES IDX 4 1 2 2 1 3 3 4 5 5 6 6 7 7 11 8 8 9 10 10 9 11 12 12 14 13
REMARK SMILES IDX 13 14
REMARK H PARENT
REMARK Flexibility Score: inf
ROOT
ATOM      1  C   UNL     1       5.535   1.922   1.269  1.00  0.00     0.080 C 
ENDROOT
BRANCH   1   2
ATOM      2  C   UNL     1       5.106   0.701   2.007  1.00  0.00     0.130 C 
ATOM      3  C   UNL     1       6.015  -0.462   2.187  1.00  0.00     0.087 C 
ATOM      4  O   UNL     1       3.987   0.621   2.488  1.00  0.00    -0.300 OA
ENDBRANCH   1   2
BRANCH   1   5
ATOM      5  C   UNL     1       5.408   1.732  -0.230  1.00  0.00     0.043 C 
BRANCH   5   6
ATOM      6  C   UNL     1       6.573   1.026  -0.792  1.00  0.00    -0.044 A 
ATOM      7  C   UNL     1       7.881   1.453  -0.539  1.00  0.00     0.008 A 
ATOM      8  C   UNL     1       6.382  -0.084  -1.584  1.00  0.00     0.054 A 
ATOM      9  C   UNL     1       8.936   0.750  -1.093  1.00  0.00     0.051 A 
ATOM     10  C   UNL     1       7.451  -0.791  -2.141  1.00  0.00     0.166 A 
ATOM     11  C   UNL     1       8.739  -0.370  -1.893  1.00  0.00     0.165 A 
ATOM     12  O   UNL     1       7.521  -1.906  -2.949  1.00  0.00    -0.454 OA
ATOM     13  O   UNL     1       9.582  -1.245  -2.561  1.00  0.00    -0.454 OA
ATOM     14  C   UNL     1       8.855  -2.287  -3.169  1.00  0.00     0.468 C 
ENDBRANCH   5   6
ENDBRANCH   1   5
TORSDOF 3
ENDMDL
MODEL 4
REMARK VINA RESULT:      -7.5      1.956      3.006
REMARK SMILES CC(=O)CCc1ccc2c(c1)OCO2
REMARK SMILES IDX 4 1 2 2 1 3 3 4 5 5 6 6 7 7 11 8 8 9 10 10 9 11 12 12 14 13
REMARK SMILES IDX 13 14
REMARK H PARENT
REMARK Flexibility Score: inf
ROOT
ATOM      1  C   UNL     1       5.799   1.397  -0.342  1.00  0.00     0.080 C 
ENDROOT
BRANCH   1   2
ATOM      2  C   UNL     1       5.143   1.329   0.993  1.00  0.00     0.130 C 
ATOM      3  C   UNL     1       5.417   0.217   1.942  1.00  0.00     0.087 C 
ATOM      4  O   UNL     1       4.355   2.191   1.349  1.00  0.00    -0.300 OA
ENDBRANCH   1   2
BRANCH   1   5
ATOM      5  C   UNL     1       7.285   1.118  -0.240  1.00  0.00     0.043 C 
BRANCH   5   6
ATOM      6  C   UNL     1       7.641  -0.177  -0.847  1.00  0.00    -0.044 A 
ATOM      7  C   UNL     1       7.695  -0.346  -2.235  1.00  0.00     0.008 A 
ATOM      8  C   UNL     1       7.931  -1.253  -0.038  1.00  0.00     0.054 A 
ATOM      9  C   UNL     1       8.036  -1.585  -2.747  1.00  0.00     0.051 A 
ATOM     10  C   UNL     1       8.275  -2.503  -0.561  1.00  0.00     0.166 A 
ATOM     11  C   UNL     1       8.328  -2.670  -1.927  1.00  0.00     0.165 A 
ATOM     12  O   UNL     1       8.601  -3.708   0.023  1.00  0.00    -0.454 OA
ATOM     13  O   UNL     1       8.689  -3.988  -2.156  1.00  0.00    -0.454 OA
ATOM     14  C   UNL     1       8.961  -4.658  -0.948  1.00  0.00     0.468 C 
ENDBRANCH   5   6
ENDBRANCH   1   5
TORSDOF 3
ENDMDL
MODEL 5
REMARK VINA RESULT:      -7.4      1.812      2.799
REMARK SMILES CC(=O)CCc1ccc2c(c1)OCO2
REMARK SMILES IDX 4 1 2 2 1 3 3 4 5 5 6 6 7 7 11 8 8 9 10 10 9 11 12 12 14 13
REMARK SMILES IDX 13 14
REMARK H PARENT
REMARK Flexibility Score: inf
ROOT
ATOM      1  C   UNL     1       6.139   0.797   1.173  1.00  0.00     0.080 C 
ENDROOT
BRANCH   1   2
ATOM      2  C   UNL     1       5.007   1.745   0.978  1.00  0.00     0.130 C 
ATOM      3  C   UNL     1       4.929   2.633  -0.212  1.00  0.00     0.087 C 
ATOM      4  O   UNL     1       4.105   1.820   1.796  1.00  0.00    -0.300 OA
ENDBRANCH   1   2
BRANCH   1   5
ATOM      5  C   UNL     1       7.223   1.012   0.135  1.00  0.00     0.043 C 
BRANCH   5   6
ATOM      6  C   UNL     1       7.556  -0.236  -0.574  1.00  0.00    -0.044 A 
ATOM      7  C   UNL     1       7.507  -0.321  -1.970  1.00  0.00     0.008 A 
ATOM      8  C   UNL     1       7.927  -1.350   0.143  1.00  0.00     0.054 A 
ATOM      9  C   UNL     1       7.831  -1.518  -2.582  1.00  0.00     0.051 A 
ATOM     10  C   UNL     1       8.254  -2.559  -0.480  1.00  0.00     0.166 A 
ATOM     11  C   UNL     1       8.206  -2.643  -1.853  1.00  0.00     0.165 A 
ATOM     12  O   UNL     1       8.647  -3.789   0.004  1.00  0.00    -0.454 OA
ATOM     13  O   UNL     1       8.574  -3.937  -2.189  1.00  0.00    -0.454 OA
ATOM     14  C   UNL     1       8.950  -4.670  -1.047  1.00  0.00     0.468 C 
ENDBRANCH   5   6
ENDBRANCH   1   5
TORSDOF 3
ENDMDL
