MODEL 1
REMARK VINA RESULT:      -7.6      0.000      0.000
REMARK SMILES CC(=O)CCc1ccc2c(c1)OCO2
REMARK SMILES IDX 4 1 2 2 1 3 3 4 5 5 6 6 7 7 11 8 8 9 10 10 9 11 12 12 14 13
REMARK SMILES IDX 13 14
REMARK H PARENT
REMARK Flexibility Score: inf
ROOT
ATOM      1  C   UNL     1       5.459   2.895   0.332  1.00  0.00     0.080 C 
ENDROOT
BRANCH   1   2
ATOM      2  C   UNL     1       6.283   3.881   1.086  1.00  0.00     0.130 C 
ATOM      3  C   UNL     1       7.253   4.775   0.400  1.00  0.00     0.087 C 
ATOM      4  O   UNL     1       6.184   3.983   2.298  1.00  0.00    -0.300 OA
ENDBRANCH   1   2
BRANCH   1   5
ATOM      5  C   UNL     1       5.313   1.597   1.101  1.00  0.00     0.043 C 
BRANCH   5   6
ATOM      6  C   UNL     1       6.092   0.508   0.486  1.00  0.00    -0.044 A 
ATOM      7  C   UNL     1       6.435  -0.644   1.204  1.00  0.00     0.008 A 
ATOM      8  C   UNL     1       6.496   0.614  -0.826  1.00  0.00     0.054 A 
ATOM      9  C   UNL     1       7.167  -1.634   0.574  1.00  0.00     0.051 A 
ATOM     10  C   UNL     1       7.236  -0.390  -1.458  1.00  0.00     0.166 A 
ATOM     11  C   UNL     1       7.574  -1.523  -0.752  1.00  0.00     0.165 A 
ATOM     12  O   UNL     1       7.749  -0.519  -2.731  1.00  0.00    -0.454 OA
ATOM     13  O   UNL     1       8.294  -2.333  -1.616  1.00  0.00    -0.454 OA
ATOM     14  C   UNL     1       8.351  -1.776  -2.907  1.00  0.00     0.468 C 
ENDBRANCH   5   6
ENDBRANCH   1   5
TORSDOF 3
ENDMDL
MODEL 2
REMARK VINA RESULT:      -7.5      1.920      2.679
REMARK SMILES CC(=O)CCc1ccc2c(c1)OCO2
REMARK SMILES IDX 4 1 2 2 1 3 3 4 5 5 6 6 7 7 11 8 8 9 10 10 9 11 12 12 14 13
REMARK SMILES IDX 13 14
REMARK H PARENT
REMARK Flexibility Score: inf
ROOT
ATOM      1  C   UNL     1       5.533   1.906   1.274  1.00  0.00     0.080 C 
ENDROOT
BRANCH   1   2
ATOM      2  C   UNL     1       5.089   0.686   2.005  1.00  0.00     0.130 C 
ATOM      3  C   UNL     1       5.984  -0.490   2.176  1.00  0.00     0.087 C 
ATOM      4  O   UNL     1       3.970   0.617   2.487  1.00  0.00    -0.300 OA
ENDBRANCH   1   2
BRANCH   1   5
ATOM      5  C   UNL     1       5.406   1.726  -0.226  1.00  0.00     0.043 C 
BRANCH   5   6
ATOM      6  C   UNL     1       6.572   1.024  -0.792  1.00  0.00    -0.044 A 
ATOM      7  C   UNL     1       7.880   1.460  -0.549  1.00  0.00     0.008 A 
ATOM      8  C   UNL     1       6.382  -0.090  -1.578  1.00  0.00     0.054 A 
ATOM      9  C   UNL     1       8.935   0.761  -1.107  1.00  0.00     0.051 A 
ATOM     10  C   UNL     1       7.452  -0.794  -2.139  1.00  0.00     0.166 A 
ATOM     11  C   UNL     1       8.739  -0.365  -1.902  1.00  0.00     0.165 A 
ATOM     12  O   UNL     1       7.523  -1.911  -2.943  1.00  0.00    -0.454 OA
ATOM     13  O   UNL     1       9.582  -1.237  -2.571  1.00  0.00    -0.454 OA
ATOM     14  C   UNL     1       8.858  -2.286  -3.169  1.00  0.00     0.468 C 
ENDBRANCH   5   6
ENDBRANCH   1   5
TORSDOF 3
ENDMDL
MODEL 3
REMARK VINA RESULT:      -7.4      1.104      1.547
REMARK SMILES CC(=O)CCc1ccc2c(c1)OCO2
REMARK SMILES IDX 4 1 2 2 1 3 3 4 5 5 6 6 7 7 11 8 8 9 10 10 9 11 12 12 14 13
REMARK SMILES IDX 13 14
REMARK H PARENT
REMARK Flexibility Score: inf
ROOT
ATOM      1  C   UNL     1       5.446   2.919   0.267  1.00  0.00     0.080 C 
ENDROOT
BRANCH   1   2
ATOM      2  C   UNL     1       6.262   3.872   1.069  1.00  0.00     0.130 C 
ATOM      3  C   UNL     1       7.258   4.775   0.432  1.00  0.00     0.087 C 
ATOM      4  O   UNL     1       6.136   3.940   2.281  1.00  0.00    -0.300 OA
ENDBRANCH   1   2
BRANCH   1   5
ATOM      5  C   UNL     1       5.714   1.484   0.678  1.00  0.00     0.043 C 
BRANCH   5   6
ATOM      6  C   UNL     1       6.745   0.857  -0.168  1.00  0.00    -0.044 A 
ATOM      7  C   UNL     1       8.022   1.414  -0.302  1.00  0.00     0.008 A 
ATOM      8  C   UNL     1       6.456  -0.305  -0.847  1.00  0.00     0.054 A 
ATOM      9  C   UNL     1       8.949   0.781  -1.109  1.00  0.00     0.051 A 
ATOM     10  C   UNL     1       7.397  -0.942  -1.661  1.00  0.00     0.166 A 
ATOM     11  C   UNL     1       8.654  -0.394  -1.794  1.00  0.00     0.165 A 
ATOM     12  O   UNL     1       7.355  -2.087  -2.428  1.00  0.00    -0.454 OA
ATOM     13  O   UNL     1       9.365  -1.224  -2.647  1.00  0.00    -0.454 OA
ATOM     14  C   UNL     1       8.609  -2.357  -3.000  1.00  0.00     0.468 C 
ENDBRANCH   5   6
ENDBRANCH   1   5
TORSDOF 3
ENDMDL
MODEL 4
REMARK VINA RESULT:      -7.3      0.954      1.802
REMARK SMILES CC(=O)CCc1ccc2c(c1)OCO2
REMARK SMILES IDX 4 1 2 2 1 3 3 4 5 5 6 6 7 7 11 8 8 9 10 10 9 11 12 12 14 13
REMARK SMILES IDX 13 14
REMARK H PARENT
REMARK Flexibility Score: inf
ROOT
ATOM      1  C   UNL     1       5.700   2.499   0.640  1.00  0.00     0.080 C 
ENDROOT
BRANCH   1   2
ATOM      2  C   UNL     1       6.335   3.745   1.154  1.00  0.00     0.130 C 
ATOM      3  C   UNL     1       7.116   4.646   0.266  1.00  0.00     0.087 C 
ATOM      4  O   UNL     1       6.232   4.062   2.328  1.00  0.00    -0.300 OA
ENDBRANCH   1   2
BRANCH   1   5
ATOM      5  C   UNL     1       6.362   1.264   1.219  1.00  0.00     0.043 C 
BRANCH   5   6
ATOM      6  C   UNL     1       6.753   0.310   0.167  1.00  0.00    -0.044 A 
ATOM      7  C   UNL     1       6.484   0.557  -1.184  1.00  0.00     0.008 A 
ATOM      8  C   UNL     1       7.401  -0.855   0.509  1.00  0.00     0.054 A 
ATOM      9  C   UNL     1       6.875  -0.375  -2.128  1.00  0.00     0.051 A 
ATOM     10  C   UNL     1       7.796  -1.794  -0.449  1.00  0.00     0.166 A 
ATOM     11  C   UNL     1       7.530  -1.552  -1.779  1.00  0.00     0.165 A 
ATOM     12  O   UNL     1       8.443  -3.008  -0.364  1.00  0.00    -0.454 OA
ATOM     13  O   UNL     1       8.025  -2.633  -2.490  1.00  0.00    -0.454 OA
ATOM     14  C   UNL     1       8.693  -3.537  -1.641  1.00  0.00     0.468 C 
ENDBRANCH   5   6
ENDBRANCH   1   5
TORSDOF 3
ENDMDL
MODEL 5
REMARK VINA RESULT:      -7.3      1.183      2.162
REMARK SMILES CC(=O)CCc1ccc2c(c1)OCO2
REMARK SMILES IDX 4 1 2 2 1 3 3 4 5 5 6 6 7 7 11 8 8 9 10 10 9 11 12 12 14 13
REMARK SMILES IDX 13 14
REMARK H PARENT
REMARK Flexibility Score: inf
ROOT
ATOM      1  C   UNL     1       5.310   2.373   0.882  1.00  0.00     0.080 C 
ENDROOT
BRANCH   1   2
ATOM      2  C   UNL     1       6.218   3.510   1.203  1.00  0.00     0.130 C 
ATOM      3  C   UNL     1       6.884   4.302   0.135  1.00  0.00     0.087 C 
ATOM      4  O   UNL     1       6.443   3.825   2.360  1.00  0.00    -0.300 OA
ENDBRANCH   1   2
BRANCH   1   5
ATOM      5  C   UNL     1       5.452   1.946  -0.565  1.00  0.00     0.043 C 
BRANCH   5   6
ATOM      6  C   UNL     1       6.224   0.697  -0.694  1.00  0.00    -0.044 A 
ATOM      7  C   UNL     1       6.729   0.271  -1.928  1.00  0.00     0.008 A 
ATOM      8  C   UNL     1       6.462  -0.075   0.420  1.00  0.00     0.054 A 
ATOM      9  C   UNL     1       7.447  -0.909  -1.988  1.00  0.00     0.051 A 
ATOM     10  C   UNL     1       7.190  -1.267   0.354  1.00  0.00     0.166 A 
ATOM     11  C   UNL     1       7.685  -1.688  -0.860  1.00  0.00     0.165 A 
ATOM     12  O   UNL     1       7.555  -2.199   1.303  1.00  0.00    -0.454 OA
ATOM     13  O   UNL     1       8.353  -2.880  -0.628  1.00  0.00    -0.454 OA
ATOM     14  C   UNL     1       8.373  -3.194   0.744  1.00  0.00     0.468 C 
ENDBRANCH   5   6
ENDBRANCH   1   5
TORSDOF 3
ENDMDL
