@<TRIPOS>MOLECULE
/home/cewinharhar/GITHUB/reincatalyze/data/processed/docking_pred/2023-May-22-1902_sub9_nm5_bs15_s42_ex16_mel10_mts1000_k50_ec02_g099_lra9e-4_lrc1e-3/2037f81c995398ea407fbfc0a5ecaefc5001139a_ligand_9.pdbqt
 14 15 0 0 0
SMALL
GASTEIGER

@<TRIPOS>ATOM
      1  C          5.4590    2.8950    0.3320 C.3     1  UNL1        0.0800
      2  C          6.2830    3.8810    1.0860 C.2     1  UNL1        0.1300
      3  C          7.2530    4.7750    0.4000 C.3     1  UNL1        0.0870
      4  O          6.1840    3.9830    2.2980 O.2     1  UNL1       -0.3000
      5  C          5.3130    1.5970    1.1010 C.3     1  UNL1        0.0430
      6  C          6.0920    0.5080    0.4860 C.2     1  UNL1       -0.0440
      7  C          6.4350   -0.6440    1.2040 C.2     1  UNL1        0.0080
      8  C          6.4960    0.6140   -0.8260 C.2     1  UNL1        0.0540
      9  C          7.1670   -1.6340    0.5740 C.2     1  UNL1        0.0510
     10  C          7.2360   -0.3900   -1.4580 C.2     1  UNL1        0.1660
     11  C          7.5740   -1.5230   -0.7520 C.2     1  UNL1        0.1650
     12  O          7.7490   -0.5190   -2.7310 O.2     1  UNL1       -0.4540
     13  O          8.2940   -2.3330   -1.6160 O.2     1  UNL1       -0.4540
     14  C          8.3510   -1.7760   -2.9070 C.3     1  UNL1        0.4680
@<TRIPOS>BOND
     1    14    12    1
     2    14    13    1
     3    12    10    1
     4    13    11    1
     5    10     8    1
     6    10    11    2
     7     8     6    2
     8    11     9    1
     9     1     2    1
    10     1     5    1
    11     3     2    1
    12     6     5    1
    13     6     7    1
    14     9     7    2
    15     2     4    2
