@<TRIPOS>MOLECULE
/home/cewinharhar/GITHUB/reincatalyze/data/processed/docking_pred/2023-May-22-1902_sub9_nm5_bs15_s42_ex16_mel10_mts1000_k50_ec02_g099_lra9e-4_lrc1e-3/21195065f8807259401ec3420f3b6dd683f2acc0_ligand_9.pdbqt
 14 15 0 0 0
SMALL
GASTEIGER

@<TRIPOS>ATOM
      1  C          5.3920    2.9140    0.2190 C.3     1  UNL1        0.0800
      2  C          6.3570    3.6910    1.0450 C.2     1  UNL1        0.1300
      3  C          7.1920    4.7730    0.4590 C.3     1  UNL1        0.0870
      4  O          6.4910    3.4590    2.2360 O.2     1  UNL1       -0.3000
      5  C          5.0730    1.5760    0.8570 C.3     1  UNL1        0.0430
      6  C          5.9300    0.5000    0.3270 C.2     1  UNL1       -0.0440
      7  C          6.3020   -0.5960    1.1140 C.2     1  UNL1        0.0080
      8  C          6.3800    0.5630   -0.9720 C.2     1  UNL1        0.0540
      9  C          7.1070   -1.5760    0.5630 C.2     1  UNL1        0.0510
     10  C          7.1940   -0.4300   -1.5250 C.2     1  UNL1        0.1660
     11  C          7.5610   -1.5080   -0.7510 C.2     1  UNL1        0.1650
     12  O          7.7620   -0.5940   -2.7700 O.2     1  UNL1       -0.4540
     13  O          8.3540   -2.3200   -1.5450 O.2     1  UNL1       -0.4540
     14  C          8.4340   -1.8240   -2.8600 C.3     1  UNL1        0.4680
@<TRIPOS>BOND
     1    14    12    1
     2    14    13    1
     3    12    10    1
     4    13    11    1
     5    10     8    1
     6    10    11    2
     7     8     6    2
     8    11     9    1
     9     1     5    1
    10     1     2    1
    11     6     5    1
    12     6     7    1
    13     3     2    1
    14     9     7    2
    15     2     4    2
