@<TRIPOS>MOLECULE
/home/cewinharhar/GITHUB/reincatalyze/data/processed/docking_pred/2023-May-22-1902_sub9_nm5_bs15_s42_ex16_mel10_mts1000_k50_ec02_g099_lra9e-4_lrc1e-3/21195065f8807259401ec3420f3b6dd683f2acc0_ligand_9.pdbqt
 14 15 0 0 0
SMALL
GASTEIGER

@<TRIPOS>ATOM
      1  C          5.7790    1.3820   -0.3450 C.3     1  UNL1        0.0800
      2  C          5.1230    1.3160    0.9900 C.2     1  UNL1        0.1300
      3  C          5.3810    0.1940    1.9330 C.3     1  UNL1        0.0870
      4  O          4.3480    2.1860    1.3520 O.2     1  UNL1       -0.3000
      5  C          7.2610    1.0800   -0.2460 C.3     1  UNL1        0.0430
      6  C          7.5970   -0.2170   -0.8590 C.2     1  UNL1       -0.0440
      7  C          7.5840   -0.3980   -2.2460 C.2     1  UNL1        0.0080
      8  C          7.9350   -1.2840   -0.0570 C.2     1  UNL1        0.0540
      9  C          7.9090   -1.6380   -2.7650 C.2     1  UNL1        0.0510
     10  C          8.2630   -2.5350   -0.5860 C.2     1  UNL1        0.1660
     11  C          8.2500   -2.7140   -1.9510 C.2     1  UNL1        0.1650
     12  O          8.6270   -3.7330   -0.0090 O.2     1  UNL1       -0.4540
     13  O          8.6110   -4.0310   -2.1870 O.2     1  UNL1       -0.4540
     14  C          8.9470   -4.6880   -0.9880 C.3     1  UNL1        0.4680
@<TRIPOS>BOND
     1     9     7    1
     2     9    11    2
     3     7     6    2
     4    13    11    1
     5    13    14    1
     6    11    10    1
     7    14    12    1
     8     6     5    1
     9     6     8    1
    10    10     8    2
    11    10    12    1
    12     1     5    1
    13     1     2    1
    14     2     4    2
    15     2     3    1
