@<TRIPOS>MOLECULE
/home/cewinharhar/GITHUB/reincatalyze/data/processed/docking_pred/2023-May-22-1902_sub9_nm5_bs15_s42_ex16_mel10_mts1000_k50_ec02_g099_lra9e-4_lrc1e-3/22478e644e92021fed45641255b53d2cc77f0790_ligand_9.pdbqt
 14 15 0 0 0
SMALL
GASTEIGER

@<TRIPOS>ATOM
      1  C          5.3600    3.0070    0.1580 C.3     1  UNL1        0.0800
      2  C          6.2820    3.8490    0.9690 C.2     1  UNL1        0.1300
      3  C          7.2630    4.7680    0.3320 C.3     1  UNL1        0.0870
      4  O          6.2590    3.8080    2.1880 O.2     1  UNL1       -0.3000
      5  C          5.0910    1.6770    0.8340 C.3     1  UNL1        0.0430
      6  C          5.9450    0.6050    0.2900 C.2     1  UNL1       -0.0440
      7  C          6.3410    0.5940   -1.0530 C.2     1  UNL1        0.0080
      8  C          6.3700   -0.4120    1.1130 C.2     1  UNL1        0.0540
      9  C          7.1430   -0.4370   -1.5070 C.2     1  UNL1        0.0510
     10  C          7.1810   -1.4520    0.6490 C.2     1  UNL1        0.1660
     11  C          7.5700   -1.4650   -0.6720 C.2     1  UNL1        0.1650
     12  O          7.7270   -2.5620    1.2590 O.2     1  UNL1       -0.4540
     13  O          8.3560   -2.5930   -0.8470 O.2     1  UNL1       -0.4540
     14  C          8.5560   -3.2680    0.3720 C.3     1  UNL1        0.4680
@<TRIPOS>BOND
     1     9     7    1
     2     9    11    2
     3     7     6    2
     4    13    11    1
     5    13    14    1
     6    11    10    1
     7     1     5    1
     8     1     2    1
     9     6     5    1
    10     6     8    1
    11     3     2    1
    12    14    12    1
    13    10     8    2
    14    10    12    1
    15     2     4    2
