@<TRIPOS>MOLECULE
/home/cewinharhar/GITHUB/reincatalyze/data/processed/docking_pred/2023-May-22-1902_sub9_nm5_bs15_s42_ex16_mel10_mts1000_k50_ec02_g099_lra9e-4_lrc1e-3/22478e644e92021fed45641255b53d2cc77f0790_ligand_9.pdbqt
 14 15 0 0 0
SMALL
GASTEIGER

@<TRIPOS>ATOM
      1  C          5.5120    1.9260    1.2640 C.3     1  UNL1        0.0800
      2  C          5.0720    0.7090    2.0010 C.2     1  UNL1        0.1300
      3  C          5.9630   -0.4700    2.1640 C.3     1  UNL1        0.0870
      4  O          3.9580    0.6440    2.4950 O.2     1  UNL1       -0.3000
      5  C          5.3890    1.7370   -0.2350 C.3     1  UNL1        0.0430
      6  C          6.5580    1.0340   -0.7940 C.2     1  UNL1       -0.0440
      7  C          7.8640    1.4660   -0.5400 C.2     1  UNL1        0.0080
      8  C          6.3710   -0.0770   -1.5850 C.2     1  UNL1        0.0540
      9  C          8.9220    0.7670   -1.0910 C.2     1  UNL1        0.0510
     10  C          7.4440   -0.7810   -2.1400 C.2     1  UNL1        0.1660
     11  C          8.7300   -0.3560   -1.8910 C.2     1  UNL1        0.1650
     12  O          7.5190   -1.8970   -2.9470 O.2     1  UNL1       -0.4540
     13  O          9.5770   -1.2280   -2.5560 O.2     1  UNL1       -0.4540
     14  C          8.8550   -2.2730   -3.1640 C.3     1  UNL1        0.4680
@<TRIPOS>BOND
     1    14    12    1
     2    14    13    1
     3    12    10    1
     4    13    11    1
     5    10    11    2
     6    10     8    1
     7    11     9    1
     8     8     6    2
     9     9     7    2
    10     6     7    1
    11     6     5    1
    12     5     1    1
    13     1     2    1
    14     2     3    1
    15     2     4    2
