@<TRIPOS>MOLECULE
/home/cewinharhar/GITHUB/reincatalyze/data/processed/docking_pred/2023-May-22-1902_sub9_nm5_bs15_s42_ex16_mel10_mts1000_k50_ec02_g099_lra9e-4_lrc1e-3/22478e644e92021fed45641255b53d2cc77f0790_ligand_9.pdbqt
 14 15 0 0 0
SMALL
GASTEIGER

@<TRIPOS>ATOM
      1  C          6.2890    0.8940    1.1480 C.3     1  UNL1        0.0800
      2  C          5.0700    1.7290    0.9570 C.2     1  UNL1        0.1300
      3  C          4.8890    2.5830   -0.2470 C.3     1  UNL1        0.0870
      4  O          4.1780    1.7350    1.7910 O.2     1  UNL1       -0.3000
      5  C          7.2700    1.0840    0.0080 C.3     1  UNL1        0.0430
      6  C          7.5850   -0.1920   -0.6600 C.2     1  UNL1       -0.0440
      7  C          7.5300   -0.3240   -2.0520 C.2     1  UNL1        0.0080
      8  C          7.9450   -1.2850    0.0940 C.2     1  UNL1        0.0540
      9  C          7.8380   -1.5450   -2.6230 C.2     1  UNL1        0.0510
     10  C          8.2560   -2.5180   -0.4880 C.2     1  UNL1        0.1660
     11  C          8.2010   -2.6490   -1.8580 C.2     1  UNL1        0.1650
     12  O          8.6350   -3.7350    0.0360 O.2     1  UNL1       -0.4540
     13  O          8.5530   -3.9580   -2.1500 O.2     1  UNL1       -0.4540
     14  C          8.9240   -4.6560   -0.9850 C.3     1  UNL1        0.4680
@<TRIPOS>BOND
     1     9     7    1
     2     9    11    2
     3    13    11    1
     4    13    14    1
     5     7     6    2
     6    11    10    1
     7    14    12    1
     8     6     5    1
     9     6     8    1
    10    10    12    1
    11    10     8    2
    12     3     2    1
    13     5     1    1
    14     2     1    1
    15     2     4    2
