MODEL 1
REMARK VINA RESULT:      -7.9      0.000      0.000
REMARK SMILES CC(=O)CCc1ccc2c(c1)OCO2
REMARK SMILES IDX 4 1 2 2 1 3 3 4 5 5 6 6 7 7 11 8 8 9 10 10 9 11 12 12 14 13
REMARK SMILES IDX 13 14
REMARK H PARENT
REMARK Flexibility Score: inf
ROOT
ATOM      1  C   UNL     1       5.468   2.925   0.103  1.00  0.00     0.080 C 
ENDROOT
BRANCH   1   2
ATOM      2  C   UNL     1       6.302   3.827   0.944  1.00  0.00     0.130 C 
ATOM      3  C   UNL     1       7.278   4.775   0.343  1.00  0.00     0.087 C 
ATOM      4  O   UNL     1       6.207   3.815   2.161  1.00  0.00    -0.300 OA
ENDBRANCH   1   2
BRANCH   1   5
ATOM      5  C   UNL     1       5.215   1.602   0.798  1.00  0.00     0.043 C 
BRANCH   5   6
ATOM      6  C   UNL     1       6.055   0.524   0.245  1.00  0.00    -0.044 A 
ATOM      7  C   UNL     1       6.375  -0.614   0.994  1.00  0.00     0.008 A 
ATOM      8  C   UNL     1       6.539   0.628  -1.040  1.00  0.00     0.054 A 
ATOM      9  C   UNL     1       7.166  -1.593   0.422  1.00  0.00     0.051 A 
ATOM     10  C   UNL     1       7.338  -0.366  -1.614  1.00  0.00     0.166 A 
ATOM     11  C   UNL     1       7.654  -1.485  -0.877  1.00  0.00     0.165 A 
ATOM     12  O   UNL     1       7.933  -0.495  -2.851  1.00  0.00    -0.454 OA
ATOM     13  O   UNL     1       8.445  -2.287  -1.685  1.00  0.00    -0.454 OA
ATOM     14  C   UNL     1       8.571  -1.739  -2.976  1.00  0.00     0.468 C 
ENDBRANCH   5   6
ENDBRANCH   1   5
TORSDOF 3
ENDMDL
MODEL 2
REMARK VINA RESULT:      -7.8      1.057      2.043
REMARK SMILES CC(=O)CCc1ccc2c(c1)OCO2
REMARK SMILES IDX 4 1 2 2 1 3 3 4 5 5 6 6 7 7 11 8 8 9 10 10 9 11 12 12 14 13
REMARK SMILES IDX 13 14
REMARK H PARENT
REMARK Flexibility Score: inf
ROOT
ATOM      1  C   UNL     1       5.360   3.007   0.158  1.00  0.00     0.080 C 
ENDROOT
BRANCH   1   2
ATOM      2  C   UNL     1       6.282   3.849   0.969  1.00  0.00     0.130 C 
ATOM      3  C   UNL     1       7.263   4.768   0.332  1.00  0.00     0.087 C 
ATOM      4  O   UNL     1       6.259   3.808   2.188  1.00  0.00    -0.300 OA
ENDBRANCH   1   2
BRANCH   1   5
ATOM      5  C   UNL     1       5.091   1.677   0.834  1.00  0.00     0.043 C 
BRANCH   5   6
ATOM      6  C   UNL     1       5.945   0.605   0.290  1.00  0.00    -0.044 A 
ATOM      7  C   UNL     1       6.341   0.594  -1.053  1.00  0.00     0.008 A 
ATOM      8  C   UNL     1       6.370  -0.412   1.113  1.00  0.00     0.054 A 
ATOM      9  C   UNL     1       7.143  -0.437  -1.507  1.00  0.00     0.051 A 
ATOM     10  C   UNL     1       7.181  -1.452   0.649  1.00  0.00     0.166 A 
ATOM     11  C   UNL     1       7.570  -1.465  -0.672  1.00  0.00     0.165 A 
ATOM     12  O   UNL     1       7.727  -2.562   1.259  1.00  0.00    -0.454 OA
ATOM     13  O   UNL     1       8.356  -2.593  -0.847  1.00  0.00    -0.454 OA
ATOM     14  C   UNL     1       8.556  -3.268   0.372  1.00  0.00     0.468 C 
ENDBRANCH   5   6
ENDBRANCH   1   5
TORSDOF 3
ENDMDL
MODEL 3
REMARK VINA RESULT:      -7.6      1.898      2.612
REMARK SMILES CC(=O)CCc1ccc2c(c1)OCO2
REMARK SMILES IDX 4 1 2 2 1 3 3 4 5 5 6 6 7 7 11 8 8 9 10 10 9 11 12 12 14 13
REMARK SMILES IDX 13 14
REMARK H PARENT
REMARK Flexibility Score: inf
ROOT
ATOM      1  C   UNL     1       5.512   1.926   1.264  1.00  0.00     0.080 C 
ENDROOT
BRANCH   1   2
ATOM      2  C   UNL     1       5.072   0.709   2.001  1.00  0.00     0.130 C 
ATOM      3  C   UNL     1       5.963  -0.470   2.164  1.00  0.00     0.087 C 
ATOM      4  O   UNL     1       3.958   0.644   2.495  1.00  0.00    -0.300 OA
ENDBRANCH   1   2
BRANCH   1   5
ATOM      5  C   UNL     1       5.389   1.737  -0.235  1.00  0.00     0.043 C 
BRANCH   5   6
ATOM      6  C   UNL     1       6.558   1.034  -0.794  1.00  0.00    -0.044 A 
ATOM      7  C   UNL     1       7.864   1.466  -0.540  1.00  0.00     0.008 A 
ATOM      8  C   UNL     1       6.371  -0.077  -1.585  1.00  0.00     0.054 A 
ATOM      9  C   UNL     1       8.922   0.767  -1.091  1.00  0.00     0.051 A 
ATOM     10  C   UNL     1       7.444  -0.781  -2.140  1.00  0.00     0.166 A 
ATOM     11  C   UNL     1       8.730  -0.356  -1.891  1.00  0.00     0.165 A 
ATOM     12  O   UNL     1       7.519  -1.897  -2.947  1.00  0.00    -0.454 OA
ATOM     13  O   UNL     1       9.577  -1.228  -2.556  1.00  0.00    -0.454 OA
ATOM     14  C   UNL     1       8.855  -2.273  -3.164  1.00  0.00     0.468 C 
ENDBRANCH   5   6
ENDBRANCH   1   5
TORSDOF 3
ENDMDL
MODEL 4
REMARK VINA RESULT:      -7.5      1.990      3.026
REMARK SMILES CC(=O)CCc1ccc2c(c1)OCO2
REMARK SMILES IDX 4 1 2 2 1 3 3 4 5 5 6 6 7 7 11 8 8 9 10 10 9 11 12 12 14 13
REMARK SMILES IDX 13 14
REMARK H PARENT
REMARK Flexibility Score: inf
ROOT
ATOM      1  C   UNL     1       5.794   1.375  -0.362  1.00  0.00     0.080 C 
ENDROOT
BRANCH   1   2
ATOM      2  C   UNL     1       5.147   1.330   0.979  1.00  0.00     0.130 C 
ATOM      3  C   UNL     1       5.401   0.215   1.930  1.00  0.00     0.087 C 
ATOM      4  O   UNL     1       4.385   2.213   1.337  1.00  0.00    -0.300 OA
ENDBRANCH   1   2
BRANCH   1   5
ATOM      5  C   UNL     1       7.278   1.080  -0.268  1.00  0.00     0.043 C 
BRANCH   5   6
ATOM      6  C   UNL     1       7.617  -0.217  -0.879  1.00  0.00    -0.044 A 
ATOM      7  C   UNL     1       7.629  -0.393  -2.268  1.00  0.00     0.008 A 
ATOM      8  C   UNL     1       7.933  -1.289  -0.075  1.00  0.00     0.054 A 
ATOM      9  C   UNL     1       7.956  -1.634  -2.784  1.00  0.00     0.051 A 
ATOM     10  C   UNL     1       8.263  -2.541  -0.602  1.00  0.00     0.166 A 
ATOM     11  C   UNL     1       8.274  -2.715  -1.968  1.00  0.00     0.165 A 
ATOM     12  O   UNL     1       8.608  -3.743  -0.022  1.00  0.00    -0.454 OA
ATOM     13  O   UNL     1       8.631  -4.034  -2.201  1.00  0.00    -0.454 OA
ATOM     14  C   UNL     1       8.940  -4.697  -0.998  1.00  0.00     0.468 C 
ENDBRANCH   5   6
ENDBRANCH   1   5
TORSDOF 3
ENDMDL
MODEL 5
REMARK VINA RESULT:      -7.5      1.869      2.824
REMARK SMILES CC(=O)CCc1ccc2c(c1)OCO2
REMARK SMILES IDX 4 1 2 2 1 3 3 4 5 5 6 6 7 7 11 8 8 9 10 10 9 11 12 12 14 13
REMARK SMILES IDX 13 14
REMARK H PARENT
REMARK Flexibility Score: inf
ROOT
ATOM      1  C   UNL     1       6.289   0.894   1.148  1.00  0.00     0.080 C 
ENDROOT
BRANCH   1   2
ATOM      2  C   UNL     1       5.070   1.729   0.957  1.00  0.00     0.130 C 
ATOM      3  C   UNL     1       4.889   2.583  -0.247  1.00  0.00     0.087 C 
ATOM      4  O   UNL     1       4.178   1.735   1.791  1.00  0.00    -0.300 OA
ENDBRANCH   1   2
BRANCH   1   5
ATOM      5  C   UNL     1       7.270   1.084   0.008  1.00  0.00     0.043 C 
BRANCH   5   6
ATOM      6  C   UNL     1       7.585  -0.192  -0.660  1.00  0.00    -0.044 A 
ATOM      7  C   UNL     1       7.530  -0.324  -2.052  1.00  0.00     0.008 A 
ATOM      8  C   UNL     1       7.945  -1.285   0.094  1.00  0.00     0.054 A 
ATOM      9  C   UNL     1       7.838  -1.545  -2.623  1.00  0.00     0.051 A 
ATOM     10  C   UNL     1       8.256  -2.518  -0.488  1.00  0.00     0.166 A 
ATOM     11  C   UNL     1       8.201  -2.649  -1.858  1.00  0.00     0.165 A 
ATOM     12  O   UNL     1       8.635  -3.735   0.036  1.00  0.00    -0.454 OA
ATOM     13  O   UNL     1       8.553  -3.958  -2.150  1.00  0.00    -0.454 OA
ATOM     14  C   UNL     1       8.924  -4.656  -0.985  1.00  0.00     0.468 C 
ENDBRANCH   5   6
ENDBRANCH   1   5
TORSDOF 3
ENDMDL
