@<TRIPOS>MOLECULE
/home/cewinharhar/GITHUB/reincatalyze/data/processed/docking_pred/2023-May-22-1902_sub9_nm5_bs15_s42_ex16_mel10_mts1000_k50_ec02_g099_lra9e-4_lrc1e-3/22478e644e92021fed45641255b53d2cc77f0790_ligand_9.pdbqt
 14 15 0 0 0
SMALL
GASTEIGER

@<TRIPOS>ATOM
      1  C          5.7940    1.3750   -0.3620 C.3     1  UNL1        0.0800
      2  C          5.1470    1.3300    0.9790 C.2     1  UNL1        0.1300
      3  C          5.4010    0.2150    1.9300 C.3     1  UNL1        0.0870
      4  O          4.3850    2.2130    1.3370 O.2     1  UNL1       -0.3000
      5  C          7.2780    1.0800   -0.2680 C.3     1  UNL1        0.0430
      6  C          7.6170   -0.2170   -0.8790 C.2     1  UNL1       -0.0440
      7  C          7.6290   -0.3930   -2.2680 C.2     1  UNL1        0.0080
      8  C          7.9330   -1.2890   -0.0750 C.2     1  UNL1        0.0540
      9  C          7.9560   -1.6340   -2.7840 C.2     1  UNL1        0.0510
     10  C          8.2630   -2.5410   -0.6020 C.2     1  UNL1        0.1660
     11  C          8.2740   -2.7150   -1.9680 C.2     1  UNL1        0.1650
     12  O          8.6080   -3.7430   -0.0220 O.2     1  UNL1       -0.4540
     13  O          8.6310   -4.0340   -2.2010 O.2     1  UNL1       -0.4540
     14  C          8.9400   -4.6970   -0.9980 C.3     1  UNL1        0.4680
@<TRIPOS>BOND
     1     9     7    1
     2     9    11    2
     3     7     6    2
     4    13    11    1
     5    13    14    1
     6    11    10    1
     7    14    12    1
     8     6     5    1
     9     6     8    1
    10    10     8    2
    11    10    12    1
    12     1     5    1
    13     1     2    1
    14     2     4    2
    15     2     3    1
