@<TRIPOS>MOLECULE
/home/cewinharhar/GITHUB/reincatalyze/data/processed/docking_pred/2023-May-22-1902_sub9_nm5_bs15_s42_ex16_mel10_mts1000_k50_ec02_g099_lra9e-4_lrc1e-3/225d7738cc918e3754e3779366d54ccb252183f1_ligand_9.pdbqt
 14 15 0 0 0
SMALL
GASTEIGER

@<TRIPOS>ATOM
      1  C          5.3730    1.5520    0.6020 C.3     1  UNL1        0.0800
      2  C          5.0860    0.5710    1.6850 C.2     1  UNL1        0.1300
      3  C          5.8260   -0.7150    1.7890 C.3     1  UNL1        0.0870
      4  O          4.2280    0.7950    2.5230 O.2     1  UNL1       -0.3000
      5  C          6.4710    2.5150    1.0090 C.3     1  UNL1        0.0430
      6  C          7.8030    1.8900    0.9280 C.2     1  UNL1       -0.0440
      7  C          8.2910    1.3550   -0.2700 C.2     1  UNL1        0.0080
      8  C          8.5960    1.8260    2.0510 C.2     1  UNL1        0.0540
      9  C          9.5490    0.7820   -0.2860 C.2     1  UNL1        0.0510
     10  C          9.8680    1.2460    2.0300 C.2     1  UNL1        0.1660
     11  C         10.3480    0.7190    0.8520 C.2     1  UNL1        0.1650
     12  O         10.8340    1.0630    2.9970 O.2     1  UNL1       -0.4540
     13  O         11.6120    0.2190    1.1220 O.2     1  UNL1       -0.4540
     14  C         11.9960    0.4970    2.4480 C.3     1  UNL1        0.4680
@<TRIPOS>BOND
     1     9     7    1
     2     9    11    2
     3     7     6    2
     4     1     5    1
     5     1     2    1
     6    11    13    1
     7    11    10    1
     8     6     5    1
     9     6     8    1
    10    13    14    1
    11     2     3    1
    12     2     4    2
    13    10     8    2
    14    10    12    1
    15    14    12    1
