@<TRIPOS>MOLECULE
/home/cewinharhar/GITHUB/reincatalyze/data/processed/docking_pred/2023-May-22-1902_sub9_nm5_bs15_s42_ex16_mel10_mts1000_k50_ec02_g099_lra9e-4_lrc1e-3/225d7738cc918e3754e3779366d54ccb252183f1_ligand_9.pdbqt
 14 15 0 0 0
SMALL
GASTEIGER

@<TRIPOS>ATOM
      1  C          7.0790   -1.4000   -0.9100 C.3     1  UNL1        0.0800
      2  C          7.6430   -1.6640    0.4430 C.2     1  UNL1        0.1300
      3  C          6.7730   -1.7700    1.6450 C.3     1  UNL1        0.0870
      4  O          8.8450   -1.8010    0.6060 O.2     1  UNL1       -0.3000
      5  C          7.5330   -0.0550   -1.4420 C.3     1  UNL1        0.0430
      6  C          7.0080    1.0590   -0.6320 C.2     1  UNL1       -0.0440
      7  C          5.6410    1.3530   -0.5880 C.2     1  UNL1        0.0080
      8  C          7.8750    1.8340    0.1040 C.2     1  UNL1        0.0540
      9  C          5.2060    2.4100    0.1900 C.2     1  UNL1        0.0510
     10  C          7.4310    2.9020    0.8900 C.2     1  UNL1        0.1660
     11  C          6.0850    3.1920    0.9330 C.2     1  UNL1        0.1650
     12  O          8.0820    3.8080    1.6990 O.2     1  UNL1       -0.4540
     13  O          5.9370    4.2810    1.7780 O.2     1  UNL1       -0.4540
     14  C          7.1670    4.6460    2.3560 C.3     1  UNL1        0.4680
@<TRIPOS>BOND
     1     5     1    1
     2     5     6    1
     3     1     2    1
     4     6     7    2
     5     6     8    1
     6     7     9    1
     7     8    10    2
     8     9    11    2
     9     2     4    2
    10     2     3    1
    11    10    11    1
    12    10    12    1
    13    11    13    1
    14    12    14    1
    15    13    14    1
