@<TRIPOS>MOLECULE
/home/cewinharhar/GITHUB/reincatalyze/data/processed/docking_pred/2023-May-22-1902_sub9_nm5_bs15_s42_ex16_mel10_mts1000_k50_ec02_g099_lra9e-4_lrc1e-3/2368d29bb7bbfa5e31d33bb3936e2ea89938fe66_ligand_9.pdbqt
 14 15 0 0 0
SMALL
GASTEIGER

@<TRIPOS>ATOM
      1  C          5.4410    2.8700    0.2540 C.3     1  UNL1        0.0800
      2  C          6.2630    3.8260    1.0480 C.2     1  UNL1        0.1300
      3  C          7.2050    4.7750    0.3960 C.3     1  UNL1        0.0870
      4  O          6.1870    3.8570    2.2660 O.2     1  UNL1       -0.3000
      5  C          5.7110    1.4370    0.6670 C.3     1  UNL1        0.0430
      6  C          6.7520    0.8140   -0.1690 C.2     1  UNL1       -0.0440
      7  C          8.0190    1.3910   -0.3140 C.2     1  UNL1        0.0080
      8  C          6.4840   -0.3650   -0.8270 C.2     1  UNL1        0.0540
      9  C          8.9570    0.7600   -1.1110 C.2     1  UNL1        0.0510
     10  C          7.4350   -0.9990   -1.6320 C.2     1  UNL1        0.1660
     11  C          8.6820   -0.4310   -1.7750 C.2     1  UNL1        0.1650
     12  O          7.4120   -2.1570   -2.3790 O.2     1  UNL1       -0.4540
     13  O          9.4060   -1.2630   -2.6150 O.2     1  UNL1       -0.4540
     14  C          8.6700   -2.4150   -2.9480 C.3     1  UNL1        0.4680
@<TRIPOS>BOND
     1    14    13    1
     2    14    12    1
     3    13    11    1
     4    12    10    1
     5    11    10    2
     6    11     9    1
     7    10     8    1
     8     9     7    2
     9     8     6    2
    10     7     6    1
    11     6     5    1
    12     1     5    1
    13     1     2    1
    14     3     2    1
    15     2     4    2
