@<TRIPOS>MOLECULE
/home/cewinharhar/GITHUB/reincatalyze/data/processed/docking_pred/2023-May-22-1902_sub9_nm5_bs15_s42_ex16_mel10_mts1000_k50_ec02_g099_lra9e-4_lrc1e-3/2368d29bb7bbfa5e31d33bb3936e2ea89938fe66_ligand_9.pdbqt
 14 15 0 0 0
SMALL
GASTEIGER

@<TRIPOS>ATOM
      1  C          5.7470    1.3400   -0.3320 C.3     1  UNL1        0.0800
      2  C          5.1410    1.2870    1.0280 C.2     1  UNL1        0.1300
      3  C          5.3650    0.1320    1.9380 C.3     1  UNL1        0.0870
      4  O          4.4370    2.1960    1.4370 O.2     1  UNL1       -0.3000
      5  C          7.2430    1.1040   -0.2770 C.3     1  UNL1        0.0430
      6  C          7.6140   -0.1910   -0.8740 C.2     1  UNL1       -0.0440
      7  C          7.6800   -0.3670   -2.2610 C.2     1  UNL1        0.0080
      8  C          7.9080   -1.2590   -0.0570 C.2     1  UNL1        0.0540
      9  C          8.0350   -1.6060   -2.7640 C.2     1  UNL1        0.0510
     10  C          8.2660   -2.5090   -0.5710 C.2     1  UNL1        0.1660
     11  C          8.3300   -2.6840   -1.9350 C.2     1  UNL1        0.1650
     12  O          8.5980   -3.7090    0.0220 O.2     1  UNL1       -0.4540
     13  O          8.7050   -4.0000   -2.1540 O.2     1  UNL1       -0.4540
     14  C          8.9730   -4.6610   -0.9400 C.3     1  UNL1        0.4680
@<TRIPOS>BOND
     1     9     7    1
     2     9    11    2
     3     7     6    2
     4    13    11    1
     5    13    14    1
     6    11    10    1
     7    14    12    1
     8     6     5    1
     9     6     8    1
    10    10     8    2
    11    10    12    1
    12     1     5    1
    13     1     2    1
    14     2     4    2
    15     2     3    1
