@<TRIPOS>MOLECULE
/home/cewinharhar/GITHUB/reincatalyze/data/processed/docking_pred/2023-May-22-1902_sub9_nm5_bs15_s42_ex16_mel10_mts1000_k50_ec02_g099_lra9e-4_lrc1e-3/2368d29bb7bbfa5e31d33bb3936e2ea89938fe66_ligand_9.pdbqt
 14 15 0 0 0
SMALL
GASTEIGER

@<TRIPOS>ATOM
      1  C          5.4490    2.9280    0.1310 C.3     1  UNL1        0.0800
      2  C          6.2800    3.8510    0.9520 C.2     1  UNL1        0.1300
      3  C          7.2670    4.7750    0.3310 C.3     1  UNL1        0.0870
      4  O          6.1740    3.8760    2.1680 O.2     1  UNL1       -0.3000
      5  C          5.1830    1.6280    0.8640 C.3     1  UNL1        0.0430
      6  C          6.0100    0.5260    0.3410 C.2     1  UNL1       -0.0440
      7  C          6.3620   -0.5690    1.1380 C.2     1  UNL1        0.0080
      8  C          6.4490    0.5630   -0.9630 C.2     1  UNL1        0.0540
      9  C          7.1400   -1.5740    0.5920 C.2     1  UNL1        0.0510
     10  C          7.2350   -0.4560   -1.5110 C.2     1  UNL1        0.1660
     11  C          7.5830   -1.5330   -0.7260 C.2     1  UNL1        0.1650
     12  O          7.7890   -0.6480   -2.7580 O.2     1  UNL1       -0.4540
     13  O          8.3510   -2.3730   -1.5170 O.2     1  UNL1       -0.4540
     14  C          8.4300   -1.8950   -2.8390 C.3     1  UNL1        0.4680
@<TRIPOS>BOND
     1    14    12    1
     2    14    13    1
     3    12    10    1
     4    13    11    1
     5    10     8    1
     6    10    11    2
     7     8     6    2
     8    11     9    1
     9     1     5    1
    10     1     2    1
    11     3     2    1
    12     6     5    1
    13     6     7    1
    14     9     7    2
    15     2     4    2
