@<TRIPOS>MOLECULE
/home/cewinharhar/GITHUB/reincatalyze/data/processed/docking_pred/2023-May-22-1902_sub9_nm5_bs15_s42_ex16_mel10_mts1000_k50_ec02_g099_lra9e-4_lrc1e-3/2481e5cfc04dcfc4c7035fb6b8b96c3a7d203934_ligand_9.pdbqt
 14 15 0 0 0
SMALL
GASTEIGER

@<TRIPOS>ATOM
      1  C          5.4970    1.9350    1.2540 C.3     1  UNL1        0.0800
      2  C          5.0600    0.7190    1.9940 C.2     1  UNL1        0.1300
      3  C          5.9500   -0.4630    2.1480 C.3     1  UNL1        0.0870
      4  O          3.9510    0.6570    2.5000 O.2     1  UNL1       -0.3000
      5  C          5.3760    1.7400   -0.2450 C.3     1  UNL1        0.0430
      6  C          6.5470    1.0380   -0.8000 C.2     1  UNL1       -0.0440
      7  C          7.8530    1.4730   -0.5430 C.2     1  UNL1        0.0080
      8  C          6.3650   -0.0740   -1.5910 C.2     1  UNL1        0.0540
      9  C          8.9130    0.7750   -1.0900 C.2     1  UNL1        0.0510
     10  C          7.4410   -0.7770   -2.1420 C.2     1  UNL1        0.1660
     11  C          8.7250   -0.3490   -1.8900 C.2     1  UNL1        0.1650
     12  O          7.5200   -1.8930   -2.9470 O.2     1  UNL1       -0.4540
     13  O          9.5750   -1.2210   -2.5520 O.2     1  UNL1       -0.4540
     14  C          8.8570   -2.2670   -3.1600 C.3     1  UNL1        0.4680
@<TRIPOS>BOND
     1    14    12    1
     2    14    13    1
     3    12    10    1
     4    13    11    1
     5    10    11    2
     6    10     8    1
     7    11     9    1
     8     8     6    2
     9     9     7    2
    10     6     7    1
    11     6     5    1
    12     5     1    1
    13     1     2    1
    14     2     3    1
    15     2     4    2
