@<TRIPOS>MOLECULE
/home/cewinharhar/GITHUB/reincatalyze/data/processed/docking_pred/2023-May-22-1902_sub9_nm5_bs15_s42_ex16_mel10_mts1000_k50_ec02_g099_lra9e-4_lrc1e-3/2481e5cfc04dcfc4c7035fb6b8b96c3a7d203934_ligand_9.pdbqt
 14 15 0 0 0
SMALL
GASTEIGER

@<TRIPOS>ATOM
      1  C          5.4490    2.8920    0.1020 C.3     1  UNL1        0.0800
      2  C          6.2770    3.8000    0.9440 C.2     1  UNL1        0.1300
      3  C          7.2300    4.7710    0.3410 C.3     1  UNL1        0.0870
      4  O          6.1970    3.7730    2.1610 O.2     1  UNL1       -0.3000
      5  C          5.2030    1.5680    0.7990 C.3     1  UNL1        0.0430
      6  C          6.0480    0.4940    0.2450 C.2     1  UNL1       -0.0440
      7  C          6.3710   -0.6430    0.9940 C.2     1  UNL1        0.0080
      8  C          6.5330    0.6010   -1.0380 C.2     1  UNL1        0.0540
      9  C          7.1670   -1.6190    0.4210 C.2     1  UNL1        0.0510
     10  C          7.3360   -0.3880   -1.6130 C.2     1  UNL1        0.1660
     11  C          7.6560   -1.5070   -0.8760 C.2     1  UNL1        0.1650
     12  O          7.9340   -0.5130   -2.8490 O.2     1  UNL1       -0.4540
     13  O          8.4510   -2.3050   -1.6850 O.2     1  UNL1       -0.4540
     14  C          8.5770   -1.7560   -2.9750 C.3     1  UNL1        0.4680
@<TRIPOS>BOND
     1    14    12    1
     2    14    13    1
     3    12    10    1
     4    13    11    1
     5    10     8    1
     6    10    11    2
     7     8     6    2
     8    11     9    1
     9     1     5    1
    10     1     2    1
    11     6     5    1
    12     6     7    1
    13     3     2    1
    14     9     7    2
    15     2     4    2
