MODEL 1
REMARK VINA RESULT:      -7.9      0.000      0.000
REMARK SMILES CC(=O)CCc1ccc2c(c1)OCO2
REMARK SMILES IDX 4 1 2 2 1 3 3 4 5 5 6 6 7 7 11 8 8 9 10 10 9 11 12 12 14 13
REMARK SMILES IDX 13 14
REMARK H PARENT
REMARK Flexibility Score: inf
ROOT
ATOM      1  C   UNL     1       5.449   2.892   0.102  1.00  0.00     0.080 C 
ENDROOT
BRANCH   1   2
ATOM      2  C   UNL     1       6.277   3.800   0.944  1.00  0.00     0.130 C 
ATOM      3  C   UNL     1       7.230   4.771   0.341  1.00  0.00     0.087 C 
ATOM      4  O   UNL     1       6.197   3.773   2.161  1.00  0.00    -0.300 OA
ENDBRANCH   1   2
BRANCH   1   5
ATOM      5  C   UNL     1       5.203   1.568   0.799  1.00  0.00     0.043 C 
BRANCH   5   6
ATOM      6  C   UNL     1       6.048   0.494   0.245  1.00  0.00    -0.044 A 
ATOM      7  C   UNL     1       6.371  -0.643   0.994  1.00  0.00     0.008 A 
ATOM      8  C   UNL     1       6.533   0.601  -1.038  1.00  0.00     0.054 A 
ATOM      9  C   UNL     1       7.167  -1.619   0.421  1.00  0.00     0.051 A 
ATOM     10  C   UNL     1       7.336  -0.388  -1.613  1.00  0.00     0.166 A 
ATOM     11  C   UNL     1       7.656  -1.507  -0.876  1.00  0.00     0.165 A 
ATOM     12  O   UNL     1       7.934  -0.513  -2.849  1.00  0.00    -0.454 OA
ATOM     13  O   UNL     1       8.451  -2.305  -1.685  1.00  0.00    -0.454 OA
ATOM     14  C   UNL     1       8.577  -1.756  -2.975  1.00  0.00     0.468 C 
ENDBRANCH   5   6
ENDBRANCH   1   5
TORSDOF 3
ENDMDL
MODEL 2
REMARK VINA RESULT:      -7.8      1.021      2.000
REMARK SMILES CC(=O)CCc1ccc2c(c1)OCO2
REMARK SMILES IDX 4 1 2 2 1 3 3 4 5 5 6 6 7 7 11 8 8 9 10 10 9 11 12 12 14 13
REMARK SMILES IDX 13 14
REMARK H PARENT
REMARK Flexibility Score: inf
ROOT
ATOM      1  C   UNL     1       5.482   2.894   0.210  1.00  0.00     0.080 C 
ENDROOT
BRANCH   1   2
ATOM      2  C   UNL     1       6.290   3.872   0.991  1.00  0.00     0.130 C 
ATOM      3  C   UNL     1       7.272   4.775   0.334  1.00  0.00     0.087 C 
ATOM      4  O   UNL     1       6.168   3.959   2.203  1.00  0.00    -0.300 OA
ENDBRANCH   1   2
BRANCH   1   5
ATOM      5  C   UNL     1       5.334   1.582   0.956  1.00  0.00     0.043 C 
BRANCH   5   6
ATOM      6  C   UNL     1       6.112   0.503   0.322  1.00  0.00    -0.044 A 
ATOM      7  C   UNL     1       6.401   0.514  -1.047  1.00  0.00     0.008 A 
ATOM      8  C   UNL     1       6.572  -0.545   1.086  1.00  0.00     0.054 A 
ATOM      9  C   UNL     1       7.136  -0.526  -1.587  1.00  0.00     0.051 A 
ATOM     10  C   UNL     1       7.315  -1.594   0.536  1.00  0.00     0.166 A 
ATOM     11  C   UNL     1       7.599  -1.584  -0.811  1.00  0.00     0.165 A 
ATOM     12  O   UNL     1       7.876  -2.732   1.076  1.00  0.00    -0.454 OA
ATOM     13  O   UNL     1       8.337  -2.728  -1.073  1.00  0.00    -0.454 OA
ATOM     14  C   UNL     1       8.613  -3.437   0.111  1.00  0.00     0.468 C 
ENDBRANCH   5   6
ENDBRANCH   1   5
TORSDOF 3
ENDMDL
MODEL 3
REMARK VINA RESULT:      -7.7      1.885      2.602
REMARK SMILES CC(=O)CCc1ccc2c(c1)OCO2
REMARK SMILES IDX 4 1 2 2 1 3 3 4 5 5 6 6 7 7 11 8 8 9 10 10 9 11 12 12 14 13
REMARK SMILES IDX 13 14
REMARK H PARENT
REMARK Flexibility Score: inf
ROOT
ATOM      1  C   UNL     1       5.497   1.935   1.254  1.00  0.00     0.080 C 
ENDROOT
BRANCH   1   2
ATOM      2  C   UNL     1       5.060   0.719   1.994  1.00  0.00     0.130 C 
ATOM      3  C   UNL     1       5.950  -0.463   2.148  1.00  0.00     0.087 C 
ATOM      4  O   UNL     1       3.951   0.657   2.500  1.00  0.00    -0.300 OA
ENDBRANCH   1   2
BRANCH   1   5
ATOM      5  C   UNL     1       5.376   1.740  -0.245  1.00  0.00     0.043 C 
BRANCH   5   6
ATOM      6  C   UNL     1       6.547   1.038  -0.800  1.00  0.00    -0.044 A 
ATOM      7  C   UNL     1       7.853   1.473  -0.543  1.00  0.00     0.008 A 
ATOM      8  C   UNL     1       6.365  -0.074  -1.591  1.00  0.00     0.054 A 
ATOM      9  C   UNL     1       8.913   0.775  -1.090  1.00  0.00     0.051 A 
ATOM     10  C   UNL     1       7.441  -0.777  -2.142  1.00  0.00     0.166 A 
ATOM     11  C   UNL     1       8.725  -0.349  -1.890  1.00  0.00     0.165 A 
ATOM     12  O   UNL     1       7.520  -1.893  -2.947  1.00  0.00    -0.454 OA
ATOM     13  O   UNL     1       9.575  -1.221  -2.552  1.00  0.00    -0.454 OA
ATOM     14  C   UNL     1       8.857  -2.267  -3.160  1.00  0.00     0.468 C 
ENDBRANCH   5   6
ENDBRANCH   1   5
TORSDOF 3
ENDMDL
MODEL 4
REMARK VINA RESULT:      -7.5      1.954      3.016
REMARK SMILES CC(=O)CCc1ccc2c(c1)OCO2
REMARK SMILES IDX 4 1 2 2 1 3 3 4 5 5 6 6 7 7 11 8 8 9 10 10 9 11 12 12 14 13
REMARK SMILES IDX 13 14
REMARK H PARENT
REMARK Flexibility Score: inf
ROOT
ATOM      1  C   UNL     1       5.723   1.303  -0.379  1.00  0.00     0.080 C 
ENDROOT
BRANCH   1   2
ATOM      2  C   UNL     1       5.187   1.326   1.010  1.00  0.00     0.130 C 
ATOM      3  C   UNL     1       5.329   0.159   1.921  1.00  0.00     0.087 C 
ATOM      4  O   UNL     1       4.610   2.310   1.444  1.00  0.00    -0.300 OA
ENDBRANCH   1   2
BRANCH   1   5
ATOM      5  C   UNL     1       7.226   1.108  -0.386  1.00  0.00     0.043 C 
BRANCH   5   6
ATOM      6  C   UNL     1       7.605  -0.197  -0.954  1.00  0.00    -0.044 A 
ATOM      7  C   UNL     1       7.692  -0.398  -2.337  1.00  0.00     0.008 A 
ATOM      8  C   UNL     1       7.886  -1.251  -0.115  1.00  0.00     0.054 A 
ATOM      9  C   UNL     1       8.053  -1.645  -2.813  1.00  0.00     0.051 A 
ATOM     10  C   UNL     1       8.252  -2.510  -0.601  1.00  0.00     0.166 A 
ATOM     11  C   UNL     1       8.336  -2.709  -1.961  1.00  0.00     0.165 A 
ATOM     12  O   UNL     1       8.574  -3.699   0.018  1.00  0.00    -0.454 OA
ATOM     13  O   UNL     1       8.713  -4.029  -2.151  1.00  0.00    -0.454 OA
ATOM     14  C   UNL     1       8.963  -4.668  -0.922  1.00  0.00     0.468 C 
ENDBRANCH   5   6
ENDBRANCH   1   5
TORSDOF 3
ENDMDL
MODEL 5
REMARK VINA RESULT:      -7.4      1.832      2.818
REMARK SMILES CC(=O)CCc1ccc2c(c1)OCO2
REMARK SMILES IDX 4 1 2 2 1 3 3 4 5 5 6 6 7 7 11 8 8 9 10 10 9 11 12 12 14 13
REMARK SMILES IDX 13 14
REMARK H PARENT
REMARK Flexibility Score: inf
ROOT
ATOM      1  C   UNL     1       6.338   0.908   1.025  1.00  0.00     0.080 C 
ENDROOT
BRANCH   1   2
ATOM      2  C   UNL     1       5.108   1.744   0.936  1.00  0.00     0.130 C 
ATOM      3  C   UNL     1       4.866   2.656  -0.213  1.00  0.00     0.087 C 
ATOM      4  O   UNL     1       4.259   1.704   1.812  1.00  0.00    -0.300 OA
ENDBRANCH   1   2
BRANCH   1   5
ATOM      5  C   UNL     1       7.223   1.100  -0.191  1.00  0.00     0.043 C 
BRANCH   5   6
ATOM      6  C   UNL     1       7.574  -0.186  -0.819  1.00  0.00    -0.044 A 
ATOM      7  C   UNL     1       7.600  -0.339  -2.210  1.00  0.00     0.008 A 
ATOM      8  C   UNL     1       7.889  -1.268  -0.029  1.00  0.00     0.054 A 
ATOM      9  C   UNL     1       7.938  -1.570  -2.744  1.00  0.00     0.051 A 
ATOM     10  C   UNL     1       8.231  -2.510  -0.573  1.00  0.00     0.166 A 
ATOM     11  C   UNL     1       8.255  -2.662  -1.942  1.00  0.00     0.165 A 
ATOM     12  O   UNL     1       8.578  -3.719  -0.010  1.00  0.00    -0.454 OA
ATOM     13  O   UNL     1       8.621  -3.975  -2.193  1.00  0.00    -0.454 OA
ATOM     14  C   UNL     1       8.923  -4.655  -0.998  1.00  0.00     0.468 C 
ENDBRANCH   5   6
ENDBRANCH   1   5
TORSDOF 3
ENDMDL
