@<TRIPOS>MOLECULE
/home/cewinharhar/GITHUB/reincatalyze/data/processed/docking_pred/2023-May-22-1902_sub9_nm5_bs15_s42_ex16_mel10_mts1000_k50_ec02_g099_lra9e-4_lrc1e-3/2481e5cfc04dcfc4c7035fb6b8b96c3a7d203934_ligand_9.pdbqt
 14 15 0 0 0
SMALL
GASTEIGER

@<TRIPOS>ATOM
      1  C          5.7230    1.3030   -0.3790 C.3     1  UNL1        0.0800
      2  C          5.1870    1.3260    1.0100 C.2     1  UNL1        0.1300
      3  C          5.3290    0.1590    1.9210 C.3     1  UNL1        0.0870
      4  O          4.6100    2.3100    1.4440 O.2     1  UNL1       -0.3000
      5  C          7.2260    1.1080   -0.3860 C.3     1  UNL1        0.0430
      6  C          7.6050   -0.1970   -0.9540 C.2     1  UNL1       -0.0440
      7  C          7.6920   -0.3980   -2.3370 C.2     1  UNL1        0.0080
      8  C          7.8860   -1.2510   -0.1150 C.2     1  UNL1        0.0540
      9  C          8.0530   -1.6450   -2.8130 C.2     1  UNL1        0.0510
     10  C          8.2520   -2.5100   -0.6010 C.2     1  UNL1        0.1660
     11  C          8.3360   -2.7090   -1.9610 C.2     1  UNL1        0.1650
     12  O          8.5740   -3.6990    0.0180 O.2     1  UNL1       -0.4540
     13  O          8.7130   -4.0290   -2.1510 O.2     1  UNL1       -0.4540
     14  C          8.9630   -4.6680   -0.9220 C.3     1  UNL1        0.4680
@<TRIPOS>BOND
     1     9     7    1
     2     9    11    2
     3     7     6    2
     4    13    11    1
     5    13    14    1
     6    11    10    1
     7     6     5    1
     8     6     8    1
     9    14    12    1
    10    10     8    2
    11    10    12    1
    12     5     1    1
    13     1     2    1
    14     2     4    2
    15     2     3    1
