@<TRIPOS>MOLECULE
/home/cewinharhar/GITHUB/reincatalyze/data/processed/docking_pred/2023-May-22-1902_sub9_nm5_bs15_s42_ex16_mel10_mts1000_k50_ec02_g099_lra9e-4_lrc1e-3/25ea22f039de2039e6eb222be1b9c38742a73e8b_ligand_9.pdbqt
 14 15 0 0 0
SMALL
GASTEIGER

@<TRIPOS>ATOM
      1  C          5.3810    3.0130    0.1440 C.3     1  UNL1        0.0800
      2  C          6.2770    3.8740    0.9660 C.2     1  UNL1        0.1300
      3  C          7.2820    4.7750    0.3420 C.3     1  UNL1        0.0870
      4  O          6.2110    3.8630    2.1850 O.2     1  UNL1       -0.3000
      5  C          5.0710    1.7080    0.8510 C.3     1  UNL1        0.0430
      6  C          5.9160    0.6060    0.3590 C.2     1  UNL1       -0.0440
      7  C          6.2890   -0.4580    1.1880 C.2     1  UNL1        0.0080
      8  C          6.3520    0.6110   -0.9470 C.2     1  UNL1        0.0540
      9  C          7.0830   -1.4660    0.6700 C.2     1  UNL1        0.0510
     10  C          7.1540   -0.4100   -1.4650 C.2     1  UNL1        0.1660
     11  C          7.5230   -1.4570   -0.6500 C.2     1  UNL1        0.1650
     12  O          7.7080   -0.6300   -2.7080 O.2     1  UNL1       -0.4540
     13  O          8.3030   -2.3070   -1.4180 O.2     1  UNL1       -0.4540
     14  C          8.3710   -1.8670   -2.7530 C.3     1  UNL1        0.4680
@<TRIPOS>BOND
     1    14    12    1
     2    14    13    1
     3    12    10    1
     4    10     8    1
     5    10    11    2
     6    13    11    1
     7     8     6    2
     8    11     9    1
     9     1     5    1
    10     1     2    1
    11     3     2    1
    12     6     5    1
    13     6     7    1
    14     9     7    2
    15     2     4    2
