@<TRIPOS>MOLECULE
/home/cewinharhar/GITHUB/reincatalyze/data/processed/docking_pred/2023-May-22-1902_sub9_nm5_bs15_s42_ex16_mel10_mts1000_k50_ec02_g099_lra9e-4_lrc1e-3/25ea22f039de2039e6eb222be1b9c38742a73e8b_ligand_9.pdbqt
 14 15 0 0 0
SMALL
GASTEIGER

@<TRIPOS>ATOM
      1  C          5.7600    1.3040   -0.4090 C.3     1  UNL1        0.0800
      2  C          5.3690    2.3810    0.5420 C.2     1  UNL1        0.1300
      3  C          6.1360    3.6510    0.6420 C.3     1  UNL1        0.0870
      4  O          4.4010    2.2500    1.2740 O.2     1  UNL1       -0.3000
      5  C          7.2630    1.1140   -0.4390 C.3     1  UNL1        0.0430
      6  C          7.6380   -0.2010   -0.9890 C.2     1  UNL1       -0.0440
      7  C          7.7390   -0.4170   -2.3680 C.2     1  UNL1        0.0080
      8  C          7.8990   -1.2480   -0.1350 C.2     1  UNL1        0.0540
      9  C          8.0950   -1.6730   -2.8260 C.2     1  UNL1        0.0510
     10  C          8.2590   -2.5150   -0.6020 C.2     1  UNL1        0.1660
     11  C          8.3580   -2.7290   -1.9590 C.2     1  UNL1        0.1650
     12  O          8.5630   -3.7000    0.0330 O.2     1  UNL1       -0.4540
     13  O          8.7260   -4.0550   -2.1300 O.2     1  UNL1       -0.4540
     14  C          8.9550   -4.6820   -0.8910 C.3     1  UNL1        0.4680
@<TRIPOS>BOND
     1     9     7    1
     2     9    11    2
     3     7     6    2
     4    13    11    1
     5    13    14    1
     6    11    10    1
     7     6     5    1
     8     6     8    1
     9    14    12    1
    10    10     8    2
    11    10    12    1
    12     5     1    1
    13     1     2    1
    14     2     3    1
    15     2     4    2
