@<TRIPOS>MOLECULE
/home/cewinharhar/GITHUB/reincatalyze/data/processed/docking_pred/2023-May-22-1902_sub9_nm5_bs15_s42_ex16_mel10_mts1000_k50_ec02_g099_lra9e-4_lrc1e-3/25ea22f039de2039e6eb222be1b9c38742a73e8b_ligand_9.pdbqt
 14 15 0 0 0
SMALL
GASTEIGER

@<TRIPOS>ATOM
      1  C          5.7840    1.4110   -0.3230 C.3     1  UNL1        0.0800
      2  C          5.1170    1.3150    1.0060 C.2     1  UNL1        0.1300
      3  C          5.3980    0.1930    1.9410 C.3     1  UNL1        0.0870
      4  O          4.3150    2.1610    1.3670 O.2     1  UNL1       -0.3000
      5  C          7.2690    1.1260   -0.2150 C.3     1  UNL1        0.0430
      6  C          7.6230   -0.1640   -0.8340 C.2     1  UNL1       -0.0440
      7  C          7.6660   -0.3230   -2.2240 C.2     1  UNL1        0.0080
      8  C          7.9230   -1.2440   -0.0350 C.2     1  UNL1        0.0540
      9  C          8.0060   -1.5570   -2.7480 C.2     1  UNL1        0.0510
     10  C          8.2670   -2.4900   -0.5700 C.2     1  UNL1        0.1660
     11  C          8.3080   -2.6470   -1.9370 C.2     1  UNL1        0.1650
     12  O          8.6020   -3.6980    0.0030 O.2     1  UNL1       -0.4540
     13  O          8.6720   -3.9630   -2.1780 O.2     1  UNL1       -0.4540
     14  C          8.9560   -4.6400   -0.9770 C.3     1  UNL1        0.4680
@<TRIPOS>BOND
     1     9     7    1
     2     9    11    2
     3     7     6    2
     4    13    11    1
     5    13    14    1
     6    11    10    1
     7    14    12    1
     8     6     5    1
     9     6     8    1
    10    10     8    2
    11    10    12    1
    12     1     5    1
    13     1     2    1
    14     2     4    2
    15     2     3    1
