MODEL 1
REMARK VINA RESULT:      -7.9      0.000      0.000
REMARK SMILES CC(=O)CCc1ccc2c(c1)OCO2
REMARK SMILES IDX 4 1 2 2 1 3 3 4 5 5 6 6 7 7 11 8 8 9 10 10 9 11 12 12 14 13
REMARK SMILES IDX 13 14
REMARK H PARENT
REMARK Flexibility Score: inf
ROOT
ATOM      1  C   UNL     1       5.381   3.013   0.144  1.00  0.00     0.080 C 
ENDROOT
BRANCH   1   2
ATOM      2  C   UNL     1       6.277   3.874   0.966  1.00  0.00     0.130 C 
ATOM      3  C   UNL     1       7.282   4.775   0.342  1.00  0.00     0.087 C 
ATOM      4  O   UNL     1       6.211   3.863   2.185  1.00  0.00    -0.300 OA
ENDBRANCH   1   2
BRANCH   1   5
ATOM      5  C   UNL     1       5.071   1.708   0.851  1.00  0.00     0.043 C 
BRANCH   5   6
ATOM      6  C   UNL     1       5.916   0.606   0.359  1.00  0.00    -0.044 A 
ATOM      7  C   UNL     1       6.289  -0.458   1.188  1.00  0.00     0.008 A 
ATOM      8  C   UNL     1       6.352   0.611  -0.947  1.00  0.00     0.054 A 
ATOM      9  C   UNL     1       7.083  -1.466   0.670  1.00  0.00     0.051 A 
ATOM     10  C   UNL     1       7.154  -0.410  -1.465  1.00  0.00     0.166 A 
ATOM     11  C   UNL     1       7.523  -1.457  -0.650  1.00  0.00     0.165 A 
ATOM     12  O   UNL     1       7.708  -0.630  -2.708  1.00  0.00    -0.454 OA
ATOM     13  O   UNL     1       8.303  -2.307  -1.418  1.00  0.00    -0.454 OA
ATOM     14  C   UNL     1       8.371  -1.867  -2.753  1.00  0.00     0.468 C 
ENDBRANCH   5   6
ENDBRANCH   1   5
TORSDOF 3
ENDMDL
MODEL 2
REMARK VINA RESULT:      -7.7      1.902      2.660
REMARK SMILES CC(=O)CCc1ccc2c(c1)OCO2
REMARK SMILES IDX 4 1 2 2 1 3 3 4 5 5 6 6 7 7 11 8 8 9 10 10 9 11 12 12 14 13
REMARK SMILES IDX 13 14
REMARK H PARENT
REMARK Flexibility Score: inf
ROOT
ATOM      1  C   UNL     1       5.550   1.920   1.277  1.00  0.00     0.080 C 
ENDROOT
BRANCH   1   2
ATOM      2  C   UNL     1       5.124   0.701   2.019  1.00  0.00     0.130 C 
ATOM      3  C   UNL     1       6.035  -0.461   2.198  1.00  0.00     0.087 C 
ATOM      4  O   UNL     1       4.007   0.620   2.503  1.00  0.00    -0.300 OA
ENDBRANCH   1   2
BRANCH   1   5
ATOM      5  C   UNL     1       5.416   1.728  -0.221  1.00  0.00     0.043 C 
BRANCH   5   6
ATOM      6  C   UNL     1       6.580   1.025  -0.788  1.00  0.00    -0.044 A 
ATOM      7  C   UNL     1       7.889   1.452  -0.535  1.00  0.00     0.008 A 
ATOM      8  C   UNL     1       6.388  -0.080  -1.585  1.00  0.00     0.054 A 
ATOM      9  C   UNL     1       8.943   0.753  -1.094  1.00  0.00     0.051 A 
ATOM     10  C   UNL     1       7.457  -0.784  -2.147  1.00  0.00     0.166 A 
ATOM     11  C   UNL     1       8.745  -0.364  -1.900  1.00  0.00     0.165 A 
ATOM     12  O   UNL     1       7.527  -1.895  -2.961  1.00  0.00    -0.454 OA
ATOM     13  O   UNL     1       9.588  -1.235  -2.573  1.00  0.00    -0.454 OA
ATOM     14  C   UNL     1       8.861  -2.274  -3.184  1.00  0.00     0.468 C 
ENDBRANCH   5   6
ENDBRANCH   1   5
TORSDOF 3
ENDMDL
MODEL 3
REMARK VINA RESULT:      -7.5      1.167      1.485
REMARK SMILES CC(=O)CCc1ccc2c(c1)OCO2
REMARK SMILES IDX 4 1 2 2 1 3 3 4 5 5 6 6 7 7 11 8 8 9 10 10 9 11 12 12 14 13
REMARK SMILES IDX 13 14
REMARK H PARENT
REMARK Flexibility Score: inf
ROOT
ATOM      1  C   UNL     1       5.791   2.695  -0.093  1.00  0.00     0.080 C 
ENDROOT
BRANCH   1   2
ATOM      2  C   UNL     1       6.419   3.636   0.877  1.00  0.00     0.130 C 
ATOM      3  C   UNL     1       7.264   4.774   0.425  1.00  0.00     0.087 C 
ATOM      4  O   UNL     1       6.256   3.499   2.078  1.00  0.00    -0.300 OA
ENDBRANCH   1   2
BRANCH   1   5
ATOM      5  C   UNL     1       4.985   1.628   0.620  1.00  0.00     0.043 C 
BRANCH   5   6
ATOM      6  C   UNL     1       5.769   0.396   0.824  1.00  0.00    -0.044 A 
ATOM      7  C   UNL     1       5.759  -0.285   2.046  1.00  0.00     0.008 A 
ATOM      8  C   UNL     1       6.530  -0.107  -0.207  1.00  0.00     0.054 A 
ATOM      9  C   UNL     1       6.514  -1.436   2.179  1.00  0.00     0.051 A 
ATOM     10  C   UNL     1       7.291  -1.271  -0.068  1.00  0.00     0.166 A 
ATOM     11  C   UNL     1       7.283  -1.941   1.136  1.00  0.00     0.165 A 
ATOM     12  O   UNL     1       8.117  -1.962  -0.928  1.00  0.00    -0.454 OA
ATOM     13  O   UNL     1       8.112  -3.042   0.987  1.00  0.00    -0.454 OA
ATOM     14  C   UNL     1       8.590  -3.143  -0.333  1.00  0.00     0.468 C 
ENDBRANCH   5   6
ENDBRANCH   1   5
TORSDOF 3
ENDMDL
MODEL 4
REMARK VINA RESULT:      -7.5      1.975      3.064
REMARK SMILES CC(=O)CCc1ccc2c(c1)OCO2
REMARK SMILES IDX 4 1 2 2 1 3 3 4 5 5 6 6 7 7 11 8 8 9 10 10 9 11 12 12 14 13
REMARK SMILES IDX 13 14
REMARK H PARENT
REMARK Flexibility Score: inf
ROOT
ATOM      1  C   UNL     1       5.784   1.411  -0.323  1.00  0.00     0.080 C 
ENDROOT
BRANCH   1   2
ATOM      2  C   UNL     1       5.117   1.315   1.006  1.00  0.00     0.130 C 
ATOM      3  C   UNL     1       5.398   0.193   1.941  1.00  0.00     0.087 C 
ATOM      4  O   UNL     1       4.315   2.161   1.367  1.00  0.00    -0.300 OA
ENDBRANCH   1   2
BRANCH   1   5
ATOM      5  C   UNL     1       7.269   1.126  -0.215  1.00  0.00     0.043 C 
BRANCH   5   6
ATOM      6  C   UNL     1       7.623  -0.164  -0.834  1.00  0.00    -0.044 A 
ATOM      7  C   UNL     1       7.666  -0.323  -2.224  1.00  0.00     0.008 A 
ATOM      8  C   UNL     1       7.923  -1.244  -0.035  1.00  0.00     0.054 A 
ATOM      9  C   UNL     1       8.006  -1.557  -2.748  1.00  0.00     0.051 A 
ATOM     10  C   UNL     1       8.267  -2.490  -0.570  1.00  0.00     0.166 A 
ATOM     11  C   UNL     1       8.308  -2.647  -1.937  1.00  0.00     0.165 A 
ATOM     12  O   UNL     1       8.602  -3.698   0.003  1.00  0.00    -0.454 OA
ATOM     13  O   UNL     1       8.672  -3.963  -2.178  1.00  0.00    -0.454 OA
ATOM     14  C   UNL     1       8.956  -4.640  -0.977  1.00  0.00     0.468 C 
ENDBRANCH   5   6
ENDBRANCH   1   5
TORSDOF 3
ENDMDL
MODEL 5
REMARK VINA RESULT:      -7.4      1.630      2.756
REMARK SMILES CC(=O)CCc1ccc2c(c1)OCO2
REMARK SMILES IDX 4 1 2 2 1 3 3 4 5 5 6 6 7 7 11 8 8 9 10 10 9 11 12 12 14 13
REMARK SMILES IDX 13 14
REMARK H PARENT
REMARK Flexibility Score: inf
ROOT
ATOM      1  C   UNL     1       5.760   1.304  -0.409  1.00  0.00     0.080 C 
ENDROOT
BRANCH   1   2
ATOM      2  C   UNL     1       5.369   2.381   0.542  1.00  0.00     0.130 C 
ATOM      3  C   UNL     1       6.136   3.651   0.642  1.00  0.00     0.087 C 
ATOM      4  O   UNL     1       4.401   2.250   1.274  1.00  0.00    -0.300 OA
ENDBRANCH   1   2
BRANCH   1   5
ATOM      5  C   UNL     1       7.263   1.114  -0.439  1.00  0.00     0.043 C 
BRANCH   5   6
ATOM      6  C   UNL     1       7.638  -0.201  -0.989  1.00  0.00    -0.044 A 
ATOM      7  C   UNL     1       7.739  -0.417  -2.368  1.00  0.00     0.008 A 
ATOM      8  C   UNL     1       7.899  -1.248  -0.135  1.00  0.00     0.054 A 
ATOM      9  C   UNL     1       8.095  -1.673  -2.826  1.00  0.00     0.051 A 
ATOM     10  C   UNL     1       8.259  -2.515  -0.602  1.00  0.00     0.166 A 
ATOM     11  C   UNL     1       8.358  -2.729  -1.959  1.00  0.00     0.165 A 
ATOM     12  O   UNL     1       8.563  -3.700   0.033  1.00  0.00    -0.454 OA
ATOM     13  O   UNL     1       8.726  -4.055  -2.130  1.00  0.00    -0.454 OA
ATOM     14  C   UNL     1       8.955  -4.682  -0.891  1.00  0.00     0.468 C 
ENDBRANCH   5   6
ENDBRANCH   1   5
TORSDOF 3
ENDMDL
