@<TRIPOS>MOLECULE
/home/cewinharhar/GITHUB/reincatalyze/data/processed/docking_pred/2023-May-22-1902_sub9_nm5_bs15_s42_ex16_mel10_mts1000_k50_ec02_g099_lra9e-4_lrc1e-3/25ea22f039de2039e6eb222be1b9c38742a73e8b_ligand_9.pdbqt
 14 15 0 0 0
SMALL
GASTEIGER

@<TRIPOS>ATOM
      1  C          5.5500    1.9200    1.2770 C.3     1  UNL1        0.0800
      2  C          5.1240    0.7010    2.0190 C.2     1  UNL1        0.1300
      3  C          6.0350   -0.4610    2.1980 C.3     1  UNL1        0.0870
      4  O          4.0070    0.6200    2.5030 O.2     1  UNL1       -0.3000
      5  C          5.4160    1.7280   -0.2210 C.3     1  UNL1        0.0430
      6  C          6.5800    1.0250   -0.7880 C.2     1  UNL1       -0.0440
      7  C          7.8890    1.4520   -0.5350 C.2     1  UNL1        0.0080
      8  C          6.3880   -0.0800   -1.5850 C.2     1  UNL1        0.0540
      9  C          8.9430    0.7530   -1.0940 C.2     1  UNL1        0.0510
     10  C          7.4570   -0.7840   -2.1470 C.2     1  UNL1        0.1660
     11  C          8.7450   -0.3640   -1.9000 C.2     1  UNL1        0.1650
     12  O          7.5270   -1.8950   -2.9610 O.2     1  UNL1       -0.4540
     13  O          9.5880   -1.2350   -2.5730 O.2     1  UNL1       -0.4540
     14  C          8.8610   -2.2740   -3.1840 C.3     1  UNL1        0.4680
@<TRIPOS>BOND
     1    14    12    1
     2    14    13    1
     3    12    10    1
     4    13    11    1
     5    10    11    2
     6    10     8    1
     7    11     9    1
     8     8     6    2
     9     9     7    2
    10     6     7    1
    11     6     5    1
    12     5     1    1
    13     1     2    1
    14     2     3    1
    15     2     4    2
