@<TRIPOS>MOLECULE
/home/cewinharhar/GITHUB/reincatalyze/data/processed/docking_pred/2023-May-22-1902_sub9_nm5_bs15_s42_ex16_mel10_mts1000_k50_ec02_g099_lra9e-4_lrc1e-3/25ea22f039de2039e6eb222be1b9c38742a73e8b_ligand_9.pdbqt
 14 15 0 0 0
SMALL
GASTEIGER

@<TRIPOS>ATOM
      1  C          5.7910    2.6950   -0.0930 C.3     1  UNL1        0.0800
      2  C          6.4190    3.6360    0.8770 C.2     1  UNL1        0.1300
      3  C          7.2640    4.7740    0.4250 C.3     1  UNL1        0.0870
      4  O          6.2560    3.4990    2.0780 O.2     1  UNL1       -0.3000
      5  C          4.9850    1.6280    0.6200 C.3     1  UNL1        0.0430
      6  C          5.7690    0.3960    0.8240 C.2     1  UNL1       -0.0440
      7  C          5.7590   -0.2850    2.0460 C.2     1  UNL1        0.0080
      8  C          6.5300   -0.1070   -0.2070 C.2     1  UNL1        0.0540
      9  C          6.5140   -1.4360    2.1790 C.2     1  UNL1        0.0510
     10  C          7.2910   -1.2710   -0.0680 C.2     1  UNL1        0.1660
     11  C          7.2830   -1.9410    1.1360 C.2     1  UNL1        0.1650
     12  O          8.1170   -1.9620   -0.9280 O.2     1  UNL1       -0.4540
     13  O          8.1120   -3.0420    0.9870 O.2     1  UNL1       -0.4540
     14  C          8.5900   -3.1430   -0.3330 C.3     1  UNL1        0.4680
@<TRIPOS>BOND
     1    12    14    1
     2    12    10    1
     3    14    13    1
     4     8    10    1
     5     8     6    2
     6     1     5    1
     7     1     2    1
     8    10    11    2
     9     3     2    1
    10     5     6    1
    11     6     7    1
    12     2     4    2
    13    13    11    1
    14    11     9    1
    15     7     9    2
