MODEL 1
REMARK VINA RESULT:      -7.8      0.000      0.000
REMARK SMILES CC(=O)CCc1ccc2c(c1)OCO2
REMARK SMILES IDX 4 1 2 2 1 3 3 4 5 5 6 6 7 7 11 8 8 9 10 10 9 11 12 12 14 13
REMARK SMILES IDX 13 14
REMARK H PARENT
REMARK Flexibility Score: inf
ROOT
ATOM      1  C   UNL     1       5.437   2.933   0.240  1.00  0.00     0.080 C 
ENDROOT
BRANCH   1   2
ATOM      2  C   UNL     1       6.399   3.724   1.057  1.00  0.00     0.130 C 
ATOM      3  C   UNL     1       7.259   4.775   0.450  1.00  0.00     0.087 C 
ATOM      4  O   UNL     1       6.509   3.531   2.257  1.00  0.00    -0.300 OA
ENDBRANCH   1   2
BRANCH   1   5
ATOM      5  C   UNL     1       5.146   1.590   0.880  1.00  0.00     0.043 C 
BRANCH   5   6
ATOM      6  C   UNL     1       5.994   0.522   0.321  1.00  0.00    -0.044 A 
ATOM      7  C   UNL     1       6.369  -0.591   1.082  1.00  0.00     0.008 A 
ATOM      8  C   UNL     1       6.430   0.609  -0.981  1.00  0.00     0.054 A 
ATOM      9  C   UNL     1       7.165  -1.562   0.504  1.00  0.00     0.051 A 
ATOM     10  C   UNL     1       7.235  -0.376  -1.562  1.00  0.00     0.166 A 
ATOM     11  C   UNL     1       7.606  -1.470  -0.813  1.00  0.00     0.165 A 
ATOM     12  O   UNL     1       7.790  -0.517  -2.816  1.00  0.00    -0.454 OA
ATOM     13  O   UNL     1       8.388  -2.269  -1.631  1.00  0.00    -0.454 OA
ATOM     14  C   UNL     1       8.456  -1.747  -2.937  1.00  0.00     0.468 C 
ENDBRANCH   5   6
ENDBRANCH   1   5
TORSDOF 3
ENDMDL
MODEL 2
REMARK VINA RESULT:      -7.7      1.035      2.018
REMARK SMILES CC(=O)CCc1ccc2c(c1)OCO2
REMARK SMILES IDX 4 1 2 2 1 3 3 4 5 5 6 6 7 7 11 8 8 9 10 10 9 11 12 12 14 13
REMARK SMILES IDX 13 14
REMARK H PARENT
REMARK Flexibility Score: inf
ROOT
ATOM      1  C   UNL     1       5.294   2.951   0.219  1.00  0.00     0.080 C 
ENDROOT
BRANCH   1   2
ATOM      2  C   UNL     1       6.169   3.896   0.968  1.00  0.00     0.130 C 
ATOM      3  C   UNL     1       7.147   4.774   0.271  1.00  0.00     0.087 C 
ATOM      4  O   UNL     1       6.107   3.977   2.184  1.00  0.00    -0.300 OA
ENDBRANCH   1   2
BRANCH   1   5
ATOM      5  C   UNL     1       5.145   1.636   0.957  1.00  0.00     0.043 C 
BRANCH   5   6
ATOM      6  C   UNL     1       5.976   0.576   0.359  1.00  0.00    -0.044 A 
ATOM      7  C   UNL     1       6.331   0.599  -0.995  1.00  0.00     0.008 A 
ATOM      8  C   UNL     1       6.423  -0.465   1.141  1.00  0.00     0.054 A 
ATOM      9  C   UNL     1       7.113  -0.423  -1.501  1.00  0.00     0.051 A 
ATOM     10  C   UNL     1       7.215  -1.495   0.625  1.00  0.00     0.166 A 
ATOM     11  C   UNL     1       7.562  -1.474  -0.707  1.00  0.00     0.165 A 
ATOM     12  O   UNL     1       7.774  -2.622   1.188  1.00  0.00    -0.454 OA
ATOM     13  O   UNL     1       8.338  -2.600  -0.937  1.00  0.00    -0.454 OA
ATOM     14  C   UNL     1       8.572  -3.307   0.257  1.00  0.00     0.468 C 
ENDBRANCH   5   6
ENDBRANCH   1   5
TORSDOF 3
ENDMDL
MODEL 3
REMARK VINA RESULT:      -7.6      1.880      2.604
REMARK SMILES CC(=O)CCc1ccc2c(c1)OCO2
REMARK SMILES IDX 4 1 2 2 1 3 3 4 5 5 6 6 7 7 11 8 8 9 10 10 9 11 12 12 14 13
REMARK SMILES IDX 13 14
REMARK H PARENT
REMARK Flexibility Score: inf
ROOT
ATOM      1  C   UNL     1       5.531   1.927   1.255  1.00  0.00     0.080 C 
ENDROOT
BRANCH   1   2
ATOM      2  C   UNL     1       5.105   0.711   2.003  1.00  0.00     0.130 C 
ATOM      3  C   UNL     1       6.013  -0.453   2.181  1.00  0.00     0.087 C 
ATOM      4  O   UNL     1       3.990   0.635   2.493  1.00  0.00    -0.300 OA
ENDBRANCH   1   2
BRANCH   1   5
ATOM      5  C   UNL     1       5.398   1.728  -0.241  1.00  0.00     0.043 C 
BRANCH   5   6
ATOM      6  C   UNL     1       6.566   1.029  -0.806  1.00  0.00    -0.044 A 
ATOM      7  C   UNL     1       7.873   1.464  -0.554  1.00  0.00     0.008 A 
ATOM      8  C   UNL     1       6.380  -0.081  -1.598  1.00  0.00     0.054 A 
ATOM      9  C   UNL     1       8.930   0.768  -1.110  1.00  0.00     0.051 A 
ATOM     10  C   UNL     1       7.453  -0.781  -2.157  1.00  0.00     0.166 A 
ATOM     11  C   UNL     1       8.739  -0.353  -1.911  1.00  0.00     0.165 A 
ATOM     12  O   UNL     1       7.529  -1.895  -2.967  1.00  0.00    -0.454 OA
ATOM     13  O   UNL     1       9.586  -1.223  -2.581  1.00  0.00    -0.454 OA
ATOM     14  C   UNL     1       8.864  -2.268  -3.188  1.00  0.00     0.468 C 
ENDBRANCH   5   6
ENDBRANCH   1   5
TORSDOF 3
ENDMDL
MODEL 4
REMARK VINA RESULT:      -7.5      1.976      3.049
REMARK SMILES CC(=O)CCc1ccc2c(c1)OCO2
REMARK SMILES IDX 4 1 2 2 1 3 3 4 5 5 6 6 7 7 11 8 8 9 10 10 9 11 12 12 14 13
REMARK SMILES IDX 13 14
REMARK H PARENT
REMARK Flexibility Score: inf
ROOT
ATOM      1  C   UNL     1       5.758   1.351  -0.312  1.00  0.00     0.080 C 
ENDROOT
BRANCH   1   2
ATOM      2  C   UNL     1       5.162   1.295   1.052  1.00  0.00     0.130 C 
ATOM      3  C   UNL     1       5.352   0.116   1.939  1.00  0.00     0.087 C 
ATOM      4  O   UNL     1       4.496   2.222   1.484  1.00  0.00    -0.300 OA
ENDBRANCH   1   2
BRANCH   1   5
ATOM      5  C   UNL     1       7.254   1.113  -0.269  1.00  0.00     0.043 C 
BRANCH   5   6
ATOM      6  C   UNL     1       7.619  -0.179  -0.877  1.00  0.00    -0.044 A 
ATOM      7  C   UNL     1       7.685  -0.343  -2.266  1.00  0.00     0.008 A 
ATOM      8  C   UNL     1       7.907  -1.256  -0.070  1.00  0.00     0.054 A 
ATOM      9  C   UNL     1       8.035  -1.579  -2.779  1.00  0.00     0.051 A 
ATOM     10  C   UNL     1       8.260  -2.503  -0.594  1.00  0.00     0.166 A 
ATOM     11  C   UNL     1       8.324  -2.666  -1.960  1.00  0.00     0.165 A 
ATOM     12  O   UNL     1       8.585  -3.709  -0.011  1.00  0.00    -0.454 OA
ATOM     13  O   UNL     1       8.692  -3.982  -2.190  1.00  0.00    -0.454 OA
ATOM     14  C   UNL     1       8.956  -4.654  -0.982  1.00  0.00     0.468 C 
ENDBRANCH   5   6
ENDBRANCH   1   5
TORSDOF 3
ENDMDL
MODEL 5
REMARK VINA RESULT:      -7.4      1.855      2.859
REMARK SMILES CC(=O)CCc1ccc2c(c1)OCO2
REMARK SMILES IDX 4 1 2 2 1 3 3 4 5 5 6 6 7 7 11 8 8 9 10 10 9 11 12 12 14 13
REMARK SMILES IDX 13 14
REMARK H PARENT
REMARK Flexibility Score: inf
ROOT
ATOM      1  C   UNL     1       6.225   0.836   1.057  1.00  0.00     0.080 C 
ENDROOT
BRANCH   1   2
ATOM      2  C   UNL     1       5.051   1.746   0.934  1.00  0.00     0.130 C 
ATOM      3  C   UNL     1       4.891   2.661  -0.227  1.00  0.00     0.087 C 
ATOM      4  O   UNL     1       4.182   1.766   1.790  1.00  0.00    -0.300 OA
ENDBRANCH   1   2
BRANCH   1   5
ATOM      5  C   UNL     1       7.202   1.042  -0.083  1.00  0.00     0.043 C 
BRANCH   5   6
ATOM      6  C   UNL     1       7.551  -0.231  -0.740  1.00  0.00    -0.044 A 
ATOM      7  C   UNL     1       7.544  -0.363  -2.133  1.00  0.00     0.008 A 
ATOM      8  C   UNL     1       7.895  -1.322   0.026  1.00  0.00     0.054 A 
ATOM      9  C   UNL     1       7.881  -1.581  -2.693  1.00  0.00     0.051 A 
ATOM     10  C   UNL     1       8.236  -2.551  -0.545  1.00  0.00     0.166 A 
ATOM     11  C   UNL     1       8.228  -2.682  -1.916  1.00  0.00     0.165 A 
ATOM     12  O   UNL     1       8.608  -3.766  -0.009  1.00  0.00    -0.454 OA
ATOM     13  O   UNL     1       8.601  -3.988  -2.196  1.00  0.00    -0.454 OA
ATOM     14  C   UNL     1       8.939  -4.683  -1.020  1.00  0.00     0.468 C 
ENDBRANCH   5   6
ENDBRANCH   1   5
TORSDOF 3
ENDMDL
