@<TRIPOS>MOLECULE
/home/cewinharhar/GITHUB/reincatalyze/data/processed/docking_pred/2023-May-22-1902_sub9_nm5_bs15_s42_ex16_mel10_mts1000_k50_ec02_g099_lra9e-4_lrc1e-3/25fd2f55844bdf9fb92a90adf0bdb598f7a2ad59_ligand_9.pdbqt
 14 15 0 0 0
SMALL
GASTEIGER

@<TRIPOS>ATOM
      1  C          5.4370    2.9330    0.2400 C.3     1  UNL1        0.0800
      2  C          6.3990    3.7240    1.0570 C.2     1  UNL1        0.1300
      3  C          7.2590    4.7750    0.4500 C.3     1  UNL1        0.0870
      4  O          6.5090    3.5310    2.2570 O.2     1  UNL1       -0.3000
      5  C          5.1460    1.5900    0.8800 C.3     1  UNL1        0.0430
      6  C          5.9940    0.5220    0.3210 C.2     1  UNL1       -0.0440
      7  C          6.3690   -0.5910    1.0820 C.2     1  UNL1        0.0080
      8  C          6.4300    0.6090   -0.9810 C.2     1  UNL1        0.0540
      9  C          7.1650   -1.5620    0.5040 C.2     1  UNL1        0.0510
     10  C          7.2350   -0.3760   -1.5620 C.2     1  UNL1        0.1660
     11  C          7.6060   -1.4700   -0.8130 C.2     1  UNL1        0.1650
     12  O          7.7900   -0.5170   -2.8160 O.2     1  UNL1       -0.4540
     13  O          8.3880   -2.2690   -1.6310 O.2     1  UNL1       -0.4540
     14  C          8.4560   -1.7470   -2.9370 C.3     1  UNL1        0.4680
@<TRIPOS>BOND
     1    14    12    1
     2    14    13    1
     3    12    10    1
     4    13    11    1
     5    10     8    1
     6    10    11    2
     7     8     6    2
     8    11     9    1
     9     1     5    1
    10     1     2    1
    11     6     5    1
    12     6     7    1
    13     3     2    1
    14     9     7    2
    15     2     4    2
