@<TRIPOS>MOLECULE
/home/cewinharhar/GITHUB/reincatalyze/data/processed/docking_pred/2023-May-22-1902_sub9_nm5_bs15_s42_ex16_mel10_mts1000_k50_ec02_g099_lra9e-4_lrc1e-3/25fd2f55844bdf9fb92a90adf0bdb598f7a2ad59_ligand_9.pdbqt
 14 15 0 0 0
SMALL
GASTEIGER

@<TRIPOS>ATOM
      1  C          6.2250    0.8360    1.0570 C.3     1  UNL1        0.0800
      2  C          5.0510    1.7460    0.9340 C.2     1  UNL1        0.1300
      3  C          4.8910    2.6610   -0.2270 C.3     1  UNL1        0.0870
      4  O          4.1820    1.7660    1.7900 O.2     1  UNL1       -0.3000
      5  C          7.2020    1.0420   -0.0830 C.3     1  UNL1        0.0430
      6  C          7.5510   -0.2310   -0.7400 C.2     1  UNL1       -0.0440
      7  C          7.5440   -0.3630   -2.1330 C.2     1  UNL1        0.0080
      8  C          7.8950   -1.3220    0.0260 C.2     1  UNL1        0.0540
      9  C          7.8810   -1.5810   -2.6930 C.2     1  UNL1        0.0510
     10  C          8.2360   -2.5510   -0.5450 C.2     1  UNL1        0.1660
     11  C          8.2280   -2.6820   -1.9160 C.2     1  UNL1        0.1650
     12  O          8.6080   -3.7660   -0.0090 O.2     1  UNL1       -0.4540
     13  O          8.6010   -3.9880   -2.1960 O.2     1  UNL1       -0.4540
     14  C          8.9390   -4.6830   -1.0200 C.3     1  UNL1        0.4680
@<TRIPOS>BOND
     1     9     7    1
     2     9    11    2
     3    13    11    1
     4    13    14    1
     5     7     6    2
     6    11    10    1
     7    14    12    1
     8     6     5    1
     9     6     8    1
    10    10    12    1
    11    10     8    2
    12     3     2    1
    13     5     1    1
    14     2     1    1
    15     2     4    2
