@<TRIPOS>MOLECULE
/home/cewinharhar/GITHUB/reincatalyze/data/processed/docking_pred/2023-May-22-1902_sub9_nm5_bs15_s42_ex16_mel10_mts1000_k50_ec02_g099_lra9e-4_lrc1e-3/25fd2f55844bdf9fb92a90adf0bdb598f7a2ad59_ligand_9.pdbqt
 14 15 0 0 0
SMALL
GASTEIGER

@<TRIPOS>ATOM
      1  C          5.2940    2.9510    0.2190 C.3     1  UNL1        0.0800
      2  C          6.1690    3.8960    0.9680 C.2     1  UNL1        0.1300
      3  C          7.1470    4.7740    0.2710 C.3     1  UNL1        0.0870
      4  O          6.1070    3.9770    2.1840 O.2     1  UNL1       -0.3000
      5  C          5.1450    1.6360    0.9570 C.3     1  UNL1        0.0430
      6  C          5.9760    0.5760    0.3590 C.2     1  UNL1       -0.0440
      7  C          6.3310    0.5990   -0.9950 C.2     1  UNL1        0.0080
      8  C          6.4230   -0.4650    1.1410 C.2     1  UNL1        0.0540
      9  C          7.1130   -0.4230   -1.5010 C.2     1  UNL1        0.0510
     10  C          7.2150   -1.4950    0.6250 C.2     1  UNL1        0.1660
     11  C          7.5620   -1.4740   -0.7070 C.2     1  UNL1        0.1650
     12  O          7.7740   -2.6220    1.1880 O.2     1  UNL1       -0.4540
     13  O          8.3380   -2.6000   -0.9370 O.2     1  UNL1       -0.4540
     14  C          8.5720   -3.3070    0.2570 C.3     1  UNL1        0.4680
@<TRIPOS>BOND
     1     9     7    1
     2     9    11    2
     3     7     6    2
     4    13    11    1
     5    13    14    1
     6    11    10    1
     7     1     5    1
     8     1     2    1
     9    14    12    1
    10     3     2    1
    11     6     5    1
    12     6     8    1
    13    10     8    2
    14    10    12    1
    15     2     4    2
