@<TRIPOS>MOLECULE
/home/cewinharhar/GITHUB/reincatalyze/data/processed/docking_pred/2023-May-22-1902_sub9_nm5_bs15_s42_ex16_mel10_mts1000_k50_ec02_g099_lra9e-4_lrc1e-3/2734134eb9e7fe1a9a1e6734a306fe03ba38cdbb_ligand_9.pdbqt
 14 15 0 0 0
SMALL
GASTEIGER

@<TRIPOS>ATOM
      1  C          5.5170    1.9270    1.2660 C.3     1  UNL1        0.0800
      2  C          5.0810    0.7080    2.0040 C.2     1  UNL1        0.1300
      3  C          5.9810   -0.4630    2.1760 C.3     1  UNL1        0.0870
      4  O          3.9650    0.6370    2.4910 O.2     1  UNL1       -0.3000
      5  C          5.3930    1.7370   -0.2330 C.3     1  UNL1        0.0430
      6  C          6.5600    1.0330   -0.7930 C.2     1  UNL1       -0.0440
      7  C          7.8680    1.4620   -0.5360 C.2     1  UNL1        0.0080
      8  C          6.3730   -0.0760   -1.5860 C.2     1  UNL1        0.0540
      9  C          8.9250    0.7620   -1.0880 C.2     1  UNL1        0.0510
     10  C          7.4450   -0.7810   -2.1410 C.2     1  UNL1        0.1660
     11  C          8.7310   -0.3590   -1.8910 C.2     1  UNL1        0.1650
     12  O          7.5180   -1.8950   -2.9510 O.2     1  UNL1       -0.4540
     13  O          9.5770   -1.2310   -2.5570 O.2     1  UNL1       -0.4540
     14  C          8.8530   -2.2740   -3.1670 C.3     1  UNL1        0.4680
@<TRIPOS>BOND
     1    14    12    1
     2    14    13    1
     3    12    10    1
     4    13    11    1
     5    10    11    2
     6    10     8    1
     7    11     9    1
     8     8     6    2
     9     9     7    2
    10     6     7    1
    11     6     5    1
    12     5     1    1
    13     1     2    1
    14     2     3    1
    15     2     4    2
