@<TRIPOS>MOLECULE
/home/cewinharhar/GITHUB/reincatalyze/data/processed/docking_pred/2023-May-22-1902_sub9_nm5_bs15_s42_ex16_mel10_mts1000_k50_ec02_g099_lra9e-4_lrc1e-3/287d700aa29cdd08db1558ad291e1b5912b75232_ligand_9.pdbqt
 14 15 0 0 0
SMALL
GASTEIGER

@<TRIPOS>ATOM
      1  C          5.7450    1.3000   -0.3390 C.3     1  UNL1        0.0800
      2  C          5.1400    1.3130    1.0220 C.2     1  UNL1        0.1300
      3  C          5.2810    0.1590    1.9500 C.3     1  UNL1        0.0870
      4  O          4.5060    2.2780    1.4170 O.2     1  UNL1       -0.3000
      5  C          7.2420    1.0710   -0.2730 C.3     1  UNL1        0.0430
      6  C          7.6240   -0.2200   -0.8730 C.2     1  UNL1       -0.0440
      7  C          7.7120   -0.3870   -2.2600 C.2     1  UNL1        0.0080
      8  C          7.9040   -1.2940   -0.0590 C.2     1  UNL1        0.0540
      9  C          8.0760   -1.6220   -2.7650 C.2     1  UNL1        0.0510
     10  C          8.2720   -2.5400   -0.5750 C.2     1  UNL1        0.1660
     11  C          8.3580   -2.7060   -1.9390 C.2     1  UNL1        0.1650
     12  O          8.5940   -3.7440    0.0160 O.2     1  UNL1       -0.4540
     13  O          8.7370   -4.0200   -2.1610 O.2     1  UNL1       -0.4540
     14  C          8.9860   -4.6890   -0.9470 C.3     1  UNL1        0.4680
@<TRIPOS>BOND
     1     9     7    1
     2     9    11    2
     3     7     6    2
     4    13    11    1
     5    13    14    1
     6    11    10    1
     7    14    12    1
     8     6     5    1
     9     6     8    1
    10    10     8    2
    11    10    12    1
    12     1     5    1
    13     1     2    1
    14     2     4    2
    15     2     3    1
