@<TRIPOS>MOLECULE
/home/cewinharhar/GITHUB/reincatalyze/data/processed/docking_pred/2023-May-22-1902_sub9_nm5_bs15_s42_ex16_mel10_mts1000_k50_ec02_g099_lra9e-4_lrc1e-3/2b606219d5526e18d91eeb9dfd7a568ae4147191_ligand_9.pdbqt
 14 15 0 0 0
SMALL
GASTEIGER

@<TRIPOS>ATOM
      1  C          5.4950    2.8770    0.0600 C.3     1  UNL1        0.0800
      2  C          6.3430    3.7280    0.9400 C.2     1  UNL1        0.1300
      3  C          7.2530    4.7640    0.3820 C.3     1  UNL1        0.0870
      4  O          6.3150    3.5990    2.1530 O.2     1  UNL1       -0.3000
      5  C          5.1950    1.5410    0.7110 C.3     1  UNL1        0.0430
      6  C          6.0220    0.4600    0.1460 C.2     1  UNL1       -0.0440
      7  C          6.3590    0.4270   -1.2120 C.2     1  UNL1        0.0080
      8  C          6.4810   -0.5470    0.9660 C.2     1  UNL1        0.0540
      9  C          7.1380   -0.6120   -1.6850 C.2     1  UNL1        0.0510
     10  C          7.2700   -1.5950    0.4820 C.2     1  UNL1        0.1660
     11  C          7.6010   -1.6280   -0.8540 C.2     1  UNL1        0.1650
     12  O          7.8400   -2.6960    1.0840 O.2     1  UNL1       -0.4540
     13  O          8.3760   -2.7610   -1.0470 O.2     1  UNL1       -0.4540
     14  C          8.6290   -3.4180    0.1720 C.3     1  UNL1        0.4680
@<TRIPOS>BOND
     1     9     7    1
     2     9    11    2
     3     7     6    2
     4    13    11    1
     5    13    14    1
     6    11    10    1
     7     1     5    1
     8     1     2    1
     9     6     5    1
    10     6     8    1
    11    14    12    1
    12     3     2    1
    13    10     8    2
    14    10    12    1
    15     2     4    2
