@<TRIPOS>MOLECULE
/home/cewinharhar/GITHUB/reincatalyze/data/processed/docking_pred/2023-May-22-1902_sub9_nm5_bs15_s42_ex16_mel10_mts1000_k50_ec02_g099_lra9e-4_lrc1e-3/2b606219d5526e18d91eeb9dfd7a568ae4147191_ligand_9.pdbqt
 14 15 0 0 0
SMALL
GASTEIGER

@<TRIPOS>ATOM
      1  C          5.8030    1.3640   -0.3770 C.3     1  UNL1        0.0800
      2  C          5.1630    1.3320    0.9670 C.2     1  UNL1        0.1300
      3  C          5.4240    0.2280    1.9300 C.3     1  UNL1        0.0870
      4  O          4.4000    2.2170    1.3200 O.2     1  UNL1       -0.3000
      5  C          7.2880    1.0750   -0.2870 C.3     1  UNL1        0.0430
      6  C          7.6290   -0.2250   -0.8940 C.2     1  UNL1       -0.0440
      7  C          7.6550   -0.4010   -2.2820 C.2     1  UNL1        0.0080
      8  C          7.9330   -1.2960   -0.0850 C.2     1  UNL1        0.0540
      9  C          7.9830   -1.6430   -2.7940 C.2     1  UNL1        0.0510
     10  C          8.2650   -2.5500   -0.6080 C.2     1  UNL1        0.1660
     11  C          8.2900   -2.7250   -1.9740 C.2     1  UNL1        0.1650
     12  O          8.6000   -3.7530   -0.0240 O.2     1  UNL1       -0.4540
     13  O          8.6440   -4.0450   -2.2020 O.2     1  UNL1       -0.4540
     14  C          8.9390   -4.7080   -0.9960 C.3     1  UNL1        0.4680
@<TRIPOS>BOND
     1     9     7    1
     2     9    11    2
     3     7     6    2
     4    13    11    1
     5    13    14    1
     6    11    10    1
     7    14    12    1
     8     6     5    1
     9     6     8    1
    10    10     8    2
    11    10    12    1
    12     1     5    1
    13     1     2    1
    14     2     4    2
    15     2     3    1
