@<TRIPOS>MOLECULE
/home/cewinharhar/GITHUB/reincatalyze/data/processed/docking_pred/2023-May-22-1902_sub9_nm5_bs15_s42_ex16_mel10_mts1000_k50_ec02_g099_lra9e-4_lrc1e-3/2b606219d5526e18d91eeb9dfd7a568ae4147191_ligand_9.pdbqt
 14 15 0 0 0
SMALL
GASTEIGER

@<TRIPOS>ATOM
      1  C          5.5480    1.9320    1.2700 C.3     1  UNL1        0.0800
      2  C          5.1210    0.7140    2.0130 C.2     1  UNL1        0.1300
      3  C          6.0330   -0.4470    2.1980 C.3     1  UNL1        0.0870
      4  O          4.0020    0.6330    2.4940 O.2     1  UNL1       -0.3000
      5  C          5.4140    1.7390   -0.2280 C.3     1  UNL1        0.0430
      6  C          6.5770    1.0330   -0.7940 C.2     1  UNL1       -0.0440
      7  C          7.8870    1.4610   -0.5440 C.2     1  UNL1        0.0080
      8  C          6.3840   -0.0750   -1.5870 C.2     1  UNL1        0.0540
      9  C          8.9400    0.7580   -1.1010 C.2     1  UNL1        0.0510
     10  C          7.4520   -0.7820   -2.1470 C.2     1  UNL1        0.1660
     11  C          8.7400   -0.3610   -1.9030 C.2     1  UNL1        0.1650
     12  O          7.5190   -1.8950   -2.9570 O.2     1  UNL1       -0.4540
     13  O          9.5810   -1.2360   -2.5740 O.2     1  UNL1       -0.4540
     14  C          8.8530   -2.2760   -3.1810 C.3     1  UNL1        0.4680
@<TRIPOS>BOND
     1    14    12    1
     2    14    13    1
     3    12    10    1
     4    13    11    1
     5    10    11    2
     6    10     8    1
     7    11     9    1
     8     8     6    2
     9     9     7    2
    10     6     7    1
    11     6     5    1
    12     5     1    1
    13     1     2    1
    14     2     3    1
    15     2     4    2
