@<TRIPOS>MOLECULE
/home/cewinharhar/GITHUB/reincatalyze/data/processed/docking_pred/2023-May-22-1902_sub9_nm5_bs15_s42_ex16_mel10_mts1000_k50_ec02_g099_lra9e-4_lrc1e-3/2b606219d5526e18d91eeb9dfd7a568ae4147191_ligand_9.pdbqt
 14 15 0 0 0
SMALL
GASTEIGER

@<TRIPOS>ATOM
      1  C          5.7780    1.3410   -0.3940 C.3     1  UNL1        0.0800
      2  C          5.3830    2.3630    0.6150 C.2     1  UNL1        0.1300
      3  C          6.1450    3.6300    0.7820 C.3     1  UNL1        0.0870
      4  O          4.4160    2.1880    1.3380 O.2     1  UNL1       -0.3000
      5  C          7.2800    1.1420   -0.4180 C.3     1  UNL1        0.0430
      6  C          7.6490   -0.1700   -0.9780 C.2     1  UNL1       -0.0440
      7  C          7.7600   -0.3720   -2.3590 C.2     1  UNL1        0.0080
      8  C          7.8960   -1.2280   -0.1330 C.2     1  UNL1        0.0540
      9  C          8.1110   -1.6260   -2.8270 C.2     1  UNL1        0.0510
     10  C          8.2510   -2.4920   -0.6110 C.2     1  UNL1        0.1660
     11  C          8.3590   -2.6930   -1.9700 C.2     1  UNL1        0.1650
     12  O          8.5410   -3.6860    0.0140 O.2     1  UNL1       -0.4540
     13  O          8.7180   -4.0190   -2.1510 O.2     1  UNL1       -0.4540
     14  C          8.9330   -4.6620   -0.9170 C.3     1  UNL1        0.4680
@<TRIPOS>BOND
     1     9     7    1
     2     9    11    2
     3     7     6    2
     4    13    11    1
     5    13    14    1
     6    11    10    1
     7     6     5    1
     8     6     8    1
     9    14    12    1
    10    10     8    2
    11    10    12    1
    12     5     1    1
    13     1     2    1
    14     2     3    1
    15     2     4    2
