@<TRIPOS>MOLECULE
/home/cewinharhar/GITHUB/reincatalyze/data/processed/docking_pred/2023-May-22-1902_sub9_nm5_bs15_s42_ex16_mel10_mts1000_k50_ec02_g099_lra9e-4_lrc1e-3/2b606219d5526e18d91eeb9dfd7a568ae4147191_ligand_9.pdbqt
 14 15 0 0 0
SMALL
GASTEIGER

@<TRIPOS>ATOM
      1  C          5.4320    2.9390    0.0960 C.3     1  UNL1        0.0800
      2  C          6.2860    3.8230    0.9380 C.2     1  UNL1        0.1300
      3  C          7.2590    4.7740    0.3360 C.3     1  UNL1        0.0870
      4  O          6.2110    3.7920    2.1560 O.2     1  UNL1       -0.3000
      5  C          5.1120    1.6410    0.8100 C.3     1  UNL1        0.0430
      6  C          5.9420    0.5280    0.3190 C.2     1  UNL1       -0.0440
      7  C          6.2600   -0.5650    1.1340 C.2     1  UNL1        0.0080
      8  C          6.4190    0.5510   -0.9720 C.2     1  UNL1        0.0540
      9  C          7.0430   -1.5820    0.6180 C.2     1  UNL1        0.0510
     10  C          7.2100   -0.4800   -1.4890 C.2     1  UNL1        0.1660
     11  C          7.5250   -1.5550   -0.6870 C.2     1  UNL1        0.1650
     12  O          7.7980   -0.6870   -2.7190 O.2     1  UNL1       -0.4540
     13  O          8.3060   -2.4090   -1.4500 O.2     1  UNL1       -0.4540
     14  C          8.4280   -1.9410   -2.7720 C.3     1  UNL1        0.4680
@<TRIPOS>BOND
     1    14    12    1
     2    14    13    1
     3    12    10    1
     4    10     8    1
     5    10    11    2
     6    13    11    1
     7     8     6    2
     8    11     9    1
     9     1     5    1
    10     1     2    1
    11     6     5    1
    12     6     7    1
    13     3     2    1
    14     9     7    2
    15     2     4    2
