MODEL 1
REMARK VINA RESULT:      -7.9      0.000      0.000
REMARK SMILES CC(=O)CCc1ccc2c(c1)OCO2
REMARK SMILES IDX 4 1 2 2 1 3 3 4 5 5 6 6 7 7 11 8 8 9 10 10 9 11 12 12 14 13
REMARK SMILES IDX 13 14
REMARK H PARENT
REMARK Flexibility Score: inf
ROOT
ATOM      1  C   UNL     1       5.432   2.939   0.096  1.00  0.00     0.080 C 
ENDROOT
BRANCH   1   2
ATOM      2  C   UNL     1       6.286   3.823   0.938  1.00  0.00     0.130 C 
ATOM      3  C   UNL     1       7.259   4.774   0.336  1.00  0.00     0.087 C 
ATOM      4  O   UNL     1       6.211   3.792   2.156  1.00  0.00    -0.300 OA
ENDBRANCH   1   2
BRANCH   1   5
ATOM      5  C   UNL     1       5.112   1.641   0.810  1.00  0.00     0.043 C 
BRANCH   5   6
ATOM      6  C   UNL     1       5.942   0.528   0.319  1.00  0.00    -0.044 A 
ATOM      7  C   UNL     1       6.260  -0.565   1.134  1.00  0.00     0.008 A 
ATOM      8  C   UNL     1       6.419   0.551  -0.972  1.00  0.00     0.054 A 
ATOM      9  C   UNL     1       7.043  -1.582   0.618  1.00  0.00     0.051 A 
ATOM     10  C   UNL     1       7.210  -0.480  -1.489  1.00  0.00     0.166 A 
ATOM     11  C   UNL     1       7.525  -1.555  -0.687  1.00  0.00     0.165 A 
ATOM     12  O   UNL     1       7.798  -0.687  -2.719  1.00  0.00    -0.454 OA
ATOM     13  O   UNL     1       8.306  -2.409  -1.450  1.00  0.00    -0.454 OA
ATOM     14  C   UNL     1       8.428  -1.941  -2.772  1.00  0.00     0.468 C 
ENDBRANCH   5   6
ENDBRANCH   1   5
TORSDOF 3
ENDMDL
MODEL 2
REMARK VINA RESULT:      -7.8      0.960      1.940
REMARK SMILES CC(=O)CCc1ccc2c(c1)OCO2
REMARK SMILES IDX 4 1 2 2 1 3 3 4 5 5 6 6 7 7 11 8 8 9 10 10 9 11 12 12 14 13
REMARK SMILES IDX 13 14
REMARK H PARENT
REMARK Flexibility Score: inf
ROOT
ATOM      1  C   UNL     1       5.495   2.877   0.060  1.00  0.00     0.080 C 
ENDROOT
BRANCH   1   2
ATOM      2  C   UNL     1       6.343   3.728   0.940  1.00  0.00     0.130 C 
ATOM      3  C   UNL     1       7.253   4.764   0.382  1.00  0.00     0.087 C 
ATOM      4  O   UNL     1       6.315   3.599   2.153  1.00  0.00    -0.300 OA
ENDBRANCH   1   2
BRANCH   1   5
ATOM      5  C   UNL     1       5.195   1.541   0.711  1.00  0.00     0.043 C 
BRANCH   5   6
ATOM      6  C   UNL     1       6.022   0.460   0.146  1.00  0.00    -0.044 A 
ATOM      7  C   UNL     1       6.359   0.427  -1.212  1.00  0.00     0.008 A 
ATOM      8  C   UNL     1       6.481  -0.547   0.966  1.00  0.00     0.054 A 
ATOM      9  C   UNL     1       7.138  -0.612  -1.685  1.00  0.00     0.051 A 
ATOM     10  C   UNL     1       7.270  -1.595   0.482  1.00  0.00     0.166 A 
ATOM     11  C   UNL     1       7.601  -1.628  -0.854  1.00  0.00     0.165 A 
ATOM     12  O   UNL     1       7.840  -2.696   1.084  1.00  0.00    -0.454 OA
ATOM     13  O   UNL     1       8.376  -2.761  -1.047  1.00  0.00    -0.454 OA
ATOM     14  C   UNL     1       8.629  -3.418   0.172  1.00  0.00     0.468 C 
ENDBRANCH   5   6
ENDBRANCH   1   5
TORSDOF 3
ENDMDL
MODEL 3
REMARK VINA RESULT:      -7.6      1.886      2.652
REMARK SMILES CC(=O)CCc1ccc2c(c1)OCO2
REMARK SMILES IDX 4 1 2 2 1 3 3 4 5 5 6 6 7 7 11 8 8 9 10 10 9 11 12 12 14 13
REMARK SMILES IDX 13 14
REMARK H PARENT
REMARK Flexibility Score: inf
ROOT
ATOM      1  C   UNL     1       5.548   1.932   1.270  1.00  0.00     0.080 C 
ENDROOT
BRANCH   1   2
ATOM      2  C   UNL     1       5.121   0.714   2.013  1.00  0.00     0.130 C 
ATOM      3  C   UNL     1       6.033  -0.447   2.198  1.00  0.00     0.087 C 
ATOM      4  O   UNL     1       4.002   0.633   2.494  1.00  0.00    -0.300 OA
ENDBRANCH   1   2
BRANCH   1   5
ATOM      5  C   UNL     1       5.414   1.739  -0.228  1.00  0.00     0.043 C 
BRANCH   5   6
ATOM      6  C   UNL     1       6.577   1.033  -0.794  1.00  0.00    -0.044 A 
ATOM      7  C   UNL     1       7.887   1.461  -0.544  1.00  0.00     0.008 A 
ATOM      8  C   UNL     1       6.384  -0.075  -1.587  1.00  0.00     0.054 A 
ATOM      9  C   UNL     1       8.940   0.758  -1.101  1.00  0.00     0.051 A 
ATOM     10  C   UNL     1       7.452  -0.782  -2.147  1.00  0.00     0.166 A 
ATOM     11  C   UNL     1       8.740  -0.361  -1.903  1.00  0.00     0.165 A 
ATOM     12  O   UNL     1       7.519  -1.895  -2.957  1.00  0.00    -0.454 OA
ATOM     13  O   UNL     1       9.581  -1.236  -2.574  1.00  0.00    -0.454 OA
ATOM     14  C   UNL     1       8.853  -2.276  -3.181  1.00  0.00     0.468 C 
ENDBRANCH   5   6
ENDBRANCH   1   5
TORSDOF 3
ENDMDL
MODEL 4
REMARK VINA RESULT:      -7.5      1.964      3.032
REMARK SMILES CC(=O)CCc1ccc2c(c1)OCO2
REMARK SMILES IDX 4 1 2 2 1 3 3 4 5 5 6 6 7 7 11 8 8 9 10 10 9 11 12 12 14 13
REMARK SMILES IDX 13 14
REMARK H PARENT
REMARK Flexibility Score: inf
ROOT
ATOM      1  C   UNL     1       5.803   1.364  -0.377  1.00  0.00     0.080 C 
ENDROOT
BRANCH   1   2
ATOM      2  C   UNL     1       5.163   1.332   0.967  1.00  0.00     0.130 C 
ATOM      3  C   UNL     1       5.424   0.228   1.930  1.00  0.00     0.087 C 
ATOM      4  O   UNL     1       4.400   2.217   1.320  1.00  0.00    -0.300 OA
ENDBRANCH   1   2
BRANCH   1   5
ATOM      5  C   UNL     1       7.288   1.075  -0.287  1.00  0.00     0.043 C 
BRANCH   5   6
ATOM      6  C   UNL     1       7.629  -0.225  -0.894  1.00  0.00    -0.044 A 
ATOM      7  C   UNL     1       7.655  -0.401  -2.282  1.00  0.00     0.008 A 
ATOM      8  C   UNL     1       7.933  -1.296  -0.085  1.00  0.00     0.054 A 
ATOM      9  C   UNL     1       7.983  -1.643  -2.794  1.00  0.00     0.051 A 
ATOM     10  C   UNL     1       8.265  -2.550  -0.608  1.00  0.00     0.166 A 
ATOM     11  C   UNL     1       8.290  -2.725  -1.974  1.00  0.00     0.165 A 
ATOM     12  O   UNL     1       8.600  -3.753  -0.024  1.00  0.00    -0.454 OA
ATOM     13  O   UNL     1       8.644  -4.045  -2.202  1.00  0.00    -0.454 OA
ATOM     14  C   UNL     1       8.939  -4.708  -0.996  1.00  0.00     0.468 C 
ENDBRANCH   5   6
ENDBRANCH   1   5
TORSDOF 3
ENDMDL
MODEL 5
REMARK VINA RESULT:      -7.4      1.605      2.688
REMARK SMILES CC(=O)CCc1ccc2c(c1)OCO2
REMARK SMILES IDX 4 1 2 2 1 3 3 4 5 5 6 6 7 7 11 8 8 9 10 10 9 11 12 12 14 13
REMARK SMILES IDX 13 14
REMARK H PARENT
REMARK Flexibility Score: inf
ROOT
ATOM      1  C   UNL     1       5.778   1.341  -0.394  1.00  0.00     0.080 C 
ENDROOT
BRANCH   1   2
ATOM      2  C   UNL     1       5.383   2.363   0.615  1.00  0.00     0.130 C 
ATOM      3  C   UNL     1       6.145   3.630   0.782  1.00  0.00     0.087 C 
ATOM      4  O   UNL     1       4.416   2.188   1.338  1.00  0.00    -0.300 OA
ENDBRANCH   1   2
BRANCH   1   5
ATOM      5  C   UNL     1       7.280   1.142  -0.418  1.00  0.00     0.043 C 
BRANCH   5   6
ATOM      6  C   UNL     1       7.649  -0.170  -0.978  1.00  0.00    -0.044 A 
ATOM      7  C   UNL     1       7.760  -0.372  -2.359  1.00  0.00     0.008 A 
ATOM      8  C   UNL     1       7.896  -1.228  -0.133  1.00  0.00     0.054 A 
ATOM      9  C   UNL     1       8.111  -1.626  -2.827  1.00  0.00     0.051 A 
ATOM     10  C   UNL     1       8.251  -2.492  -0.611  1.00  0.00     0.166 A 
ATOM     11  C   UNL     1       8.359  -2.693  -1.970  1.00  0.00     0.165 A 
ATOM     12  O   UNL     1       8.541  -3.686   0.014  1.00  0.00    -0.454 OA
ATOM     13  O   UNL     1       8.718  -4.019  -2.151  1.00  0.00    -0.454 OA
ATOM     14  C   UNL     1       8.933  -4.662  -0.917  1.00  0.00     0.468 C 
ENDBRANCH   5   6
ENDBRANCH   1   5
TORSDOF 3
ENDMDL
