@<TRIPOS>MOLECULE
/home/cewinharhar/GITHUB/reincatalyze/data/processed/docking_pred/2023-May-22-1902_sub9_nm5_bs15_s42_ex16_mel10_mts1000_k50_ec02_g099_lra9e-4_lrc1e-3/2b611616233e02901686b2fc0a6dd8ec9c570ff2_ligand_9.pdbqt
 14 15 0 0 0
SMALL
GASTEIGER

@<TRIPOS>ATOM
      1  C          5.5340    1.9380    1.2650 C.3     1  UNL1        0.0800
      2  C          5.1220    0.7190    2.0160 C.2     1  UNL1        0.1300
      3  C          6.0430   -0.4350    2.1980 C.3     1  UNL1        0.0870
      4  O          4.0080    0.6320    2.5070 O.2     1  UNL1       -0.3000
      5  C          5.4010    1.7330   -0.2310 C.3     1  UNL1        0.0430
      6  C          6.5700    1.0330   -0.7930 C.2     1  UNL1       -0.0440
      7  C          7.8770    1.4630   -0.5340 C.2     1  UNL1        0.0080
      8  C          6.3840   -0.0730   -1.5910 C.2     1  UNL1        0.0540
      9  C          8.9350    0.7650   -1.0880 C.2     1  UNL1        0.0510
     10  C          7.4570   -0.7750   -2.1480 C.2     1  UNL1        0.1660
     11  C          8.7430   -0.3520   -1.8950 C.2     1  UNL1        0.1650
     12  O          7.5330   -1.8850   -2.9620 O.2     1  UNL1       -0.4540
     13  O          9.5900   -1.2210   -2.5640 O.2     1  UNL1       -0.4540
     14  C          8.8680   -2.2620   -3.1790 C.3     1  UNL1        0.4680
@<TRIPOS>BOND
     1    14    12    1
     2    14    13    1
     3    12    10    1
     4    13    11    1
     5    10    11    2
     6    10     8    1
     7    11     9    1
     8     8     6    2
     9     9     7    2
    10     6     7    1
    11     6     5    1
    12     5     1    1
    13     1     2    1
    14     2     3    1
    15     2     4    2
