@<TRIPOS>MOLECULE
/home/cewinharhar/GITHUB/reincatalyze/data/processed/docking_pred/2023-May-22-1902_sub9_nm5_bs15_s42_ex16_mel10_mts1000_k50_ec02_g099_lra9e-4_lrc1e-3/2b611616233e02901686b2fc0a6dd8ec9c570ff2_ligand_9.pdbqt
 14 15 0 0 0
SMALL
GASTEIGER

@<TRIPOS>ATOM
      1  C          6.3550    0.9260    1.0490 C.3     1  UNL1        0.0800
      2  C          5.1180    1.7500    0.9390 C.2     1  UNL1        0.1300
      3  C          4.8790    2.6470   -0.2230 C.3     1  UNL1        0.0870
      4  O          4.2610    1.7120    1.8070 O.2     1  UNL1       -0.3000
      5  C          7.2510    1.1150   -0.1590 C.3     1  UNL1        0.0430
      6  C          7.5870   -0.1710   -0.7950 C.2     1  UNL1       -0.0440
      7  C          7.5900   -0.3220   -2.1870 C.2     1  UNL1        0.0080
      8  C          7.9100   -1.2560   -0.0120 C.2     1  UNL1        0.0540
      9  C          7.9140   -1.5520   -2.7280 C.2     1  UNL1        0.0510
     10  C          8.2390   -2.4980   -0.5650 C.2     1  UNL1        0.1660
     11  C          8.2400   -2.6470   -1.9340 C.2     1  UNL1        0.1650
     12  O          8.5900   -3.7100   -0.0090 O.2     1  UNL1       -0.4540
     13  O          8.5970   -3.9610   -2.1930 O.2     1  UNL1       -0.4540
     14  C          8.9160   -4.6460   -1.0050 C.3     1  UNL1        0.4680
@<TRIPOS>BOND
     1     9     7    1
     2     9    11    2
     3    13    11    1
     4    13    14    1
     5     7     6    2
     6    11    10    1
     7    14    12    1
     8     6     5    1
     9     6     8    1
    10    10     8    2
    11    10    12    1
    12     3     2    1
    13     5     1    1
    14     2     1    1
    15     2     4    2
