@<TRIPOS>MOLECULE
/home/cewinharhar/GITHUB/reincatalyze/data/processed/docking_pred/2023-May-22-1902_sub9_nm5_bs15_s42_ex16_mel10_mts1000_k50_ec02_g099_lra9e-4_lrc1e-3/2bd7ebd6000506c3611824cd415c5dddcf27ad2f_ligand_9.pdbqt
 14 15 0 0 0
SMALL
GASTEIGER

@<TRIPOS>ATOM
      1  C          5.3760    3.0010    0.1690 C.3     1  UNL1        0.0800
      2  C          6.2790    3.8610    0.9840 C.2     1  UNL1        0.1300
      3  C          7.2690    4.7730    0.3510 C.3     1  UNL1        0.0870
      4  O          6.2320    3.8410    2.2030 O.2     1  UNL1       -0.3000
      5  C          5.1170    1.6730    0.8530 C.3     1  UNL1        0.0430
      6  C          5.9580    0.5980    0.2970 C.2     1  UNL1       -0.0440
      7  C          6.3620    0.6020   -1.0430 C.2     1  UNL1        0.0080
      8  C          6.3650   -0.4380    1.1070 C.2     1  UNL1        0.0540
      9  C          7.1520   -0.4330   -1.5090 C.2     1  UNL1        0.0510
     10  C          7.1650   -1.4810    0.6320 C.2     1  UNL1        0.1660
     11  C          7.5610   -1.4790   -0.6870 C.2     1  UNL1        0.1650
     12  O          7.6920   -2.6070    1.2270 O.2     1  UNL1       -0.4540
     13  O          8.3330   -2.6150   -0.8760 O.2     1  UNL1       -0.4540
     14  C          8.5170   -3.3110    0.3340 C.3     1  UNL1        0.4680
@<TRIPOS>BOND
     1     9     7    1
     2     9    11    2
     3     7     6    2
     4    13    11    1
     5    13    14    1
     6    11    10    1
     7     1     5    1
     8     1     2    1
     9     6     5    1
    10     6     8    1
    11    14    12    1
    12     3     2    1
    13    10     8    2
    14    10    12    1
    15     2     4    2
