@<TRIPOS>MOLECULE
/home/cewinharhar/GITHUB/reincatalyze/data/processed/docking_pred/2023-May-22-1902_sub9_nm5_bs15_s42_ex16_mel10_mts1000_k50_ec02_g099_lra9e-4_lrc1e-3/2bd7ebd6000506c3611824cd415c5dddcf27ad2f_ligand_9.pdbqt
 14 15 0 0 0
SMALL
GASTEIGER

@<TRIPOS>ATOM
      1  C          5.7600    1.3100   -0.3830 C.3     1  UNL1        0.0800
      2  C          5.1660    1.3220    0.9830 C.2     1  UNL1        0.1300
      3  C          5.3930    0.2080    1.9420 C.3     1  UNL1        0.0870
      4  O          4.4710    2.2530    1.3560 O.2     1  UNL1       -0.3000
      5  C          7.2540    1.0590   -0.3320 C.3     1  UNL1        0.0430
      6  C          7.6090   -0.2430   -0.9240 C.2     1  UNL1       -0.0440
      7  C          7.6500   -0.4310   -2.3100 C.2     1  UNL1        0.0080
      8  C          7.9130   -1.3050   -0.1030 C.2     1  UNL1        0.0540
      9  C          7.9910   -1.6760   -2.8080 C.2     1  UNL1        0.0510
     10  C          8.2580   -2.5610   -0.6120 C.2     1  UNL1        0.1660
     11  C          8.2970   -2.7480   -1.9760 C.2     1  UNL1        0.1650
     12  O          8.5960   -3.7570   -0.0140 O.2     1  UNL1       -0.4540
     13  O          8.6630   -4.0670   -2.1890 O.2     1  UNL1       -0.4540
     14  C          8.9510   -4.7180   -0.9750 C.3     1  UNL1        0.4680
@<TRIPOS>BOND
     1     9     7    1
     2     9    11    2
     3     7     6    2
     4    13    11    1
     5    13    14    1
     6    11    10    1
     7    14    12    1
     8     6     5    1
     9     6     8    1
    10    10     8    2
    11    10    12    1
    12     1     5    1
    13     1     2    1
    14     2     4    2
    15     2     3    1
