@<TRIPOS>MOLECULE
/home/cewinharhar/GITHUB/reincatalyze/data/processed/docking_pred/2023-May-22-1902_sub9_nm5_bs15_s42_ex16_mel10_mts1000_k50_ec02_g099_lra9e-4_lrc1e-3/2bd7ebd6000506c3611824cd415c5dddcf27ad2f_ligand_9.pdbqt
 14 15 0 0 0
SMALL
GASTEIGER

@<TRIPOS>ATOM
      1  C          5.5020    1.9240    1.2570 C.3     1  UNL1        0.0800
      2  C          5.0370    0.7150    1.9920 C.2     1  UNL1        0.1300
      3  C          5.8950   -0.4920    2.1310 C.3     1  UNL1        0.0870
      4  O          3.9310    0.6800    2.5050 O.2     1  UNL1       -0.3000
      5  C          5.3840    1.7350   -0.2430 C.3     1  UNL1        0.0430
      6  C          6.5540    1.0340   -0.8000 C.2     1  UNL1       -0.0440
      7  C          7.8600    1.4700   -0.5430 C.2     1  UNL1        0.0080
      8  C          6.3720   -0.0780   -1.5900 C.2     1  UNL1        0.0540
      9  C          8.9200    0.7710   -1.0920 C.2     1  UNL1        0.0510
     10  C          7.4470   -0.7800   -2.1420 C.2     1  UNL1        0.1660
     11  C          8.7310   -0.3520   -1.8910 C.2     1  UNL1        0.1650
     12  O          7.5260   -1.8960   -2.9480 O.2     1  UNL1       -0.4540
     13  O          9.5810   -1.2240   -2.5540 O.2     1  UNL1       -0.4540
     14  C          8.8620   -2.2710   -3.1620 C.3     1  UNL1        0.4680
@<TRIPOS>BOND
     1    14    12    1
     2    14    13    1
     3    12    10    1
     4    13    11    1
     5    10    11    2
     6    10     8    1
     7    11     9    1
     8     8     6    2
     9     9     7    2
    10     6     7    1
    11     6     5    1
    12     5     1    1
    13     1     2    1
    14     2     3    1
    15     2     4    2
