@<TRIPOS>MOLECULE
/home/cewinharhar/GITHUB/reincatalyze/data/processed/docking_pred/2023-May-22-1902_sub9_nm5_bs15_s42_ex16_mel10_mts1000_k50_ec02_g099_lra9e-4_lrc1e-3/2bd7ebd6000506c3611824cd415c5dddcf27ad2f_ligand_9.pdbqt
 14 15 0 0 0
SMALL
GASTEIGER

@<TRIPOS>ATOM
      1  C          6.3240    0.8940    1.0660 C.3     1  UNL1        0.0800
      2  C          5.1110    1.7460    0.9210 C.2     1  UNL1        0.1300
      3  C          4.8970    2.6020   -0.2770 C.3     1  UNL1        0.0870
      4  O          4.2520    1.7660    1.7870 O.2     1  UNL1       -0.3000
      5  C          7.2710    1.0790   -0.1030 C.3     1  UNL1        0.0430
      6  C          7.5970   -0.2040   -0.7510 C.2     1  UNL1       -0.0440
      7  C          7.5710   -0.3510   -2.1420 C.2     1  UNL1        0.0080
      8  C          7.9390   -1.2910    0.0220 C.2     1  UNL1        0.0540
      9  C          7.8880   -1.5790   -2.6940 C.2     1  UNL1        0.0510
     10  C          8.2590   -2.5300   -0.5400 C.2     1  UNL1        0.1660
     11  C          8.2330   -2.6750   -1.9090 C.2     1  UNL1        0.1650
     12  O          8.6250   -3.7430    0.0040 O.2     1  UNL1       -0.4540
     13  O          8.5880   -3.9880   -2.1800 O.2     1  UNL1       -0.4540
     14  C          8.9330   -4.6740   -1.0010 C.3     1  UNL1        0.4680
@<TRIPOS>BOND
     1     9     7    1
     2     9    11    2
     3    13    11    1
     4    13    14    1
     5     7     6    2
     6    11    10    1
     7    14    12    1
     8     6     5    1
     9     6     8    1
    10    10    12    1
    11    10     8    2
    12     3     2    1
    13     5     1    1
    14     2     1    1
    15     2     4    2
