@<TRIPOS>MOLECULE
/home/cewinharhar/GITHUB/reincatalyze/data/processed/docking_pred/2023-May-22-1902_sub9_nm5_bs15_s42_ex16_mel10_mts1000_k50_ec02_g099_lra9e-4_lrc1e-3/2bd7ebd6000506c3611824cd415c5dddcf27ad2f_ligand_9.pdbqt
 14 15 0 0 0
SMALL
GASTEIGER

@<TRIPOS>ATOM
      1  C          5.4370    2.9170    0.1210 C.3     1  UNL1        0.0800
      2  C          6.2860    3.8300    0.9370 C.2     1  UNL1        0.1300
      3  C          7.2480    4.7740    0.3070 C.3     1  UNL1        0.0870
      4  O          6.2160    3.8280    2.1560 O.2     1  UNL1       -0.3000
      5  C          5.1850    1.6080    0.8420 C.3     1  UNL1        0.0430
      6  C          6.0180    0.5180    0.3040 C.2     1  UNL1       -0.0440
      7  C          6.3670   -0.5910    1.0840 C.2     1  UNL1        0.0080
      8  C          6.4660    0.5810   -0.9950 C.2     1  UNL1        0.0540
      9  C          7.1500   -1.5840    0.5250 C.2     1  UNL1        0.0510
     10  C          7.2580   -0.4260   -1.5560 C.2     1  UNL1        0.1660
     11  C          7.6030   -1.5170   -0.7900 C.2     1  UNL1        0.1650
     12  O          7.8210   -0.5940   -2.8030 O.2     1  UNL1       -0.4540
     13  O          8.3780   -2.3410   -1.5910 O.2     1  UNL1       -0.4540
     14  C          8.4660   -1.8380   -2.9030 C.3     1  UNL1        0.4680
@<TRIPOS>BOND
     1    14    12    1
     2    14    13    1
     3    12    10    1
     4    13    11    1
     5    10     8    1
     6    10    11    2
     7     8     6    2
     8    11     9    1
     9     1     5    1
    10     1     2    1
    11     6     5    1
    12     6     7    1
    13     3     2    1
    14     9     7    2
    15     2     4    2
