MODEL 1
REMARK VINA RESULT:      -7.9      0.000      0.000
REMARK SMILES CC(=O)CCc1ccc2c(c1)OCO2
REMARK SMILES IDX 4 1 2 2 1 3 3 4 5 5 6 6 7 7 11 8 8 9 10 10 9 11 12 12 14 13
REMARK SMILES IDX 13 14
REMARK H PARENT
REMARK Flexibility Score: inf
ROOT
ATOM      1  C   UNL     1       5.437   2.917   0.121  1.00  0.00     0.080 C 
ENDROOT
BRANCH   1   2
ATOM      2  C   UNL     1       6.286   3.830   0.937  1.00  0.00     0.130 C 
ATOM      3  C   UNL     1       7.248   4.774   0.307  1.00  0.00     0.087 C 
ATOM      4  O   UNL     1       6.216   3.828   2.156  1.00  0.00    -0.300 OA
ENDBRANCH   1   2
BRANCH   1   5
ATOM      5  C   UNL     1       5.185   1.608   0.842  1.00  0.00     0.043 C 
BRANCH   5   6
ATOM      6  C   UNL     1       6.018   0.518   0.304  1.00  0.00    -0.044 A 
ATOM      7  C   UNL     1       6.367  -0.591   1.084  1.00  0.00     0.008 A 
ATOM      8  C   UNL     1       6.466   0.581  -0.995  1.00  0.00     0.054 A 
ATOM      9  C   UNL     1       7.150  -1.584   0.525  1.00  0.00     0.051 A 
ATOM     10  C   UNL     1       7.258  -0.426  -1.556  1.00  0.00     0.166 A 
ATOM     11  C   UNL     1       7.603  -1.517  -0.790  1.00  0.00     0.165 A 
ATOM     12  O   UNL     1       7.821  -0.594  -2.803  1.00  0.00    -0.454 OA
ATOM     13  O   UNL     1       8.378  -2.341  -1.591  1.00  0.00    -0.454 OA
ATOM     14  C   UNL     1       8.466  -1.838  -2.903  1.00  0.00     0.468 C 
ENDBRANCH   5   6
ENDBRANCH   1   5
TORSDOF 3
ENDMDL
MODEL 2
REMARK VINA RESULT:      -7.8      1.015      2.007
REMARK SMILES CC(=O)CCc1ccc2c(c1)OCO2
REMARK SMILES IDX 4 1 2 2 1 3 3 4 5 5 6 6 7 7 11 8 8 9 10 10 9 11 12 12 14 13
REMARK SMILES IDX 13 14
REMARK H PARENT
REMARK Flexibility Score: inf
ROOT
ATOM      1  C   UNL     1       5.376   3.001   0.169  1.00  0.00     0.080 C 
ENDROOT
BRANCH   1   2
ATOM      2  C   UNL     1       6.279   3.861   0.984  1.00  0.00     0.130 C 
ATOM      3  C   UNL     1       7.269   4.773   0.351  1.00  0.00     0.087 C 
ATOM      4  O   UNL     1       6.232   3.841   2.203  1.00  0.00    -0.300 OA
ENDBRANCH   1   2
BRANCH   1   5
ATOM      5  C   UNL     1       5.117   1.673   0.853  1.00  0.00     0.043 C 
BRANCH   5   6
ATOM      6  C   UNL     1       5.958   0.598   0.297  1.00  0.00    -0.044 A 
ATOM      7  C   UNL     1       6.362   0.602  -1.043  1.00  0.00     0.008 A 
ATOM      8  C   UNL     1       6.365  -0.438   1.107  1.00  0.00     0.054 A 
ATOM      9  C   UNL     1       7.152  -0.433  -1.509  1.00  0.00     0.051 A 
ATOM     10  C   UNL     1       7.165  -1.481   0.632  1.00  0.00     0.166 A 
ATOM     11  C   UNL     1       7.561  -1.479  -0.687  1.00  0.00     0.165 A 
ATOM     12  O   UNL     1       7.692  -2.607   1.227  1.00  0.00    -0.454 OA
ATOM     13  O   UNL     1       8.333  -2.615  -0.876  1.00  0.00    -0.454 OA
ATOM     14  C   UNL     1       8.517  -3.311   0.334  1.00  0.00     0.468 C 
ENDBRANCH   5   6
ENDBRANCH   1   5
TORSDOF 3
ENDMDL
MODEL 3
REMARK VINA RESULT:      -7.7      1.892      2.635
REMARK SMILES CC(=O)CCc1ccc2c(c1)OCO2
REMARK SMILES IDX 4 1 2 2 1 3 3 4 5 5 6 6 7 7 11 8 8 9 10 10 9 11 12 12 14 13
REMARK SMILES IDX 13 14
REMARK H PARENT
REMARK Flexibility Score: inf
ROOT
ATOM      1  C   UNL     1       5.502   1.924   1.257  1.00  0.00     0.080 C 
ENDROOT
BRANCH   1   2
ATOM      2  C   UNL     1       5.037   0.715   1.992  1.00  0.00     0.130 C 
ATOM      3  C   UNL     1       5.895  -0.492   2.131  1.00  0.00     0.087 C 
ATOM      4  O   UNL     1       3.931   0.680   2.505  1.00  0.00    -0.300 OA
ENDBRANCH   1   2
BRANCH   1   5
ATOM      5  C   UNL     1       5.384   1.735  -0.243  1.00  0.00     0.043 C 
BRANCH   5   6
ATOM      6  C   UNL     1       6.554   1.034  -0.800  1.00  0.00    -0.044 A 
ATOM      7  C   UNL     1       7.860   1.470  -0.543  1.00  0.00     0.008 A 
ATOM      8  C   UNL     1       6.372  -0.078  -1.590  1.00  0.00     0.054 A 
ATOM      9  C   UNL     1       8.920   0.771  -1.092  1.00  0.00     0.051 A 
ATOM     10  C   UNL     1       7.447  -0.780  -2.142  1.00  0.00     0.166 A 
ATOM     11  C   UNL     1       8.731  -0.352  -1.891  1.00  0.00     0.165 A 
ATOM     12  O   UNL     1       7.526  -1.896  -2.948  1.00  0.00    -0.454 OA
ATOM     13  O   UNL     1       9.581  -1.224  -2.554  1.00  0.00    -0.454 OA
ATOM     14  C   UNL     1       8.862  -2.271  -3.162  1.00  0.00     0.468 C 
ENDBRANCH   5   6
ENDBRANCH   1   5
TORSDOF 3
ENDMDL
MODEL 4
REMARK VINA RESULT:      -7.5      1.978      3.042
REMARK SMILES CC(=O)CCc1ccc2c(c1)OCO2
REMARK SMILES IDX 4 1 2 2 1 3 3 4 5 5 6 6 7 7 11 8 8 9 10 10 9 11 12 12 14 13
REMARK SMILES IDX 13 14
REMARK H PARENT
REMARK Flexibility Score: inf
ROOT
ATOM      1  C   UNL     1       5.760   1.310  -0.383  1.00  0.00     0.080 C 
ENDROOT
BRANCH   1   2
ATOM      2  C   UNL     1       5.166   1.322   0.983  1.00  0.00     0.130 C 
ATOM      3  C   UNL     1       5.393   0.208   1.942  1.00  0.00     0.087 C 
ATOM      4  O   UNL     1       4.471   2.253   1.356  1.00  0.00    -0.300 OA
ENDBRANCH   1   2
BRANCH   1   5
ATOM      5  C   UNL     1       7.254   1.059  -0.332  1.00  0.00     0.043 C 
BRANCH   5   6
ATOM      6  C   UNL     1       7.609  -0.243  -0.924  1.00  0.00    -0.044 A 
ATOM      7  C   UNL     1       7.650  -0.431  -2.310  1.00  0.00     0.008 A 
ATOM      8  C   UNL     1       7.913  -1.305  -0.103  1.00  0.00     0.054 A 
ATOM      9  C   UNL     1       7.991  -1.676  -2.808  1.00  0.00     0.051 A 
ATOM     10  C   UNL     1       8.258  -2.561  -0.612  1.00  0.00     0.166 A 
ATOM     11  C   UNL     1       8.297  -2.748  -1.976  1.00  0.00     0.165 A 
ATOM     12  O   UNL     1       8.596  -3.757  -0.014  1.00  0.00    -0.454 OA
ATOM     13  O   UNL     1       8.663  -4.067  -2.189  1.00  0.00    -0.454 OA
ATOM     14  C   UNL     1       8.951  -4.718  -0.975  1.00  0.00     0.468 C 
ENDBRANCH   5   6
ENDBRANCH   1   5
TORSDOF 3
ENDMDL
MODEL 5
REMARK VINA RESULT:      -7.4      1.838      2.833
REMARK SMILES CC(=O)CCc1ccc2c(c1)OCO2
REMARK SMILES IDX 4 1 2 2 1 3 3 4 5 5 6 6 7 7 11 8 8 9 10 10 9 11 12 12 14 13
REMARK SMILES IDX 13 14
REMARK H PARENT
REMARK Flexibility Score: inf
ROOT
ATOM      1  C   UNL     1       6.324   0.894   1.066  1.00  0.00     0.080 C 
ENDROOT
BRANCH   1   2
ATOM      2  C   UNL     1       5.111   1.746   0.921  1.00  0.00     0.130 C 
ATOM      3  C   UNL     1       4.897   2.602  -0.277  1.00  0.00     0.087 C 
ATOM      4  O   UNL     1       4.252   1.766   1.787  1.00  0.00    -0.300 OA
ENDBRANCH   1   2
BRANCH   1   5
ATOM      5  C   UNL     1       7.271   1.079  -0.103  1.00  0.00     0.043 C 
BRANCH   5   6
ATOM      6  C   UNL     1       7.597  -0.204  -0.751  1.00  0.00    -0.044 A 
ATOM      7  C   UNL     1       7.571  -0.351  -2.142  1.00  0.00     0.008 A 
ATOM      8  C   UNL     1       7.939  -1.291   0.022  1.00  0.00     0.054 A 
ATOM      9  C   UNL     1       7.888  -1.579  -2.694  1.00  0.00     0.051 A 
ATOM     10  C   UNL     1       8.259  -2.530  -0.540  1.00  0.00     0.166 A 
ATOM     11  C   UNL     1       8.233  -2.675  -1.909  1.00  0.00     0.165 A 
ATOM     12  O   UNL     1       8.625  -3.743   0.004  1.00  0.00    -0.454 OA
ATOM     13  O   UNL     1       8.588  -3.988  -2.180  1.00  0.00    -0.454 OA
ATOM     14  C   UNL     1       8.933  -4.674  -1.001  1.00  0.00     0.468 C 
ENDBRANCH   5   6
ENDBRANCH   1   5
TORSDOF 3
ENDMDL
