MODEL 1
REMARK VINA RESULT:      -7.9      0.000      0.000
REMARK SMILES CC(=O)CCc1ccc2c(c1)OCO2
REMARK SMILES IDX 4 1 2 2 1 3 3 4 5 5 6 6 7 7 11 8 8 9 10 10 9 11 12 12 14 13
REMARK SMILES IDX 13 14
REMARK H PARENT
REMARK Flexibility Score: inf
ROOT
ATOM      1  C   UNL     1       5.402   2.936   0.115  1.00  0.00     0.080 C 
ENDROOT
BRANCH   1   2
ATOM      2  C   UNL     1       6.304   3.775   0.953  1.00  0.00     0.130 C 
ATOM      3  C   UNL     1       7.226   4.774   0.349  1.00  0.00     0.087 C 
ATOM      4  O   UNL     1       6.312   3.665   2.169  1.00  0.00    -0.300 OA
ENDBRANCH   1   2
BRANCH   1   5
ATOM      5  C   UNL     1       5.083   1.620   0.797  1.00  0.00     0.043 C 
BRANCH   5   6
ATOM      6  C   UNL     1       5.944   0.529   0.309  1.00  0.00    -0.044 A 
ATOM      7  C   UNL     1       6.333  -0.527   1.142  1.00  0.00     0.008 A 
ATOM      8  C   UNL     1       6.381   0.536  -0.996  1.00  0.00     0.054 A 
ATOM      9  C   UNL     1       7.142  -1.524   0.628  1.00  0.00     0.051 A 
ATOM     10  C   UNL     1       7.198  -0.475  -1.511  1.00  0.00     0.166 A 
ATOM     11  C   UNL     1       7.582  -1.513  -0.692  1.00  0.00     0.165 A 
ATOM     12  O   UNL     1       7.756  -0.691  -2.753  1.00  0.00    -0.454 OA
ATOM     13  O   UNL     1       8.375  -2.355  -1.456  1.00  0.00    -0.454 OA
ATOM     14  C   UNL     1       8.437  -1.919  -2.793  1.00  0.00     0.468 C 
ENDBRANCH   5   6
ENDBRANCH   1   5
TORSDOF 3
ENDMDL
MODEL 2
REMARK VINA RESULT:      -7.8      0.960      1.945
REMARK SMILES CC(=O)CCc1ccc2c(c1)OCO2
REMARK SMILES IDX 4 1 2 2 1 3 3 4 5 5 6 6 7 7 11 8 8 9 10 10 9 11 12 12 14 13
REMARK SMILES IDX 13 14
REMARK H PARENT
REMARK Flexibility Score: inf
ROOT
ATOM      1  C   UNL     1       5.482   2.894   0.210  1.00  0.00     0.080 C 
ENDROOT
BRANCH   1   2
ATOM      2  C   UNL     1       6.290   3.872   0.991  1.00  0.00     0.130 C 
ATOM      3  C   UNL     1       7.272   4.775   0.334  1.00  0.00     0.087 C 
ATOM      4  O   UNL     1       6.168   3.959   2.203  1.00  0.00    -0.300 OA
ENDBRANCH   1   2
BRANCH   1   5
ATOM      5  C   UNL     1       5.334   1.582   0.956  1.00  0.00     0.043 C 
BRANCH   5   6
ATOM      6  C   UNL     1       6.112   0.503   0.322  1.00  0.00    -0.044 A 
ATOM      7  C   UNL     1       6.401   0.514  -1.047  1.00  0.00     0.008 A 
ATOM      8  C   UNL     1       6.572  -0.545   1.086  1.00  0.00     0.054 A 
ATOM      9  C   UNL     1       7.136  -0.526  -1.587  1.00  0.00     0.051 A 
ATOM     10  C   UNL     1       7.315  -1.594   0.536  1.00  0.00     0.166 A 
ATOM     11  C   UNL     1       7.599  -1.584  -0.811  1.00  0.00     0.165 A 
ATOM     12  O   UNL     1       7.876  -2.732   1.076  1.00  0.00    -0.454 OA
ATOM     13  O   UNL     1       8.337  -2.728  -1.073  1.00  0.00    -0.454 OA
ATOM     14  C   UNL     1       8.613  -3.437   0.111  1.00  0.00     0.468 C 
ENDBRANCH   5   6
ENDBRANCH   1   5
TORSDOF 3
ENDMDL
MODEL 3
REMARK VINA RESULT:      -7.6      1.878      2.628
REMARK SMILES CC(=O)CCc1ccc2c(c1)OCO2
REMARK SMILES IDX 4 1 2 2 1 3 3 4 5 5 6 6 7 7 11 8 8 9 10 10 9 11 12 12 14 13
REMARK SMILES IDX 13 14
REMARK H PARENT
REMARK Flexibility Score: inf
ROOT
ATOM      1  C   UNL     1       5.544   1.919   1.280  1.00  0.00     0.080 C 
ENDROOT
BRANCH   1   2
ATOM      2  C   UNL     1       5.098   0.704   2.017  1.00  0.00     0.130 C 
ATOM      3  C   UNL     1       5.989  -0.474   2.191  1.00  0.00     0.087 C 
ATOM      4  O   UNL     1       3.980   0.640   2.502  1.00  0.00    -0.300 OA
ENDBRANCH   1   2
BRANCH   1   5
ATOM      5  C   UNL     1       5.412   1.734  -0.219  1.00  0.00     0.043 C 
BRANCH   5   6
ATOM      6  C   UNL     1       6.576   1.032  -0.788  1.00  0.00    -0.044 A 
ATOM      7  C   UNL     1       7.884   1.468  -0.548  1.00  0.00     0.008 A 
ATOM      8  C   UNL     1       6.384  -0.082  -1.573  1.00  0.00     0.054 A 
ATOM      9  C   UNL     1       8.938   0.769  -1.107  1.00  0.00     0.051 A 
ATOM     10  C   UNL     1       7.453  -0.786  -2.136  1.00  0.00     0.166 A 
ATOM     11  C   UNL     1       8.740  -0.357  -1.902  1.00  0.00     0.165 A 
ATOM     12  O   UNL     1       7.522  -1.904  -2.940  1.00  0.00    -0.454 OA
ATOM     13  O   UNL     1       9.582  -1.230  -2.572  1.00  0.00    -0.454 OA
ATOM     14  C   UNL     1       8.857  -2.278  -3.169  1.00  0.00     0.468 C 
ENDBRANCH   5   6
ENDBRANCH   1   5
TORSDOF 3
ENDMDL
MODEL 4
REMARK VINA RESULT:      -7.5      1.941      3.036
REMARK SMILES CC(=O)CCc1ccc2c(c1)OCO2
REMARK SMILES IDX 4 1 2 2 1 3 3 4 5 5 6 6 7 7 11 8 8 9 10 10 9 11 12 12 14 13
REMARK SMILES IDX 13 14
REMARK H PARENT
REMARK Flexibility Score: inf
ROOT
ATOM      1  C   UNL     1       5.760   1.323  -0.373  1.00  0.00     0.080 C 
ENDROOT
BRANCH   1   2
ATOM      2  C   UNL     1       5.184   1.321   1.001  1.00  0.00     0.130 C 
ATOM      3  C   UNL     1       5.364   0.167   1.921  1.00  0.00     0.087 C 
ATOM      4  O   UNL     1       4.542   2.274   1.412  1.00  0.00    -0.300 OA
ENDBRANCH   1   2
BRANCH   1   5
ATOM      5  C   UNL     1       7.260   1.106  -0.341  1.00  0.00     0.043 C 
BRANCH   5   6
ATOM      6  C   UNL     1       7.636  -0.194  -0.925  1.00  0.00    -0.044 A 
ATOM      7  C   UNL     1       7.743  -0.373  -2.309  1.00  0.00     0.008 A 
ATOM      8  C   UNL     1       7.894  -1.264  -0.099  1.00  0.00     0.054 A 
ATOM      9  C   UNL     1       8.100  -1.615  -2.800  1.00  0.00     0.051 A 
ATOM     10  C   UNL     1       8.255  -2.518  -0.600  1.00  0.00     0.166 A 
ATOM     11  C   UNL     1       8.359  -2.695  -1.962  1.00  0.00     0.165 A 
ATOM     12  O   UNL     1       8.557  -3.720   0.004  1.00  0.00    -0.454 OA
ATOM     13  O   UNL     1       8.727  -4.015  -2.167  1.00  0.00    -0.454 OA
ATOM     14  C   UNL     1       8.952  -4.677  -0.945  1.00  0.00     0.468 C 
ENDBRANCH   5   6
ENDBRANCH   1   5
TORSDOF 3
ENDMDL
MODEL 5
REMARK VINA RESULT:      -7.4      1.813      2.802
REMARK SMILES CC(=O)CCc1ccc2c(c1)OCO2
REMARK SMILES IDX 4 1 2 2 1 3 3 4 5 5 6 6 7 7 11 8 8 9 10 10 9 11 12 12 14 13
REMARK SMILES IDX 13 14
REMARK H PARENT
REMARK Flexibility Score: inf
ROOT
ATOM      1  C   UNL     1       6.119   0.790   1.235  1.00  0.00     0.080 C 
ENDROOT
BRANCH   1   2
ATOM      2  C   UNL     1       4.991   1.734   0.999  1.00  0.00     0.130 C 
ATOM      3  C   UNL     1       4.931   2.590  -0.215  1.00  0.00     0.087 C 
ATOM      4  O   UNL     1       4.078   1.832   1.803  1.00  0.00    -0.300 OA
ENDBRANCH   1   2
BRANCH   1   5
ATOM      5  C   UNL     1       7.234   1.002   0.230  1.00  0.00     0.043 C 
BRANCH   5   6
ATOM      6  C   UNL     1       7.551  -0.236  -0.503  1.00  0.00    -0.044 A 
ATOM      7  C   UNL     1       7.465  -0.304  -1.899  1.00  0.00     0.008 A 
ATOM      8  C   UNL     1       7.945  -1.358   0.190  1.00  0.00     0.054 A 
ATOM      9  C   UNL     1       7.776  -1.493  -2.533  1.00  0.00     0.051 A 
ATOM     10  C   UNL     1       8.259  -2.558  -0.456  1.00  0.00     0.166 A 
ATOM     11  C   UNL     1       8.174  -2.625  -1.829  1.00  0.00     0.165 A 
ATOM     12  O   UNL     1       8.668  -3.792   0.001  1.00  0.00    -0.454 OA
ATOM     13  O   UNL     1       8.537  -3.913  -2.190  1.00  0.00    -0.454 OA
ATOM     14  C   UNL     1       8.945  -4.660  -1.069  1.00  0.00     0.468 C 
ENDBRANCH   5   6
ENDBRANCH   1   5
TORSDOF 3
ENDMDL
