@<TRIPOS>MOLECULE
/home/cewinharhar/GITHUB/reincatalyze/data/processed/docking_pred/2023-May-22-1902_sub9_nm5_bs15_s42_ex16_mel10_mts1000_k50_ec02_g099_lra9e-4_lrc1e-3/2d2d9026ea33a6842fa37a74e1533968fe9c5ac5_ligand_9.pdbqt
 14 15 0 0 0
SMALL
GASTEIGER

@<TRIPOS>ATOM
      1  C          5.1750    2.5060    0.4540 C.3     1  UNL1        0.0800
      2  C          6.2150    3.3940    1.0440 C.2     1  UNL1        0.1300
      3  C          6.9090    4.4300    0.2340 C.3     1  UNL1        0.0870
      4  O          6.5300    3.2940    2.2190 O.2     1  UNL1       -0.3000
      5  C          5.7840    1.5130   -0.5160 C.3     1  UNL1        0.0430
      6  C          6.2310    0.2860    0.1660 C.2     1  UNL1       -0.0440
      7  C          5.7580   -0.0590    1.4380 C.2     1  UNL1        0.0080
      8  C          7.1320   -0.5500   -0.4530 C.2     1  UNL1        0.0540
      9  C          6.2120   -1.2240    2.0290 C.2     1  UNL1        0.0510
     10  C          7.5880   -1.7270    0.1490 C.2     1  UNL1        0.1660
     11  C          7.1240   -2.0660    1.4000 C.2     1  UNL1        0.1650
     12  O          8.4680   -2.7080   -0.2540 O.2     1  UNL1       -0.4540
     13  O          7.7350   -3.2630    1.7430 O.2     1  UNL1       -0.4540
     14  C          8.5250   -3.7510    0.6850 C.3     1  UNL1        0.4680
@<TRIPOS>BOND
     1     5     6    1
     2     5     1    1
     3     8    10    1
     4     8     6    2
     5    12    10    1
     6    12    14    1
     7    10    11    2
     8     6     7    1
     9     3     2    1
    10     1     2    1
    11    14    13    1
    12     2     4    2
    13    11    13    1
    14    11     9    1
    15     7     9    2
