MODEL 1
REMARK VINA RESULT:      -7.8      0.000      0.000
REMARK SMILES CC(=O)CCc1ccc2c(c1)OCO2
REMARK SMILES IDX 4 1 2 2 1 3 3 4 5 5 6 6 7 7 11 8 8 9 10 10 9 11 12 12 14 13
REMARK SMILES IDX 13 14
REMARK H PARENT
REMARK Flexibility Score: inf
ROOT
ATOM      1  C   UNL     1       5.429   2.929   0.181  1.00  0.00     0.080 C 
ENDROOT
BRANCH   1   2
ATOM      2  C   UNL     1       6.270   3.853   0.993  1.00  0.00     0.130 C 
ATOM      3  C   UNL     1       7.251   4.775   0.361  1.00  0.00     0.087 C 
ATOM      4  O   UNL     1       6.177   3.878   2.210  1.00  0.00    -0.300 OA
ENDBRANCH   1   2
BRANCH   1   5
ATOM      5  C   UNL     1       5.190   1.621   0.907  1.00  0.00     0.043 C 
BRANCH   5   6
ATOM      6  C   UNL     1       6.021   0.533   0.362  1.00  0.00    -0.044 A 
ATOM      7  C   UNL     1       6.381  -0.574   1.139  1.00  0.00     0.008 A 
ATOM      8  C   UNL     1       6.456   0.595  -0.942  1.00  0.00     0.054 A 
ATOM      9  C   UNL     1       7.163  -1.565   0.572  1.00  0.00     0.051 A 
ATOM     10  C   UNL     1       7.245  -0.410  -1.510  1.00  0.00     0.166 A 
ATOM     11  C   UNL     1       7.602  -1.499  -0.746  1.00  0.00     0.165 A 
ATOM     12  O   UNL     1       7.796  -0.576  -2.763  1.00  0.00    -0.454 OA
ATOM     13  O   UNL     1       8.371  -2.321  -1.555  1.00  0.00    -0.454 OA
ATOM     14  C   UNL     1       8.444  -1.818  -2.868  1.00  0.00     0.468 C 
ENDBRANCH   5   6
ENDBRANCH   1   5
TORSDOF 3
ENDMDL
MODEL 2
REMARK VINA RESULT:      -7.6      1.062      2.065
REMARK SMILES CC(=O)CCc1ccc2c(c1)OCO2
REMARK SMILES IDX 4 1 2 2 1 3 3 4 5 5 6 6 7 7 11 8 8 9 10 10 9 11 12 12 14 13
REMARK SMILES IDX 13 14
REMARK H PARENT
REMARK Flexibility Score: inf
ROOT
ATOM      1  C   UNL     1       5.391   3.028   0.102  1.00  0.00     0.080 C 
ENDROOT
BRANCH   1   2
ATOM      2  C   UNL     1       6.249   3.910   0.942  1.00  0.00     0.130 C 
ATOM      3  C   UNL     1       7.301   4.775   0.343  1.00  0.00     0.087 C 
ATOM      4  O   UNL     1       6.112   3.948   2.154  1.00  0.00    -0.300 OA
ENDBRANCH   1   2
BRANCH   1   5
ATOM      5  C   UNL     1       5.087   1.722   0.809  1.00  0.00     0.043 C 
BRANCH   5   6
ATOM      6  C   UNL     1       5.948   0.627   0.327  1.00  0.00    -0.044 A 
ATOM      7  C   UNL     1       6.422   0.592  -0.990  1.00  0.00     0.008 A 
ATOM      8  C   UNL     1       6.303  -0.390   1.184  1.00  0.00     0.054 A 
ATOM      9  C   UNL     1       7.227  -0.461  -1.386  1.00  0.00     0.051 A 
ATOM     10  C   UNL     1       7.118  -1.451   0.779  1.00  0.00     0.166 A 
ATOM     11  C   UNL     1       7.583  -1.487  -0.517  1.00  0.00     0.165 A 
ATOM     12  O   UNL     1       7.604  -2.565   1.431  1.00  0.00    -0.454 OA
ATOM     13  O   UNL     1       8.354  -2.633  -0.634  1.00  0.00    -0.454 OA
ATOM     14  C   UNL     1       8.468  -3.298   0.601  1.00  0.00     0.468 C 
ENDBRANCH   5   6
ENDBRANCH   1   5
TORSDOF 3
ENDMDL
MODEL 3
REMARK VINA RESULT:      -7.5      1.900      2.642
REMARK SMILES CC(=O)CCc1ccc2c(c1)OCO2
REMARK SMILES IDX 4 1 2 2 1 3 3 4 5 5 6 6 7 7 11 8 8 9 10 10 9 11 12 12 14 13
REMARK SMILES IDX 13 14
REMARK H PARENT
REMARK Flexibility Score: inf
ROOT
ATOM      1  C   UNL     1       5.503   1.919   1.258  1.00  0.00     0.080 C 
ENDROOT
BRANCH   1   2
ATOM      2  C   UNL     1       5.054   0.704   1.994  1.00  0.00     0.130 C 
ATOM      3  C   UNL     1       5.934  -0.486   2.144  1.00  0.00     0.087 C 
ATOM      4  O   UNL     1       3.944   0.650   2.497  1.00  0.00    -0.300 OA
ENDBRANCH   1   2
BRANCH   1   5
ATOM      5  C   UNL     1       5.383   1.731  -0.241  1.00  0.00     0.043 C 
BRANCH   5   6
ATOM      6  C   UNL     1       6.553   1.030  -0.799  1.00  0.00    -0.044 A 
ATOM      7  C   UNL     1       7.858   1.464  -0.542  1.00  0.00     0.008 A 
ATOM      8  C   UNL     1       6.369  -0.080  -1.592  1.00  0.00     0.054 A 
ATOM      9  C   UNL     1       8.918   0.766  -1.092  1.00  0.00     0.051 A 
ATOM     10  C   UNL     1       7.444  -0.783  -2.145  1.00  0.00     0.166 A 
ATOM     11  C   UNL     1       8.729  -0.356  -1.893  1.00  0.00     0.165 A 
ATOM     12  O   UNL     1       7.522  -1.897  -2.953  1.00  0.00    -0.454 OA
ATOM     13  O   UNL     1       9.578  -1.227  -2.558  1.00  0.00    -0.454 OA
ATOM     14  C   UNL     1       8.858  -2.272  -3.168  1.00  0.00     0.468 C 
ENDBRANCH   5   6
ENDBRANCH   1   5
TORSDOF 3
ENDMDL
MODEL 4
REMARK VINA RESULT:      -7.5      1.124      1.526
REMARK SMILES CC(=O)CCc1ccc2c(c1)OCO2
REMARK SMILES IDX 4 1 2 2 1 3 3 4 5 5 6 6 7 7 11 8 8 9 10 10 9 11 12 12 14 13
REMARK SMILES IDX 13 14
REMARK H PARENT
REMARK Flexibility Score: inf
ROOT
ATOM      1  C   UNL     1       5.436   2.873   0.216  1.00  0.00     0.080 C 
ENDROOT
BRANCH   1   2
ATOM      2  C   UNL     1       6.291   3.787   1.024  1.00  0.00     0.130 C 
ATOM      3  C   UNL     1       7.202   4.773   0.385  1.00  0.00     0.087 C 
ATOM      4  O   UNL     1       6.267   3.751   2.244  1.00  0.00    -0.300 OA
ENDBRANCH   1   2
BRANCH   1   5
ATOM      5  C   UNL     1       5.669   1.423   0.593  1.00  0.00     0.043 C 
BRANCH   5   6
ATOM      6  C   UNL     1       6.728   0.809  -0.226  1.00  0.00    -0.044 A 
ATOM      7  C   UNL     1       8.003   1.379  -0.324  1.00  0.00     0.008 A 
ATOM      8  C   UNL     1       6.470  -0.355  -0.914  1.00  0.00     0.054 A 
ATOM      9  C   UNL     1       8.958   0.757  -1.108  1.00  0.00     0.051 A 
ATOM     10  C   UNL     1       7.439  -0.981  -1.704  1.00  0.00     0.166 A 
ATOM     11  C   UNL     1       8.693  -0.420  -1.802  1.00  0.00     0.165 A 
ATOM     12  O   UNL     1       7.429  -2.125  -2.473  1.00  0.00    -0.454 OA
ATOM     13  O   UNL     1       9.435  -1.240  -2.637  1.00  0.00    -0.454 OA
ATOM     14  C   UNL     1       8.700  -2.381  -3.013  1.00  0.00     0.468 C 
ENDBRANCH   5   6
ENDBRANCH   1   5
TORSDOF 3
ENDMDL
MODEL 5
REMARK VINA RESULT:      -7.3      1.444      2.057
REMARK SMILES CC(=O)CCc1ccc2c(c1)OCO2
REMARK SMILES IDX 4 1 2 2 1 3 3 4 5 5 6 6 7 7 11 8 8 9 10 10 9 11 12 12 14 13
REMARK SMILES IDX 13 14
REMARK H PARENT
REMARK Flexibility Score: inf
ROOT
ATOM      1  C   UNL     1       5.175   2.506   0.454  1.00  0.00     0.080 C 
ENDROOT
BRANCH   1   2
ATOM      2  C   UNL     1       6.215   3.394   1.044  1.00  0.00     0.130 C 
ATOM      3  C   UNL     1       6.909   4.430   0.234  1.00  0.00     0.087 C 
ATOM      4  O   UNL     1       6.530   3.294   2.219  1.00  0.00    -0.300 OA
ENDBRANCH   1   2
BRANCH   1   5
ATOM      5  C   UNL     1       5.784   1.513  -0.516  1.00  0.00     0.043 C 
BRANCH   5   6
ATOM      6  C   UNL     1       6.231   0.286   0.166  1.00  0.00    -0.044 A 
ATOM      7  C   UNL     1       5.758  -0.059   1.438  1.00  0.00     0.008 A 
ATOM      8  C   UNL     1       7.132  -0.550  -0.453  1.00  0.00     0.054 A 
ATOM      9  C   UNL     1       6.212  -1.224   2.029  1.00  0.00     0.051 A 
ATOM     10  C   UNL     1       7.588  -1.727   0.149  1.00  0.00     0.166 A 
ATOM     11  C   UNL     1       7.124  -2.066   1.400  1.00  0.00     0.165 A 
ATOM     12  O   UNL     1       8.468  -2.708  -0.254  1.00  0.00    -0.454 OA
ATOM     13  O   UNL     1       7.735  -3.263   1.743  1.00  0.00    -0.454 OA
ATOM     14  C   UNL     1       8.525  -3.751   0.685  1.00  0.00     0.468 C 
ENDBRANCH   5   6
ENDBRANCH   1   5
TORSDOF 3
ENDMDL
