MODEL 1
REMARK VINA RESULT:      -7.9      0.000      0.000
REMARK SMILES CC(=O)CCc1ccc2c(c1)OCO2
REMARK SMILES IDX 4 1 2 2 1 3 3 4 5 5 6 6 7 7 11 8 8 9 10 10 9 11 12 12 14 13
REMARK SMILES IDX 13 14
REMARK H PARENT
REMARK Flexibility Score: inf
ROOT
ATOM      1  C   UNL     1       5.426   2.907   0.123  1.00  0.00     0.080 C 
ENDROOT
BRANCH   1   2
ATOM      2  C   UNL     1       6.277   3.796   0.963  1.00  0.00     0.130 C 
ATOM      3  C   UNL     1       7.221   4.773   0.357  1.00  0.00     0.087 C 
ATOM      4  O   UNL     1       6.223   3.746   2.181  1.00  0.00    -0.300 OA
ENDBRANCH   1   2
BRANCH   1   5
ATOM      5  C   UNL     1       5.125   1.602   0.833  1.00  0.00     0.043 C 
BRANCH   5   6
ATOM      6  C   UNL     1       5.965   0.500   0.330  1.00  0.00    -0.044 A 
ATOM      7  C   UNL     1       6.312  -0.586   1.142  1.00  0.00     0.008 A 
ATOM      8  C   UNL     1       6.422   0.528  -0.968  1.00  0.00     0.054 A 
ATOM      9  C   UNL     1       7.103  -1.591   0.615  1.00  0.00     0.051 A 
ATOM     10  C   UNL     1       7.220  -0.491  -1.496  1.00  0.00     0.166 A 
ATOM     11  C   UNL     1       7.564  -1.559  -0.698  1.00  0.00     0.165 A 
ATOM     12  O   UNL     1       7.792  -0.690  -2.734  1.00  0.00    -0.454 OA
ATOM     13  O   UNL     1       8.347  -2.402  -1.471  1.00  0.00    -0.454 OA
ATOM     14  C   UNL     1       8.441  -1.934  -2.795  1.00  0.00     0.468 C 
ENDBRANCH   5   6
ENDBRANCH   1   5
TORSDOF 3
ENDMDL
MODEL 2
REMARK VINA RESULT:      -7.8      0.967      1.955
REMARK SMILES CC(=O)CCc1ccc2c(c1)OCO2
REMARK SMILES IDX 4 1 2 2 1 3 3 4 5 5 6 6 7 7 11 8 8 9 10 10 9 11 12 12 14 13
REMARK SMILES IDX 13 14
REMARK H PARENT
REMARK Flexibility Score: inf
ROOT
ATOM      1  C   UNL     1       5.494   2.908   0.028  1.00  0.00     0.080 C 
ENDROOT
BRANCH   1   2
ATOM      2  C   UNL     1       6.274   3.818   0.911  1.00  0.00     0.130 C 
ATOM      3  C   UNL     1       7.272   4.774   0.360  1.00  0.00     0.087 C 
ATOM      4  O   UNL     1       6.117   3.805   2.121  1.00  0.00    -0.300 OA
ENDBRANCH   1   2
BRANCH   1   5
ATOM      5  C   UNL     1       5.212   1.585   0.713  1.00  0.00     0.043 C 
BRANCH   5   6
ATOM      6  C   UNL     1       6.040   0.497   0.162  1.00  0.00    -0.044 A 
ATOM      7  C   UNL     1       6.413   0.472  -1.187  1.00  0.00     0.008 A 
ATOM      8  C   UNL     1       6.464  -0.522   0.984  1.00  0.00     0.054 A 
ATOM      9  C   UNL     1       7.192  -0.574  -1.648  1.00  0.00     0.051 A 
ATOM     10  C   UNL     1       7.251  -1.577   0.513  1.00  0.00     0.166 A 
ATOM     11  C   UNL     1       7.618  -1.603  -0.814  1.00  0.00     0.165 A 
ATOM     12  O   UNL     1       7.791  -2.691   1.121  1.00  0.00    -0.454 OA
ATOM     13  O   UNL     1       8.384  -2.744  -0.995  1.00  0.00    -0.454 OA
ATOM     14  C   UNL     1       8.594  -3.415   0.224  1.00  0.00     0.468 C 
ENDBRANCH   5   6
ENDBRANCH   1   5
TORSDOF 3
ENDMDL
MODEL 3
REMARK VINA RESULT:      -7.7      1.878      2.639
REMARK SMILES CC(=O)CCc1ccc2c(c1)OCO2
REMARK SMILES IDX 4 1 2 2 1 3 3 4 5 5 6 6 7 7 11 8 8 9 10 10 9 11 12 12 14 13
REMARK SMILES IDX 13 14
REMARK H PARENT
REMARK Flexibility Score: inf
ROOT
ATOM      1  C   UNL     1       5.501   1.932   1.265  1.00  0.00     0.080 C 
ENDROOT
BRANCH   1   2
ATOM      2  C   UNL     1       5.051   0.716   1.999  1.00  0.00     0.130 C 
ATOM      3  C   UNL     1       5.926  -0.478   2.141  1.00  0.00     0.087 C 
ATOM      4  O   UNL     1       3.944   0.666   2.509  1.00  0.00    -0.300 OA
ENDBRANCH   1   2
BRANCH   1   5
ATOM      5  C   UNL     1       5.383   1.744  -0.235  1.00  0.00     0.043 C 
BRANCH   5   6
ATOM      6  C   UNL     1       6.554   1.044  -0.792  1.00  0.00    -0.044 A 
ATOM      7  C   UNL     1       7.859   1.477  -0.533  1.00  0.00     0.008 A 
ATOM      8  C   UNL     1       6.371  -0.066  -1.586  1.00  0.00     0.054 A 
ATOM      9  C   UNL     1       8.919   0.779  -1.083  1.00  0.00     0.051 A 
ATOM     10  C   UNL     1       7.446  -0.768  -2.139  1.00  0.00     0.166 A 
ATOM     11  C   UNL     1       8.731  -0.342  -1.885  1.00  0.00     0.165 A 
ATOM     12  O   UNL     1       7.524  -1.882  -2.947  1.00  0.00    -0.454 OA
ATOM     13  O   UNL     1       9.580  -1.212  -2.550  1.00  0.00    -0.454 OA
ATOM     14  C   UNL     1       8.861  -2.256  -3.161  1.00  0.00     0.468 C 
ENDBRANCH   5   6
ENDBRANCH   1   5
TORSDOF 3
ENDMDL
MODEL 4
REMARK VINA RESULT:      -7.4      1.948      2.994
REMARK SMILES CC(=O)CCc1ccc2c(c1)OCO2
REMARK SMILES IDX 4 1 2 2 1 3 3 4 5 5 6 6 7 7 11 8 8 9 10 10 9 11 12 12 14 13
REMARK SMILES IDX 13 14
REMARK H PARENT
REMARK Flexibility Score: inf
ROOT
ATOM      1  C   UNL     1       5.853   1.460  -0.331  1.00  0.00     0.080 C 
ENDROOT
BRANCH   1   2
ATOM      2  C   UNL     1       5.137   1.360   0.971  1.00  0.00     0.130 C 
ATOM      3  C   UNL     1       5.406   0.252   1.926  1.00  0.00     0.087 C 
ATOM      4  O   UNL     1       4.303   2.190   1.293  1.00  0.00    -0.300 OA
ENDBRANCH   1   2
BRANCH   1   5
ATOM      5  C   UNL     1       7.318   1.101  -0.183  1.00  0.00     0.043 C 
BRANCH   5   6
ATOM      6  C   UNL     1       7.631  -0.191  -0.818  1.00  0.00    -0.044 A 
ATOM      7  C   UNL     1       7.599  -0.352  -2.208  1.00  0.00     0.008 A 
ATOM      8  C   UNL     1       7.967  -1.273  -0.035  1.00  0.00     0.054 A 
ATOM      9  C   UNL     1       7.903  -1.589  -2.748  1.00  0.00     0.051 A 
ATOM     10  C   UNL     1       8.274  -2.521  -0.586  1.00  0.00     0.166 A 
ATOM     11  C   UNL     1       8.241  -2.680  -1.953  1.00  0.00     0.165 A 
ATOM     12  O   UNL     1       8.630  -3.731  -0.030  1.00  0.00    -0.454 OA
ATOM     13  O   UNL     1       8.583  -3.998  -2.211  1.00  0.00    -0.454 OA
ATOM     14  C   UNL     1       8.926  -4.676  -1.026  1.00  0.00     0.468 C 
ENDBRANCH   5   6
ENDBRANCH   1   5
TORSDOF 3
ENDMDL
MODEL 5
REMARK VINA RESULT:      -7.4      1.626      2.662
REMARK SMILES CC(=O)CCc1ccc2c(c1)OCO2
REMARK SMILES IDX 4 1 2 2 1 3 3 4 5 5 6 6 7 7 11 8 8 9 10 10 9 11 12 12 14 13
REMARK SMILES IDX 13 14
REMARK H PARENT
REMARK Flexibility Score: inf
ROOT
ATOM      1  C   UNL     1       5.735   1.333  -0.330  1.00  0.00     0.080 C 
ENDROOT
BRANCH   1   2
ATOM      2  C   UNL     1       5.375   2.698   0.145  1.00  0.00     0.130 C 
ATOM      3  C   UNL     1       6.416   3.705   0.486  1.00  0.00     0.087 C 
ATOM      4  O   UNL     1       4.208   3.031   0.270  1.00  0.00    -0.300 OA
ENDBRANCH   1   2
BRANCH   1   5
ATOM      5  C   UNL     1       7.233   1.110  -0.282  1.00  0.00     0.043 C 
BRANCH   5   6
ATOM      6  C   UNL     1       7.612  -0.187  -0.872  1.00  0.00    -0.044 A 
ATOM      7  C   UNL     1       7.703  -0.363  -2.257  1.00  0.00     0.008 A 
ATOM      8  C   UNL     1       7.887  -1.256  -0.050  1.00  0.00     0.054 A 
ATOM      9  C   UNL     1       8.064  -1.602  -2.754  1.00  0.00     0.051 A 
ATOM     10  C   UNL     1       8.252  -2.507  -0.557  1.00  0.00     0.166 A 
ATOM     11  C   UNL     1       8.341  -2.681  -1.920  1.00  0.00     0.165 A 
ATOM     12  O   UNL     1       8.569  -3.707   0.042  1.00  0.00    -0.454 OA
ATOM     13  O   UNL     1       8.716  -3.999  -2.132  1.00  0.00    -0.454 OA
ATOM     14  C   UNL     1       8.960  -4.660  -0.913  1.00  0.00     0.468 C 
ENDBRANCH   5   6
ENDBRANCH   1   5
TORSDOF 3
ENDMDL
