@<TRIPOS>MOLECULE
/home/cewinharhar/GITHUB/reincatalyze/data/processed/docking_pred/2023-May-22-1902_sub9_nm5_bs15_s42_ex16_mel10_mts1000_k50_ec02_g099_lra9e-4_lrc1e-3/2f41e52dfc6618f39d2325611a45b0a1c53476a0_ligand_9.pdbqt
 14 15 0 0 0
SMALL
GASTEIGER

@<TRIPOS>ATOM
      1  C          5.4260    2.9070    0.1230 C.3     1  UNL1        0.0800
      2  C          6.2770    3.7960    0.9630 C.2     1  UNL1        0.1300
      3  C          7.2210    4.7730    0.3570 C.3     1  UNL1        0.0870
      4  O          6.2230    3.7460    2.1810 O.2     1  UNL1       -0.3000
      5  C          5.1250    1.6020    0.8330 C.3     1  UNL1        0.0430
      6  C          5.9650    0.5000    0.3300 C.2     1  UNL1       -0.0440
      7  C          6.3120   -0.5860    1.1420 C.2     1  UNL1        0.0080
      8  C          6.4220    0.5280   -0.9680 C.2     1  UNL1        0.0540
      9  C          7.1030   -1.5910    0.6150 C.2     1  UNL1        0.0510
     10  C          7.2200   -0.4910   -1.4960 C.2     1  UNL1        0.1660
     11  C          7.5640   -1.5590   -0.6980 C.2     1  UNL1        0.1650
     12  O          7.7920   -0.6900   -2.7340 O.2     1  UNL1       -0.4540
     13  O          8.3470   -2.4020   -1.4710 O.2     1  UNL1       -0.4540
     14  C          8.4410   -1.9340   -2.7950 C.3     1  UNL1        0.4680
@<TRIPOS>BOND
     1    14    12    1
     2    14    13    1
     3    12    10    1
     4    10     8    1
     5    10    11    2
     6    13    11    1
     7     8     6    2
     8    11     9    1
     9     1     5    1
    10     1     2    1
    11     6     5    1
    12     6     7    1
    13     3     2    1
    14     9     7    2
    15     2     4    2
