@<TRIPOS>MOLECULE
/home/cewinharhar/GITHUB/reincatalyze/data/processed/docking_pred/2023-May-22-1902_sub9_nm5_bs15_s42_ex16_mel10_mts1000_k50_ec02_g099_lra9e-4_lrc1e-3/2f41e52dfc6618f39d2325611a45b0a1c53476a0_ligand_9.pdbqt
 14 15 0 0 0
SMALL
GASTEIGER

@<TRIPOS>ATOM
      1  C          5.8530    1.4600   -0.3310 C.3     1  UNL1        0.0800
      2  C          5.1370    1.3600    0.9710 C.2     1  UNL1        0.1300
      3  C          5.4060    0.2520    1.9260 C.3     1  UNL1        0.0870
      4  O          4.3030    2.1900    1.2930 O.2     1  UNL1       -0.3000
      5  C          7.3180    1.1010   -0.1830 C.3     1  UNL1        0.0430
      6  C          7.6310   -0.1910   -0.8180 C.2     1  UNL1       -0.0440
      7  C          7.5990   -0.3520   -2.2080 C.2     1  UNL1        0.0080
      8  C          7.9670   -1.2730   -0.0350 C.2     1  UNL1        0.0540
      9  C          7.9030   -1.5890   -2.7480 C.2     1  UNL1        0.0510
     10  C          8.2740   -2.5210   -0.5860 C.2     1  UNL1        0.1660
     11  C          8.2410   -2.6800   -1.9530 C.2     1  UNL1        0.1650
     12  O          8.6300   -3.7310   -0.0300 O.2     1  UNL1       -0.4540
     13  O          8.5830   -3.9980   -2.2110 O.2     1  UNL1       -0.4540
     14  C          8.9260   -4.6760   -1.0260 C.3     1  UNL1        0.4680
@<TRIPOS>BOND
     1     9     7    1
     2     9    11    2
     3    13    11    1
     4    13    14    1
     5     7     6    2
     6    11    10    1
     7    14    12    1
     8     6     5    1
     9     6     8    1
    10    10     8    2
    11    10    12    1
    12     1     5    1
    13     1     2    1
    14     2     4    2
    15     2     3    1
