@<TRIPOS>MOLECULE
/home/cewinharhar/GITHUB/reincatalyze/data/processed/docking_pred/2023-May-22-1902_sub9_nm5_bs15_s42_ex16_mel10_mts1000_k50_ec02_g099_lra9e-4_lrc1e-3/2f41e52dfc6618f39d2325611a45b0a1c53476a0_ligand_9.pdbqt
 14 15 0 0 0
SMALL
GASTEIGER

@<TRIPOS>ATOM
      1  C          5.4940    2.9080    0.0280 C.3     1  UNL1        0.0800
      2  C          6.2740    3.8180    0.9110 C.2     1  UNL1        0.1300
      3  C          7.2720    4.7740    0.3600 C.3     1  UNL1        0.0870
      4  O          6.1170    3.8050    2.1210 O.2     1  UNL1       -0.3000
      5  C          5.2120    1.5850    0.7130 C.3     1  UNL1        0.0430
      6  C          6.0400    0.4970    0.1620 C.2     1  UNL1       -0.0440
      7  C          6.4130    0.4720   -1.1870 C.2     1  UNL1        0.0080
      8  C          6.4640   -0.5220    0.9840 C.2     1  UNL1        0.0540
      9  C          7.1920   -0.5740   -1.6480 C.2     1  UNL1        0.0510
     10  C          7.2510   -1.5770    0.5130 C.2     1  UNL1        0.1660
     11  C          7.6180   -1.6030   -0.8140 C.2     1  UNL1        0.1650
     12  O          7.7910   -2.6910    1.1210 O.2     1  UNL1       -0.4540
     13  O          8.3840   -2.7440   -0.9950 O.2     1  UNL1       -0.4540
     14  C          8.5940   -3.4150    0.2240 C.3     1  UNL1        0.4680
@<TRIPOS>BOND
     1     9     7    1
     2     9    11    2
     3     7     6    2
     4    13    11    1
     5    13    14    1
     6    11    10    1
     7     1     5    1
     8     1     2    1
     9     6     5    1
    10     6     8    1
    11    14    12    1
    12     3     2    1
    13    10     8    2
    14    10    12    1
    15     2     4    2
