@<TRIPOS>MOLECULE
/home/cewinharhar/GITHUB/reincatalyze/data/processed/docking_pred/2023-May-22-1902_sub9_nm5_bs15_s42_ex16_mel10_mts1000_k50_ec02_g099_lra9e-4_lrc1e-3/2f41e52dfc6618f39d2325611a45b0a1c53476a0_ligand_9.pdbqt
 14 15 0 0 0
SMALL
GASTEIGER

@<TRIPOS>ATOM
      1  C          5.7350    1.3330   -0.3300 C.3     1  UNL1        0.0800
      2  C          5.3750    2.6980    0.1450 C.2     1  UNL1        0.1300
      3  C          6.4160    3.7050    0.4860 C.3     1  UNL1        0.0870
      4  O          4.2080    3.0310    0.2700 O.2     1  UNL1       -0.3000
      5  C          7.2330    1.1100   -0.2820 C.3     1  UNL1        0.0430
      6  C          7.6120   -0.1870   -0.8720 C.2     1  UNL1       -0.0440
      7  C          7.7030   -0.3630   -2.2570 C.2     1  UNL1        0.0080
      8  C          7.8870   -1.2560   -0.0500 C.2     1  UNL1        0.0540
      9  C          8.0640   -1.6020   -2.7540 C.2     1  UNL1        0.0510
     10  C          8.2520   -2.5070   -0.5570 C.2     1  UNL1        0.1660
     11  C          8.3410   -2.6810   -1.9200 C.2     1  UNL1        0.1650
     12  O          8.5690   -3.7070    0.0420 O.2     1  UNL1       -0.4540
     13  O          8.7160   -3.9990   -2.1320 O.2     1  UNL1       -0.4540
     14  C          8.9600   -4.6600   -0.9130 C.3     1  UNL1        0.4680
@<TRIPOS>BOND
     1     9     7    1
     2     9    11    2
     3     7     6    2
     4    13    11    1
     5    13    14    1
     6    11    10    1
     7    14    12    1
     8     6     5    1
     9     6     8    1
    10    10     8    2
    11    10    12    1
    12     1     5    1
    13     1     2    1
    14     2     4    2
    15     2     3    1
