@<TRIPOS>MOLECULE
/home/cewinharhar/GITHUB/reincatalyze/data/processed/docking_pred/2023-May-22-1902_sub9_nm5_bs15_s42_ex16_mel10_mts1000_k50_ec02_g099_lra9e-4_lrc1e-3/2f41e52dfc6618f39d2325611a45b0a1c53476a0_ligand_9.pdbqt
 14 15 0 0 0
SMALL
GASTEIGER

@<TRIPOS>ATOM
      1  C          5.5010    1.9320    1.2650 C.3     1  UNL1        0.0800
      2  C          5.0510    0.7160    1.9990 C.2     1  UNL1        0.1300
      3  C          5.9260   -0.4780    2.1410 C.3     1  UNL1        0.0870
      4  O          3.9440    0.6660    2.5090 O.2     1  UNL1       -0.3000
      5  C          5.3830    1.7440   -0.2350 C.3     1  UNL1        0.0430
      6  C          6.5540    1.0440   -0.7920 C.2     1  UNL1       -0.0440
      7  C          7.8590    1.4770   -0.5330 C.2     1  UNL1        0.0080
      8  C          6.3710   -0.0660   -1.5860 C.2     1  UNL1        0.0540
      9  C          8.9190    0.7790   -1.0830 C.2     1  UNL1        0.0510
     10  C          7.4460   -0.7680   -2.1390 C.2     1  UNL1        0.1660
     11  C          8.7310   -0.3420   -1.8850 C.2     1  UNL1        0.1650
     12  O          7.5240   -1.8820   -2.9470 O.2     1  UNL1       -0.4540
     13  O          9.5800   -1.2120   -2.5500 O.2     1  UNL1       -0.4540
     14  C          8.8610   -2.2560   -3.1610 C.3     1  UNL1        0.4680
@<TRIPOS>BOND
     1    14    12    1
     2    14    13    1
     3    12    10    1
     4    13    11    1
     5    10    11    2
     6    10     8    1
     7    11     9    1
     8     8     6    2
     9     9     7    2
    10     6     7    1
    11     6     5    1
    12     5     1    1
    13     1     2    1
    14     2     3    1
    15     2     4    2
