@<TRIPOS>MOLECULE
/home/cewinharhar/GITHUB/reincatalyze/data/processed/docking_pred/2023-May-22-1902_sub9_nm5_bs15_s42_ex16_mel10_mts1000_k50_ec02_g099_lra9e-4_lrc1e-3/30246d56752cb6be0208f58fab85103c625ac011_ligand_9.pdbqt
 14 15 0 0 0
SMALL
GASTEIGER

@<TRIPOS>ATOM
      1  C          5.5440    1.9190    1.2800 C.3     1  UNL1        0.0800
      2  C          5.0980    0.7040    2.0170 C.2     1  UNL1        0.1300
      3  C          5.9890   -0.4740    2.1910 C.3     1  UNL1        0.0870
      4  O          3.9800    0.6400    2.5020 O.2     1  UNL1       -0.3000
      5  C          5.4120    1.7340   -0.2190 C.3     1  UNL1        0.0430
      6  C          6.5760    1.0320   -0.7880 C.2     1  UNL1       -0.0440
      7  C          7.8840    1.4680   -0.5480 C.2     1  UNL1        0.0080
      8  C          6.3840   -0.0820   -1.5730 C.2     1  UNL1        0.0540
      9  C          8.9380    0.7690   -1.1070 C.2     1  UNL1        0.0510
     10  C          7.4530   -0.7860   -2.1360 C.2     1  UNL1        0.1660
     11  C          8.7400   -0.3570   -1.9020 C.2     1  UNL1        0.1650
     12  O          7.5220   -1.9040   -2.9400 O.2     1  UNL1       -0.4540
     13  O          9.5820   -1.2300   -2.5720 O.2     1  UNL1       -0.4540
     14  C          8.8570   -2.2780   -3.1690 C.3     1  UNL1        0.4680
@<TRIPOS>BOND
     1    14    12    1
     2    14    13    1
     3    12    10    1
     4    13    11    1
     5    10    11    2
     6    10     8    1
     7    11     9    1
     8     8     6    2
     9     9     7    2
    10     6     7    1
    11     6     5    1
    12     5     1    1
    13     1     2    1
    14     2     3    1
    15     2     4    2
