@<TRIPOS>MOLECULE
/home/cewinharhar/GITHUB/reincatalyze/data/processed/docking_pred/2023-May-22-1902_sub9_nm5_bs15_s42_ex16_mel10_mts1000_k50_ec02_g099_lra9e-4_lrc1e-3/30246d56752cb6be0208f58fab85103c625ac011_ligand_9.pdbqt
 14 15 0 0 0
SMALL
GASTEIGER

@<TRIPOS>ATOM
      1  C          6.1190    0.7900    1.2350 C.3     1  UNL1        0.0800
      2  C          4.9910    1.7340    0.9990 C.2     1  UNL1        0.1300
      3  C          4.9310    2.5900   -0.2150 C.3     1  UNL1        0.0870
      4  O          4.0780    1.8320    1.8030 O.2     1  UNL1       -0.3000
      5  C          7.2340    1.0020    0.2300 C.3     1  UNL1        0.0430
      6  C          7.5510   -0.2360   -0.5030 C.2     1  UNL1       -0.0440
      7  C          7.4650   -0.3040   -1.8990 C.2     1  UNL1        0.0080
      8  C          7.9450   -1.3580    0.1900 C.2     1  UNL1        0.0540
      9  C          7.7760   -1.4930   -2.5330 C.2     1  UNL1        0.0510
     10  C          8.2590   -2.5580   -0.4560 C.2     1  UNL1        0.1660
     11  C          8.1740   -2.6250   -1.8290 C.2     1  UNL1        0.1650
     12  O          8.6680   -3.7920    0.0010 O.2     1  UNL1       -0.4540
     13  O          8.5370   -3.9130   -2.1900 O.2     1  UNL1       -0.4540
     14  C          8.9450   -4.6600   -1.0690 C.3     1  UNL1        0.4680
@<TRIPOS>BOND
     1     9     7    1
     2     9    11    2
     3    13    11    1
     4    13    14    1
     5     7     6    2
     6    11    10    1
     7    14    12    1
     8     6     8    1
     9     6     5    1
    10    10    12    1
    11    10     8    2
    12     3     2    1
    13     5     1    1
    14     2     1    1
    15     2     4    2
