@<TRIPOS>MOLECULE
/home/cewinharhar/GITHUB/reincatalyze/data/processed/docking_pred/2023-May-22-1902_sub9_nm5_bs15_s42_ex16_mel10_mts1000_k50_ec02_g099_lra9e-4_lrc1e-3/306d1dfeb5e1085b4f3e24b09348dc81ae645662_ligand_9.pdbqt
 14 15 0 0 0
SMALL
GASTEIGER

@<TRIPOS>ATOM
      1  C          6.2360    0.8590    1.1910 C.3     1  UNL1        0.0800
      2  C          5.0600    1.7430    0.9610 C.2     1  UNL1        0.1300
      3  C          4.9320    2.5680   -0.2700 C.3     1  UNL1        0.0870
      4  O          4.1610    1.8170    1.7840 O.2     1  UNL1       -0.3000
      5  C          7.2870    1.0490    0.1150 C.3     1  UNL1        0.0430
      6  C          7.5960   -0.2150   -0.5760 C.2     1  UNL1       -0.0440
      7  C          7.5230   -0.3250   -1.9700 C.2     1  UNL1        0.0080
      8  C          7.9700   -1.3190    0.1550 C.2     1  UNL1        0.0540
      9  C          7.8260   -1.5360   -2.5640 C.2     1  UNL1        0.0510
     10  C          8.2750   -2.5420   -0.4500 C.2     1  UNL1        0.1660
     11  C          8.2020   -2.6510   -1.8210 C.2     1  UNL1        0.1650
     12  O          8.6640   -3.7660    0.0490 O.2     1  UNL1       -0.4540
     13  O          8.5530   -3.9540   -2.1380 O.2     1  UNL1       -0.4540
     14  C          8.9410   -4.6700   -0.9900 C.3     1  UNL1        0.4680
@<TRIPOS>BOND
     1     9     7    1
     2     9    11    2
     3    13    11    1
     4    13    14    1
     5     7     6    2
     6    11    10    1
     7    14    12    1
     8     6     5    1
     9     6     8    1
    10    10    12    1
    11    10     8    2
    12     3     2    1
    13     5     1    1
    14     2     1    1
    15     2     4    2
