MODEL 1
REMARK VINA RESULT:      -8.0      0.000      0.000
REMARK SMILES CC(=O)CCc1ccc2c(c1)OCO2
REMARK SMILES IDX 4 1 2 2 1 3 3 4 5 5 6 6 7 7 11 8 8 9 10 10 9 11 12 12 14 13
REMARK SMILES IDX 13 14
REMARK H PARENT
REMARK Flexibility Score: inf
ROOT
ATOM      1  C   UNL     1       5.443   2.924   0.085  1.00  0.00     0.080 C 
ENDROOT
BRANCH   1   2
ATOM      2  C   UNL     1       6.294   3.808   0.930  1.00  0.00     0.130 C 
ATOM      3  C   UNL     1       7.254   4.772   0.331  1.00  0.00     0.087 C 
ATOM      4  O   UNL     1       6.226   3.765   2.148  1.00  0.00    -0.300 OA
ENDBRANCH   1   2
BRANCH   1   5
ATOM      5  C   UNL     1       5.131   1.620   0.792  1.00  0.00     0.043 C 
BRANCH   5   6
ATOM      6  C   UNL     1       5.969   0.515   0.294  1.00  0.00    -0.044 A 
ATOM      7  C   UNL     1       6.305  -0.574   1.107  1.00  0.00     0.008 A 
ATOM      8  C   UNL     1       6.436   0.543  -1.000  1.00  0.00     0.054 A 
ATOM      9  C   UNL     1       7.094  -1.583   0.585  1.00  0.00     0.051 A 
ATOM     10  C   UNL     1       7.233  -0.480  -1.523  1.00  0.00     0.166 A 
ATOM     11  C   UNL     1       7.565  -1.551  -0.724  1.00  0.00     0.165 A 
ATOM     12  O   UNL     1       7.813  -0.681  -2.758  1.00  0.00    -0.454 OA
ATOM     13  O   UNL     1       8.349  -2.397  -1.493  1.00  0.00    -0.454 OA
ATOM     14  C   UNL     1       8.456  -1.928  -2.816  1.00  0.00     0.468 C 
ENDBRANCH   5   6
ENDBRANCH   1   5
TORSDOF 3
ENDMDL
MODEL 2
REMARK VINA RESULT:      -7.8      0.959      1.945
REMARK SMILES CC(=O)CCc1ccc2c(c1)OCO2
REMARK SMILES IDX 4 1 2 2 1 3 3 4 5 5 6 6 7 7 11 8 8 9 10 10 9 11 12 12 14 13
REMARK SMILES IDX 13 14
REMARK H PARENT
REMARK Flexibility Score: inf
ROOT
ATOM      1  C   UNL     1       5.482   2.894   0.210  1.00  0.00     0.080 C 
ENDROOT
BRANCH   1   2
ATOM      2  C   UNL     1       6.290   3.872   0.991  1.00  0.00     0.130 C 
ATOM      3  C   UNL     1       7.272   4.775   0.334  1.00  0.00     0.087 C 
ATOM      4  O   UNL     1       6.168   3.959   2.203  1.00  0.00    -0.300 OA
ENDBRANCH   1   2
BRANCH   1   5
ATOM      5  C   UNL     1       5.334   1.582   0.956  1.00  0.00     0.043 C 
BRANCH   5   6
ATOM      6  C   UNL     1       6.112   0.503   0.322  1.00  0.00    -0.044 A 
ATOM      7  C   UNL     1       6.401   0.514  -1.047  1.00  0.00     0.008 A 
ATOM      8  C   UNL     1       6.572  -0.545   1.086  1.00  0.00     0.054 A 
ATOM      9  C   UNL     1       7.136  -0.526  -1.587  1.00  0.00     0.051 A 
ATOM     10  C   UNL     1       7.315  -1.594   0.536  1.00  0.00     0.166 A 
ATOM     11  C   UNL     1       7.599  -1.584  -0.811  1.00  0.00     0.165 A 
ATOM     12  O   UNL     1       7.876  -2.732   1.076  1.00  0.00    -0.454 OA
ATOM     13  O   UNL     1       8.337  -2.728  -1.073  1.00  0.00    -0.454 OA
ATOM     14  C   UNL     1       8.613  -3.437   0.111  1.00  0.00     0.468 C 
ENDBRANCH   5   6
ENDBRANCH   1   5
TORSDOF 3
ENDMDL
MODEL 3
REMARK VINA RESULT:      -7.7      1.884      2.645
REMARK SMILES CC(=O)CCc1ccc2c(c1)OCO2
REMARK SMILES IDX 4 1 2 2 1 3 3 4 5 5 6 6 7 7 11 8 8 9 10 10 9 11 12 12 14 13
REMARK SMILES IDX 13 14
REMARK H PARENT
REMARK Flexibility Score: inf
ROOT
ATOM      1  C   UNL     1       5.506   1.922   1.259  1.00  0.00     0.080 C 
ENDROOT
BRANCH   1   2
ATOM      2  C   UNL     1       5.048   0.710   1.994  1.00  0.00     0.130 C 
ATOM      3  C   UNL     1       5.914  -0.491   2.137  1.00  0.00     0.087 C 
ATOM      4  O   UNL     1       3.940   0.667   2.504  1.00  0.00    -0.300 OA
ENDBRANCH   1   2
BRANCH   1   5
ATOM      5  C   UNL     1       5.385   1.735  -0.240  1.00  0.00     0.043 C 
BRANCH   5   6
ATOM      6  C   UNL     1       6.556   1.036  -0.800  1.00  0.00    -0.044 A 
ATOM      7  C   UNL     1       7.861   1.476  -0.550  1.00  0.00     0.008 A 
ATOM      8  C   UNL     1       6.373  -0.079  -1.586  1.00  0.00     0.054 A 
ATOM      9  C   UNL     1       8.921   0.779  -1.101  1.00  0.00     0.051 A 
ATOM     10  C   UNL     1       7.448  -0.780  -2.140  1.00  0.00     0.166 A 
ATOM     11  C   UNL     1       8.733  -0.347  -1.896  1.00  0.00     0.165 A 
ATOM     12  O   UNL     1       7.527  -1.898  -2.943  1.00  0.00    -0.454 OA
ATOM     13  O   UNL     1       9.582  -1.218  -2.560  1.00  0.00    -0.454 OA
ATOM     14  C   UNL     1       8.864  -2.269  -3.161  1.00  0.00     0.468 C 
ENDBRANCH   5   6
ENDBRANCH   1   5
TORSDOF 3
ENDMDL
MODEL 4
REMARK VINA RESULT:      -7.5      1.954      3.029
REMARK SMILES CC(=O)CCc1ccc2c(c1)OCO2
REMARK SMILES IDX 4 1 2 2 1 3 3 4 5 5 6 6 7 7 11 8 8 9 10 10 9 11 12 12 14 13
REMARK SMILES IDX 13 14
REMARK H PARENT
REMARK Flexibility Score: inf
ROOT
ATOM      1  C   UNL     1       5.745   1.300  -0.339  1.00  0.00     0.080 C 
ENDROOT
BRANCH   1   2
ATOM      2  C   UNL     1       5.140   1.313   1.022  1.00  0.00     0.130 C 
ATOM      3  C   UNL     1       5.281   0.159   1.950  1.00  0.00     0.087 C 
ATOM      4  O   UNL     1       4.506   2.278   1.417  1.00  0.00    -0.300 OA
ENDBRANCH   1   2
BRANCH   1   5
ATOM      5  C   UNL     1       7.242   1.071  -0.273  1.00  0.00     0.043 C 
BRANCH   5   6
ATOM      6  C   UNL     1       7.624  -0.220  -0.873  1.00  0.00    -0.044 A 
ATOM      7  C   UNL     1       7.712  -0.387  -2.260  1.00  0.00     0.008 A 
ATOM      8  C   UNL     1       7.904  -1.294  -0.059  1.00  0.00     0.054 A 
ATOM      9  C   UNL     1       8.076  -1.622  -2.765  1.00  0.00     0.051 A 
ATOM     10  C   UNL     1       8.272  -2.540  -0.575  1.00  0.00     0.166 A 
ATOM     11  C   UNL     1       8.358  -2.706  -1.939  1.00  0.00     0.165 A 
ATOM     12  O   UNL     1       8.594  -3.744   0.016  1.00  0.00    -0.454 OA
ATOM     13  O   UNL     1       8.737  -4.020  -2.161  1.00  0.00    -0.454 OA
ATOM     14  C   UNL     1       8.986  -4.689  -0.947  1.00  0.00     0.468 C 
ENDBRANCH   5   6
ENDBRANCH   1   5
TORSDOF 3
ENDMDL
MODEL 5
REMARK VINA RESULT:      -7.4      1.846      2.819
REMARK SMILES CC(=O)CCc1ccc2c(c1)OCO2
REMARK SMILES IDX 4 1 2 2 1 3 3 4 5 5 6 6 7 7 11 8 8 9 10 10 9 11 12 12 14 13
REMARK SMILES IDX 13 14
REMARK H PARENT
REMARK Flexibility Score: inf
ROOT
ATOM      1  C   UNL     1       6.392   0.962   1.108  1.00  0.00     0.080 C 
ENDROOT
BRANCH   1   2
ATOM      2  C   UNL     1       5.146   1.757   0.921  1.00  0.00     0.130 C 
ATOM      3  C   UNL     1       4.904   2.552  -0.312  1.00  0.00     0.087 C 
ATOM      4  O   UNL     1       4.282   1.778   1.782  1.00  0.00    -0.300 OA
ENDBRANCH   1   2
BRANCH   1   5
ATOM      5  C   UNL     1       7.328   1.121  -0.074  1.00  0.00     0.043 C 
BRANCH   5   6
ATOM      6  C   UNL     1       7.633  -0.175  -0.707  1.00  0.00    -0.044 A 
ATOM      7  C   UNL     1       7.582  -0.343  -2.096  1.00  0.00     0.008 A 
ATOM      8  C   UNL     1       7.981  -1.252   0.077  1.00  0.00     0.054 A 
ATOM      9  C   UNL     1       7.879  -1.582  -2.633  1.00  0.00     0.051 A 
ATOM     10  C   UNL     1       8.281  -2.502  -0.471  1.00  0.00     0.166 A 
ATOM     11  C   UNL     1       8.230  -2.669  -1.838  1.00  0.00     0.165 A 
ATOM     12  O   UNL     1       8.647  -3.709   0.086  1.00  0.00    -0.454 OA
ATOM     13  O   UNL     1       8.570  -3.988  -2.094  1.00  0.00    -0.454 OA
ATOM     14  C   UNL     1       8.930  -4.659  -0.910  1.00  0.00     0.468 C 
ENDBRANCH   5   6
ENDBRANCH   1   5
TORSDOF 3
ENDMDL
