@<TRIPOS>MOLECULE
/home/cewinharhar/GITHUB/reincatalyze/data/processed/docking_pred/2023-May-22-1902_sub9_nm5_bs15_s42_ex16_mel10_mts1000_k50_ec02_g099_lra9e-4_lrc1e-3/3109bb1a4c888d48ff6ee722b945383cff227a99_ligand_9.pdbqt
 14 15 0 0 0
SMALL
GASTEIGER

@<TRIPOS>ATOM
      1  C          5.4430    2.9240    0.0850 C.3     1  UNL1        0.0800
      2  C          6.2940    3.8080    0.9300 C.2     1  UNL1        0.1300
      3  C          7.2540    4.7720    0.3310 C.3     1  UNL1        0.0870
      4  O          6.2260    3.7650    2.1480 O.2     1  UNL1       -0.3000
      5  C          5.1310    1.6200    0.7920 C.3     1  UNL1        0.0430
      6  C          5.9690    0.5150    0.2940 C.2     1  UNL1       -0.0440
      7  C          6.3050   -0.5740    1.1070 C.2     1  UNL1        0.0080
      8  C          6.4360    0.5430   -1.0000 C.2     1  UNL1        0.0540
      9  C          7.0940   -1.5830    0.5850 C.2     1  UNL1        0.0510
     10  C          7.2330   -0.4800   -1.5230 C.2     1  UNL1        0.1660
     11  C          7.5650   -1.5510   -0.7240 C.2     1  UNL1        0.1650
     12  O          7.8130   -0.6810   -2.7580 O.2     1  UNL1       -0.4540
     13  O          8.3490   -2.3970   -1.4930 O.2     1  UNL1       -0.4540
     14  C          8.4560   -1.9280   -2.8160 C.3     1  UNL1        0.4680
@<TRIPOS>BOND
     1    14    12    1
     2    14    13    1
     3    12    10    1
     4    10     8    1
     5    10    11    2
     6    13    11    1
     7     8     6    2
     8    11     9    1
     9     1     5    1
    10     1     2    1
    11     6     5    1
    12     6     7    1
    13     3     2    1
    14     9     7    2
    15     2     4    2
