@<TRIPOS>MOLECULE
/home/cewinharhar/GITHUB/reincatalyze/data/processed/docking_pred/2023-May-22-1902_sub9_nm5_bs15_s42_ex16_mel10_mts1000_k50_ec02_g099_lra9e-4_lrc1e-3/3110d36e974f17e9d190d2a4a051583463654b40_ligand_9.pdbqt
 14 15 0 0 0
SMALL
GASTEIGER

@<TRIPOS>ATOM
      1  C          5.4420    2.9360    0.0910 C.3     1  UNL1        0.0800
      2  C          6.3010    3.8070    0.9400 C.2     1  UNL1        0.1300
      3  C          7.2620    4.7750    0.3460 C.3     1  UNL1        0.0870
      4  O          6.2400    3.7520    2.1580 O.2     1  UNL1       -0.3000
      5  C          5.1200    1.6300    0.7910 C.3     1  UNL1        0.0430
      6  C          5.9560    0.5230    0.2930 C.2     1  UNL1       -0.0440
      7  C          6.2830   -0.5710    1.1030 C.2     1  UNL1        0.0080
      8  C          6.4290    0.5530   -0.9990 C.2     1  UNL1        0.0540
      9  C          7.0700   -1.5810    0.5810 C.2     1  UNL1        0.0510
     10  C          7.2240   -0.4720   -1.5230 C.2     1  UNL1        0.1660
     11  C          7.5470   -1.5470   -0.7250 C.2     1  UNL1        0.1650
     12  O          7.8090   -0.6710   -2.7550 O.2     1  UNL1       -0.4540
     13  O          8.3310   -2.3940   -1.4930 O.2     1  UNL1       -0.4540
     14  C          8.4470   -1.9210   -2.8140 C.3     1  UNL1        0.4680
@<TRIPOS>BOND
     1    14    12    1
     2    14    13    1
     3    12    10    1
     4    10     8    1
     5    10    11    2
     6    13    11    1
     7     8     6    2
     8    11     9    1
     9     1     5    1
    10     1     2    1
    11     6     5    1
    12     6     7    1
    13     3     2    1
    14     9     7    2
    15     2     4    2
