@<TRIPOS>MOLECULE
/home/cewinharhar/GITHUB/reincatalyze/data/processed/docking_pred/2023-May-22-1902_sub9_nm5_bs15_s42_ex16_mel10_mts1000_k50_ec02_g099_lra9e-4_lrc1e-3/3110d36e974f17e9d190d2a4a051583463654b40_ligand_9.pdbqt
 14 15 0 0 0
SMALL
GASTEIGER

@<TRIPOS>ATOM
      1  C          6.3290    0.9030    1.0340 C.3     1  UNL1        0.0800
      2  C          5.1100    1.7510    0.9190 C.2     1  UNL1        0.1300
      3  C          4.8870    2.6430   -0.2500 C.3     1  UNL1        0.0870
      4  O          4.2530    1.7370    1.7880 O.2     1  UNL1       -0.3000
      5  C          7.2400    1.0840   -0.1640 C.3     1  UNL1        0.0430
      6  C          7.5800   -0.2050   -0.7920 C.2     1  UNL1       -0.0440
      7  C          7.5610   -0.3710   -2.1820 C.2     1  UNL1        0.0080
      8  C          7.9280   -1.2780   -0.0030 C.2     1  UNL1        0.0540
      9  C          7.8890   -1.6040   -2.7150 C.2     1  UNL1        0.0510
     10  C          8.2600   -2.5220   -0.5470 C.2     1  UNL1        0.1660
     11  C          8.2400   -2.6870   -1.9140 C.2     1  UNL1        0.1650
     12  O          8.6340   -3.7240    0.0160 O.2     1  UNL1       -0.4540
     13  O          8.6070   -4.0000   -2.1650 O.2     1  UNL1       -0.4540
     14  C          8.9530   -4.6670   -0.9750 C.3     1  UNL1        0.4680
@<TRIPOS>BOND
     1     9     7    1
     2     9    11    2
     3     7     6    2
     4    13    11    1
     5    13    14    1
     6    11    10    1
     7    14    12    1
     8     6     5    1
     9     6     8    1
    10    10     8    2
    11    10    12    1
    12     3     2    1
    13     5     1    1
    14     2     1    1
    15     2     4    2
