@<TRIPOS>MOLECULE
/home/cewinharhar/GITHUB/reincatalyze/data/processed/docking_pred/2023-May-22-1902_sub9_nm5_bs15_s42_ex16_mel10_mts1000_k50_ec02_g099_lra9e-4_lrc1e-3/3110d36e974f17e9d190d2a4a051583463654b40_ligand_9.pdbqt
 14 15 0 0 0
SMALL
GASTEIGER

@<TRIPOS>ATOM
      1  C          5.7770    1.3400   -0.3760 C.3     1  UNL1        0.0800
      2  C          5.1570    1.3270    0.9780 C.2     1  UNL1        0.1300
      3  C          5.4000    0.2180    1.9390 C.3     1  UNL1        0.0870
      4  O          4.4240    2.2340    1.3400 O.2     1  UNL1       -0.3000
      5  C          7.2670    1.0690   -0.3010 C.3     1  UNL1        0.0430
      6  C          7.6180   -0.2280   -0.9070 C.2     1  UNL1       -0.0440
      7  C          7.6540   -0.4010   -2.2960 C.2     1  UNL1        0.0080
      8  C          7.9220   -1.2990   -0.0990 C.2     1  UNL1        0.0540
      9  C          7.9900   -1.6410   -2.8080 C.2     1  UNL1        0.0510
     10  C          8.2630   -2.5500   -0.6220 C.2     1  UNL1        0.1660
     11  C          8.2970   -2.7220   -1.9880 C.2     1  UNL1        0.1650
     12  O          8.6000   -3.7530   -0.0380 O.2     1  UNL1       -0.4540
     13  O          8.6590   -4.0410   -2.2170 O.2     1  UNL1       -0.4540
     14  C          8.9490   -4.7050   -1.0100 C.3     1  UNL1        0.4680
@<TRIPOS>BOND
     1     9     7    1
     2     9    11    2
     3     7     6    2
     4    13    11    1
     5    13    14    1
     6    11    10    1
     7    14    12    1
     8     6     5    1
     9     6     8    1
    10    10     8    2
    11    10    12    1
    12     1     5    1
    13     1     2    1
    14     2     4    2
    15     2     3    1
