MODEL 1
REMARK VINA RESULT:      -8.0      0.000      0.000
REMARK SMILES CC(=O)CCc1ccc2c(c1)OCO2
REMARK SMILES IDX 4 1 2 2 1 3 3 4 5 5 6 6 7 7 11 8 8 9 10 10 9 11 12 12 14 13
REMARK SMILES IDX 13 14
REMARK H PARENT
REMARK Flexibility Score: inf
ROOT
ATOM      1  C   UNL     1       5.442   2.936   0.091  1.00  0.00     0.080 C 
ENDROOT
BRANCH   1   2
ATOM      2  C   UNL     1       6.301   3.807   0.940  1.00  0.00     0.130 C 
ATOM      3  C   UNL     1       7.262   4.775   0.346  1.00  0.00     0.087 C 
ATOM      4  O   UNL     1       6.240   3.752   2.158  1.00  0.00    -0.300 OA
ENDBRANCH   1   2
BRANCH   1   5
ATOM      5  C   UNL     1       5.120   1.630   0.791  1.00  0.00     0.043 C 
BRANCH   5   6
ATOM      6  C   UNL     1       5.956   0.523   0.293  1.00  0.00    -0.044 A 
ATOM      7  C   UNL     1       6.283  -0.571   1.103  1.00  0.00     0.008 A 
ATOM      8  C   UNL     1       6.429   0.553  -0.999  1.00  0.00     0.054 A 
ATOM      9  C   UNL     1       7.070  -1.581   0.581  1.00  0.00     0.051 A 
ATOM     10  C   UNL     1       7.224  -0.472  -1.523  1.00  0.00     0.166 A 
ATOM     11  C   UNL     1       7.547  -1.547  -0.725  1.00  0.00     0.165 A 
ATOM     12  O   UNL     1       7.809  -0.671  -2.755  1.00  0.00    -0.454 OA
ATOM     13  O   UNL     1       8.331  -2.394  -1.493  1.00  0.00    -0.454 OA
ATOM     14  C   UNL     1       8.447  -1.921  -2.814  1.00  0.00     0.468 C 
ENDBRANCH   5   6
ENDBRANCH   1   5
TORSDOF 3
ENDMDL
MODEL 2
REMARK VINA RESULT:      -7.8      0.963      1.946
REMARK SMILES CC(=O)CCc1ccc2c(c1)OCO2
REMARK SMILES IDX 4 1 2 2 1 3 3 4 5 5 6 6 7 7 11 8 8 9 10 10 9 11 12 12 14 13
REMARK SMILES IDX 13 14
REMARK H PARENT
REMARK Flexibility Score: inf
ROOT
ATOM      1  C   UNL     1       5.482   2.894   0.210  1.00  0.00     0.080 C 
ENDROOT
BRANCH   1   2
ATOM      2  C   UNL     1       6.290   3.872   0.991  1.00  0.00     0.130 C 
ATOM      3  C   UNL     1       7.272   4.775   0.334  1.00  0.00     0.087 C 
ATOM      4  O   UNL     1       6.168   3.959   2.203  1.00  0.00    -0.300 OA
ENDBRANCH   1   2
BRANCH   1   5
ATOM      5  C   UNL     1       5.334   1.582   0.956  1.00  0.00     0.043 C 
BRANCH   5   6
ATOM      6  C   UNL     1       6.112   0.503   0.322  1.00  0.00    -0.044 A 
ATOM      7  C   UNL     1       6.401   0.514  -1.047  1.00  0.00     0.008 A 
ATOM      8  C   UNL     1       6.572  -0.545   1.086  1.00  0.00     0.054 A 
ATOM      9  C   UNL     1       7.136  -0.526  -1.587  1.00  0.00     0.051 A 
ATOM     10  C   UNL     1       7.315  -1.594   0.536  1.00  0.00     0.166 A 
ATOM     11  C   UNL     1       7.599  -1.584  -0.811  1.00  0.00     0.165 A 
ATOM     12  O   UNL     1       7.876  -2.732   1.076  1.00  0.00    -0.454 OA
ATOM     13  O   UNL     1       8.337  -2.728  -1.073  1.00  0.00    -0.454 OA
ATOM     14  C   UNL     1       8.613  -3.437   0.111  1.00  0.00     0.468 C 
ENDBRANCH   5   6
ENDBRANCH   1   5
TORSDOF 3
ENDMDL
MODEL 3
REMARK VINA RESULT:      -7.6      1.886      2.641
REMARK SMILES CC(=O)CCc1ccc2c(c1)OCO2
REMARK SMILES IDX 4 1 2 2 1 3 3 4 5 5 6 6 7 7 11 8 8 9 10 10 9 11 12 12 14 13
REMARK SMILES IDX 13 14
REMARK H PARENT
REMARK Flexibility Score: inf
ROOT
ATOM      1  C   UNL     1       5.513   1.919   1.260  1.00  0.00     0.080 C 
ENDROOT
BRANCH   1   2
ATOM      2  C   UNL     1       5.079   0.701   1.999  1.00  0.00     0.130 C 
ATOM      3  C   UNL     1       5.976  -0.474   2.163  1.00  0.00     0.087 C 
ATOM      4  O   UNL     1       3.966   0.633   2.494  1.00  0.00    -0.300 OA
ENDBRANCH   1   2
BRANCH   1   5
ATOM      5  C   UNL     1       5.391   1.727  -0.239  1.00  0.00     0.043 C 
BRANCH   5   6
ATOM      6  C   UNL     1       6.560   1.023  -0.797  1.00  0.00    -0.044 A 
ATOM      7  C   UNL     1       7.866   1.454  -0.539  1.00  0.00     0.008 A 
ATOM      8  C   UNL     1       6.374  -0.087  -1.589  1.00  0.00     0.054 A 
ATOM      9  C   UNL     1       8.925   0.753  -1.089  1.00  0.00     0.051 A 
ATOM     10  C   UNL     1       7.447  -0.792  -2.142  1.00  0.00     0.166 A 
ATOM     11  C   UNL     1       8.733  -0.368  -1.890  1.00  0.00     0.165 A 
ATOM     12  O   UNL     1       7.523  -1.906  -2.950  1.00  0.00    -0.454 OA
ATOM     13  O   UNL     1       9.580  -1.241  -2.554  1.00  0.00    -0.454 OA
ATOM     14  C   UNL     1       8.859  -2.284  -3.164  1.00  0.00     0.468 C 
ENDBRANCH   5   6
ENDBRANCH   1   5
TORSDOF 3
ENDMDL
MODEL 4
REMARK VINA RESULT:      -7.5      1.964      3.028
REMARK SMILES CC(=O)CCc1ccc2c(c1)OCO2
REMARK SMILES IDX 4 1 2 2 1 3 3 4 5 5 6 6 7 7 11 8 8 9 10 10 9 11 12 12 14 13
REMARK SMILES IDX 13 14
REMARK H PARENT
REMARK Flexibility Score: inf
ROOT
ATOM      1  C   UNL     1       5.777   1.340  -0.376  1.00  0.00     0.080 C 
ENDROOT
BRANCH   1   2
ATOM      2  C   UNL     1       5.157   1.327   0.978  1.00  0.00     0.130 C 
ATOM      3  C   UNL     1       5.400   0.218   1.939  1.00  0.00     0.087 C 
ATOM      4  O   UNL     1       4.424   2.234   1.340  1.00  0.00    -0.300 OA
ENDBRANCH   1   2
BRANCH   1   5
ATOM      5  C   UNL     1       7.267   1.069  -0.301  1.00  0.00     0.043 C 
BRANCH   5   6
ATOM      6  C   UNL     1       7.618  -0.228  -0.907  1.00  0.00    -0.044 A 
ATOM      7  C   UNL     1       7.654  -0.401  -2.296  1.00  0.00     0.008 A 
ATOM      8  C   UNL     1       7.922  -1.299  -0.099  1.00  0.00     0.054 A 
ATOM      9  C   UNL     1       7.990  -1.641  -2.808  1.00  0.00     0.051 A 
ATOM     10  C   UNL     1       8.263  -2.550  -0.622  1.00  0.00     0.166 A 
ATOM     11  C   UNL     1       8.297  -2.722  -1.988  1.00  0.00     0.165 A 
ATOM     12  O   UNL     1       8.600  -3.753  -0.038  1.00  0.00    -0.454 OA
ATOM     13  O   UNL     1       8.659  -4.041  -2.217  1.00  0.00    -0.454 OA
ATOM     14  C   UNL     1       8.949  -4.705  -1.010  1.00  0.00     0.468 C 
ENDBRANCH   5   6
ENDBRANCH   1   5
TORSDOF 3
ENDMDL
MODEL 5
REMARK VINA RESULT:      -7.5      1.826      2.830
REMARK SMILES CC(=O)CCc1ccc2c(c1)OCO2
REMARK SMILES IDX 4 1 2 2 1 3 3 4 5 5 6 6 7 7 11 8 8 9 10 10 9 11 12 12 14 13
REMARK SMILES IDX 13 14
REMARK H PARENT
REMARK Flexibility Score: inf
ROOT
ATOM      1  C   UNL     1       6.329   0.903   1.034  1.00  0.00     0.080 C 
ENDROOT
BRANCH   1   2
ATOM      2  C   UNL     1       5.110   1.751   0.919  1.00  0.00     0.130 C 
ATOM      3  C   UNL     1       4.887   2.643  -0.250  1.00  0.00     0.087 C 
ATOM      4  O   UNL     1       4.253   1.737   1.788  1.00  0.00    -0.300 OA
ENDBRANCH   1   2
BRANCH   1   5
ATOM      5  C   UNL     1       7.240   1.084  -0.164  1.00  0.00     0.043 C 
BRANCH   5   6
ATOM      6  C   UNL     1       7.580  -0.205  -0.792  1.00  0.00    -0.044 A 
ATOM      7  C   UNL     1       7.561  -0.371  -2.182  1.00  0.00     0.008 A 
ATOM      8  C   UNL     1       7.928  -1.278  -0.003  1.00  0.00     0.054 A 
ATOM      9  C   UNL     1       7.889  -1.604  -2.715  1.00  0.00     0.051 A 
ATOM     10  C   UNL     1       8.260  -2.522  -0.547  1.00  0.00     0.166 A 
ATOM     11  C   UNL     1       8.240  -2.687  -1.914  1.00  0.00     0.165 A 
ATOM     12  O   UNL     1       8.634  -3.724   0.016  1.00  0.00    -0.454 OA
ATOM     13  O   UNL     1       8.607  -4.000  -2.165  1.00  0.00    -0.454 OA
ATOM     14  C   UNL     1       8.953  -4.667  -0.975  1.00  0.00     0.468 C 
ENDBRANCH   5   6
ENDBRANCH   1   5
TORSDOF 3
ENDMDL
