@<TRIPOS>MOLECULE
/home/cewinharhar/GITHUB/reincatalyze/data/processed/docking_pred/2023-May-22-1902_sub9_nm5_bs15_s42_ex16_mel10_mts1000_k50_ec02_g099_lra9e-4_lrc1e-3/3162da3d825baae428df1736f889259fa2bb10a2_ligand_9.pdbqt
 14 15 0 0 0
SMALL
GASTEIGER

@<TRIPOS>ATOM
      1  C          5.4310    2.9160    0.0850 C.3     1  UNL1        0.0800
      2  C          6.2670    3.8270    0.9150 C.2     1  UNL1        0.1300
      3  C          7.2360    4.7750    0.3020 C.3     1  UNL1        0.0870
      4  O          6.1800    3.8220    2.1330 O.2     1  UNL1       -0.3000
      5  C          5.1540    1.6130    0.8060 C.3     1  UNL1        0.0430
      6  C          6.0060    0.5190    0.3060 C.2     1  UNL1       -0.0440
      7  C          6.3780   -0.5530    1.1240 C.2     1  UNL1        0.0080
      8  C          6.4490    0.5420   -0.9970 C.2     1  UNL1        0.0540
      9  C          7.1790   -1.5520    0.5990 C.2     1  UNL1        0.0510
     10  C          7.2580   -0.4700   -1.5230 C.2     1  UNL1        0.1660
     11  C          7.6260   -1.5250   -0.7180 C.2     1  UNL1        0.1650
     12  O          7.8210   -0.6730   -2.7650 O.2     1  UNL1       -0.4540
     13  O          8.4140   -2.3630   -1.4910 O.2     1  UNL1       -0.4540
     14  C          8.4880   -1.9080   -2.8210 C.3     1  UNL1        0.4680
@<TRIPOS>BOND
     1    14    12    1
     2    14    13    1
     3    12    10    1
     4    10     8    1
     5    10    11    2
     6    13    11    1
     7     8     6    2
     8    11     9    1
     9     1     5    1
    10     1     2    1
    11     3     2    1
    12     6     5    1
    13     6     7    1
    14     9     7    2
    15     2     4    2
