@<TRIPOS>MOLECULE
/home/cewinharhar/GITHUB/reincatalyze/data/processed/docking_pred/2023-May-22-1902_sub9_nm5_bs15_s42_ex16_mel10_mts1000_k50_ec02_g099_lra9e-4_lrc1e-3/3162da3d825baae428df1736f889259fa2bb10a2_ligand_9.pdbqt
 14 15 0 0 0
SMALL
GASTEIGER

@<TRIPOS>ATOM
      1  C          5.7610    2.7470   -0.2150 C.3     1  UNL1        0.0800
      2  C          6.2320    3.7470    0.7830 C.2     1  UNL1        0.1300
      3  C          7.2500    4.7750    0.4370 C.3     1  UNL1        0.0870
      4  O          5.7930    3.7510    1.9210 O.2     1  UNL1       -0.3000
      5  C          5.4010    1.4330    0.4500 C.3     1  UNL1        0.0430
      6  C          6.2060    0.3160   -0.0750 C.2     1  UNL1       -0.0440
      7  C          6.5570    0.2370   -1.4270 C.2     1  UNL1        0.0080
      8  C          6.6320   -0.6770    0.7780 C.2     1  UNL1        0.0540
      9  C          7.3150   -0.8350   -1.8620 C.2     1  UNL1        0.0510
     10  C          7.3990   -1.7580    0.3330 C.2     1  UNL1        0.1660
     11  C          7.7430   -1.8380   -0.9980 C.2     1  UNL1        0.1650
     12  O          7.9360   -2.8560    0.9720 O.2     1  UNL1       -0.4540
     13  O          8.4930   -2.9940   -1.1500 O.2     1  UNL1       -0.4540
     14  C          8.7150   -3.6220    0.0900 C.3     1  UNL1        0.4680
@<TRIPOS>BOND
     1     9     7    1
     2     9    11    2
     3     7     6    2
     4    13    11    1
     5    13    14    1
     6    11    10    1
     7     1     5    1
     8     1     2    1
     9     6     5    1
    10     6     8    1
    11    14    12    1
    12    10     8    2
    13    10    12    1
    14     3     2    1
    15     2     4    2
