@<TRIPOS>MOLECULE
/home/cewinharhar/GITHUB/reincatalyze/data/processed/docking_pred/2023-May-22-1902_sub9_nm5_bs15_s42_ex16_mel10_mts1000_k50_ec02_g099_lra9e-4_lrc1e-3/3162da3d825baae428df1736f889259fa2bb10a2_ligand_9.pdbqt
 14 15 0 0 0
SMALL
GASTEIGER

@<TRIPOS>ATOM
      1  C          5.5040    2.8670    0.2840 C.3     1  UNL1        0.0800
      2  C          6.3020    3.8650    1.0500 C.2     1  UNL1        0.1300
      3  C          7.2800    4.7630    0.3800 C.3     1  UNL1        0.0870
      4  O          6.1750    3.9740    2.2590 O.2     1  UNL1       -0.3000
      5  C          5.8230    1.4520    0.7240 C.3     1  UNL1        0.0430
      6  C          6.8390    0.8270   -0.1420 C.2     1  UNL1       -0.0440
      7  C          8.1150    1.3810   -0.2930 C.2     1  UNL1        0.0080
      8  C          6.5360   -0.3310   -0.8210 C.2     1  UNL1        0.0540
      9  C          9.0270    0.7500   -1.1180 C.2     1  UNL1        0.0510
     10  C          7.4630   -0.9660   -1.6540 C.2     1  UNL1        0.1660
     11  C          8.7180   -0.4210   -1.8040 C.2     1  UNL1        0.1650
     12  O          7.4050   -2.1070   -2.4260 O.2     1  UNL1       -0.4540
     13  O          9.4130   -1.2470   -2.6730 O.2     1  UNL1       -0.4540
     14  C          8.6490   -2.3770   -3.0200 C.3     1  UNL1        0.4680
@<TRIPOS>BOND
     1    14    13    1
     2    14    12    1
     3    13    11    1
     4    12    10    1
     5    11    10    2
     6    11     9    1
     7    10     8    1
     8     9     7    2
     9     8     6    2
    10     7     6    1
    11     6     5    1
    12     1     5    1
    13     1     2    1
    14     3     2    1
    15     2     4    2
