MODEL 1
REMARK VINA RESULT:      -7.9      0.000      0.000
REMARK SMILES CC(=O)CCc1ccc2c(c1)OCO2
REMARK SMILES IDX 4 1 2 2 1 3 3 4 5 5 6 6 7 7 11 8 8 9 10 10 9 11 12 12 14 13
REMARK SMILES IDX 13 14
REMARK H PARENT
REMARK Flexibility Score: inf
ROOT
ATOM      1  C   UNL     1       5.431   2.916   0.085  1.00  0.00     0.080 C 
ENDROOT
BRANCH   1   2
ATOM      2  C   UNL     1       6.267   3.827   0.915  1.00  0.00     0.130 C 
ATOM      3  C   UNL     1       7.236   4.775   0.302  1.00  0.00     0.087 C 
ATOM      4  O   UNL     1       6.180   3.822   2.133  1.00  0.00    -0.300 OA
ENDBRANCH   1   2
BRANCH   1   5
ATOM      5  C   UNL     1       5.154   1.613   0.806  1.00  0.00     0.043 C 
BRANCH   5   6
ATOM      6  C   UNL     1       6.006   0.519   0.306  1.00  0.00    -0.044 A 
ATOM      7  C   UNL     1       6.378  -0.553   1.124  1.00  0.00     0.008 A 
ATOM      8  C   UNL     1       6.449   0.542  -0.997  1.00  0.00     0.054 A 
ATOM      9  C   UNL     1       7.179  -1.552   0.599  1.00  0.00     0.051 A 
ATOM     10  C   UNL     1       7.258  -0.470  -1.523  1.00  0.00     0.166 A 
ATOM     11  C   UNL     1       7.626  -1.525  -0.718  1.00  0.00     0.165 A 
ATOM     12  O   UNL     1       7.821  -0.673  -2.765  1.00  0.00    -0.454 OA
ATOM     13  O   UNL     1       8.414  -2.363  -1.491  1.00  0.00    -0.454 OA
ATOM     14  C   UNL     1       8.488  -1.908  -2.821  1.00  0.00     0.468 C 
ENDBRANCH   5   6
ENDBRANCH   1   5
TORSDOF 3
ENDMDL
MODEL 2
REMARK VINA RESULT:      -7.7      1.897      2.635
REMARK SMILES CC(=O)CCc1ccc2c(c1)OCO2
REMARK SMILES IDX 4 1 2 2 1 3 3 4 5 5 6 6 7 7 11 8 8 9 10 10 9 11 12 12 14 13
REMARK SMILES IDX 13 14
REMARK H PARENT
REMARK Flexibility Score: inf
ROOT
ATOM      1  C   UNL     1       5.539   1.898   1.285  1.00  0.00     0.080 C 
ENDROOT
BRANCH   1   2
ATOM      2  C   UNL     1       5.110   0.675   2.020  1.00  0.00     0.130 C 
ATOM      3  C   UNL     1       6.010  -0.498   2.176  1.00  0.00     0.087 C 
ATOM      4  O   UNL     1       3.998   0.601   2.518  1.00  0.00    -0.300 OA
ENDBRANCH   1   2
BRANCH   1   5
ATOM      5  C   UNL     1       5.407   1.714  -0.213  1.00  0.00     0.043 C 
BRANCH   5   6
ATOM      6  C   UNL     1       6.572   1.014  -0.783  1.00  0.00    -0.044 A 
ATOM      7  C   UNL     1       7.880   1.443  -0.532  1.00  0.00     0.008 A 
ATOM      8  C   UNL     1       6.380  -0.092  -1.580  1.00  0.00     0.054 A 
ATOM      9  C   UNL     1       8.934   0.746  -1.093  1.00  0.00     0.051 A 
ATOM     10  C   UNL     1       7.450  -0.794  -2.144  1.00  0.00     0.166 A 
ATOM     11  C   UNL     1       8.737  -0.371  -1.899  1.00  0.00     0.165 A 
ATOM     12  O   UNL     1       7.520  -1.904  -2.959  1.00  0.00    -0.454 OA
ATOM     13  O   UNL     1       9.580  -1.240  -2.574  1.00  0.00    -0.454 OA
ATOM     14  C   UNL     1       8.854  -2.280  -3.185  1.00  0.00     0.468 C 
ENDBRANCH   5   6
ENDBRANCH   1   5
TORSDOF 3
ENDMDL
MODEL 3
REMARK VINA RESULT:      -7.5      1.046      1.989
REMARK SMILES CC(=O)CCc1ccc2c(c1)OCO2
REMARK SMILES IDX 4 1 2 2 1 3 3 4 5 5 6 6 7 7 11 8 8 9 10 10 9 11 12 12 14 13
REMARK SMILES IDX 13 14
REMARK H PARENT
REMARK Flexibility Score: inf
ROOT
ATOM      1  C   UNL     1       5.761   2.747  -0.215  1.00  0.00     0.080 C 
ENDROOT
BRANCH   1   2
ATOM      2  C   UNL     1       6.232   3.747   0.783  1.00  0.00     0.130 C 
ATOM      3  C   UNL     1       7.250   4.775   0.437  1.00  0.00     0.087 C 
ATOM      4  O   UNL     1       5.793   3.751   1.921  1.00  0.00    -0.300 OA
ENDBRANCH   1   2
BRANCH   1   5
ATOM      5  C   UNL     1       5.401   1.433   0.450  1.00  0.00     0.043 C 
BRANCH   5   6
ATOM      6  C   UNL     1       6.206   0.316  -0.075  1.00  0.00    -0.044 A 
ATOM      7  C   UNL     1       6.557   0.237  -1.427  1.00  0.00     0.008 A 
ATOM      8  C   UNL     1       6.632  -0.677   0.778  1.00  0.00     0.054 A 
ATOM      9  C   UNL     1       7.315  -0.835  -1.862  1.00  0.00     0.051 A 
ATOM     10  C   UNL     1       7.399  -1.758   0.333  1.00  0.00     0.166 A 
ATOM     11  C   UNL     1       7.743  -1.838  -0.998  1.00  0.00     0.165 A 
ATOM     12  O   UNL     1       7.936  -2.856   0.972  1.00  0.00    -0.454 OA
ATOM     13  O   UNL     1       8.493  -2.994  -1.150  1.00  0.00    -0.454 OA
ATOM     14  C   UNL     1       8.715  -3.622   0.090  1.00  0.00     0.468 C 
ENDBRANCH   5   6
ENDBRANCH   1   5
TORSDOF 3
ENDMDL
MODEL 4
REMARK VINA RESULT:      -7.5      1.939      3.025
REMARK SMILES CC(=O)CCc1ccc2c(c1)OCO2
REMARK SMILES IDX 4 1 2 2 1 3 3 4 5 5 6 6 7 7 11 8 8 9 10 10 9 11 12 12 14 13
REMARK SMILES IDX 13 14
REMARK H PARENT
REMARK Flexibility Score: inf
ROOT
ATOM      1  C   UNL     1       5.724   1.278  -0.315  1.00  0.00     0.080 C 
ENDROOT
BRANCH   1   2
ATOM      2  C   UNL     1       5.186   1.295   1.074  1.00  0.00     0.130 C 
ATOM      3  C   UNL     1       5.315   0.119   1.976  1.00  0.00     0.087 C 
ATOM      4  O   UNL     1       4.618   2.281   1.514  1.00  0.00    -0.300 OA
ENDBRANCH   1   2
BRANCH   1   5
ATOM      5  C   UNL     1       7.228   1.087  -0.320  1.00  0.00     0.043 C 
BRANCH   5   6
ATOM      6  C   UNL     1       7.613  -0.208  -0.909  1.00  0.00    -0.044 A 
ATOM      7  C   UNL     1       7.712  -0.383  -2.294  1.00  0.00     0.008 A 
ATOM      8  C   UNL     1       7.886  -1.277  -0.086  1.00  0.00     0.054 A 
ATOM      9  C   UNL     1       8.078  -1.621  -2.789  1.00  0.00     0.051 A 
ATOM     10  C   UNL     1       8.257  -2.527  -0.592  1.00  0.00     0.166 A 
ATOM     11  C   UNL     1       8.353  -2.700  -1.955  1.00  0.00     0.165 A 
ATOM     12  O   UNL     1       8.574  -3.727   0.008  1.00  0.00    -0.454 OA
ATOM     13  O   UNL     1       8.733  -4.016  -2.166  1.00  0.00    -0.454 OA
ATOM     14  C   UNL     1       8.972  -4.678  -0.947  1.00  0.00     0.468 C 
ENDBRANCH   5   6
ENDBRANCH   1   5
TORSDOF 3
ENDMDL
MODEL 5
REMARK VINA RESULT:      -7.5      1.157      1.535
REMARK SMILES CC(=O)CCc1ccc2c(c1)OCO2
REMARK SMILES IDX 4 1 2 2 1 3 3 4 5 5 6 6 7 7 11 8 8 9 10 10 9 11 12 12 14 13
REMARK SMILES IDX 13 14
REMARK H PARENT
REMARK Flexibility Score: inf
ROOT
ATOM      1  C   UNL     1       5.504   2.867   0.284  1.00  0.00     0.080 C 
ENDROOT
BRANCH   1   2
ATOM      2  C   UNL     1       6.302   3.865   1.050  1.00  0.00     0.130 C 
ATOM      3  C   UNL     1       7.280   4.763   0.380  1.00  0.00     0.087 C 
ATOM      4  O   UNL     1       6.175   3.974   2.259  1.00  0.00    -0.300 OA
ENDBRANCH   1   2
BRANCH   1   5
ATOM      5  C   UNL     1       5.823   1.452   0.724  1.00  0.00     0.043 C 
BRANCH   5   6
ATOM      6  C   UNL     1       6.839   0.827  -0.142  1.00  0.00    -0.044 A 
ATOM      7  C   UNL     1       8.115   1.381  -0.293  1.00  0.00     0.008 A 
ATOM      8  C   UNL     1       6.536  -0.331  -0.821  1.00  0.00     0.054 A 
ATOM      9  C   UNL     1       9.027   0.750  -1.118  1.00  0.00     0.051 A 
ATOM     10  C   UNL     1       7.463  -0.966  -1.654  1.00  0.00     0.166 A 
ATOM     11  C   UNL     1       8.718  -0.421  -1.804  1.00  0.00     0.165 A 
ATOM     12  O   UNL     1       7.405  -2.107  -2.426  1.00  0.00    -0.454 OA
ATOM     13  O   UNL     1       9.413  -1.247  -2.673  1.00  0.00    -0.454 OA
ATOM     14  C   UNL     1       8.649  -2.377  -3.020  1.00  0.00     0.468 C 
ENDBRANCH   5   6
ENDBRANCH   1   5
TORSDOF 3
ENDMDL
