@<TRIPOS>MOLECULE
/home/cewinharhar/GITHUB/reincatalyze/data/processed/docking_pred/2023-May-22-1902_sub9_nm5_bs15_s42_ex16_mel10_mts1000_k50_ec02_g099_lra9e-4_lrc1e-3/31638bda67923b1bb66f4f033a77b51352de91e4_ligand_9.pdbqt
 14 15 0 0 0
SMALL
GASTEIGER

@<TRIPOS>ATOM
      1  C          5.4290    2.9190    0.2410 C.3     1  UNL1        0.0800
      2  C          6.1670    3.9570    1.0140 C.2     1  UNL1        0.1300
      3  C          7.2430    4.7750    0.3940 C.3     1  UNL1        0.0870
      4  O          5.9080    4.1660    2.1880 O.2     1  UNL1       -0.3000
      5  C          5.7750    1.5240    0.7230 C.3     1  UNL1        0.0430
      6  C          6.7860    0.8840   -0.1370 C.2     1  UNL1       -0.0440
      7  C          8.0640    1.4320   -0.3000 C.2     1  UNL1        0.0080
      8  C          6.4780   -0.2830   -0.8000 C.2     1  UNL1        0.0540
      9  C          8.9720    0.7860   -1.1190 C.2     1  UNL1        0.0510
     10  C          7.4000   -0.9320   -1.6270 C.2     1  UNL1        0.1660
     11  C          8.6570   -0.3920   -1.7880 C.2     1  UNL1        0.1650
     12  O          7.3360   -2.0830   -2.3830 O.2     1  UNL1       -0.4540
     13  O          9.3460   -1.2330   -2.6480 O.2     1  UNL1       -0.4540
     14  C          8.5770   -2.3650   -2.9770 C.3     1  UNL1        0.4680
@<TRIPOS>BOND
     1    14    13    1
     2    14    12    1
     3    13    11    1
     4    12    10    1
     5    11    10    2
     6    11     9    1
     7    10     8    1
     8     9     7    2
     9     8     6    2
    10     7     6    1
    11     6     5    1
    12     1     5    1
    13     1     2    1
    14     3     2    1
    15     2     4    2
