@<TRIPOS>MOLECULE
/home/cewinharhar/GITHUB/reincatalyze/data/processed/docking_pred/2023-May-22-1902_sub9_nm5_bs15_s42_ex16_mel10_mts1000_k50_ec02_g099_lra9e-4_lrc1e-3/31638bda67923b1bb66f4f033a77b51352de91e4_ligand_9.pdbqt
 14 15 0 0 0
SMALL
GASTEIGER

@<TRIPOS>ATOM
      1  C          5.7470    1.3110   -0.3310 C.3     1  UNL1        0.0800
      2  C          5.1690    1.2890    1.0420 C.2     1  UNL1        0.1300
      3  C          5.3440    0.1190    1.9430 C.3     1  UNL1        0.0870
      4  O          4.5300    2.2370    1.4680 O.2     1  UNL1       -0.3000
      5  C          7.2460    1.0910   -0.3010 C.3     1  UNL1        0.0430
      6  C          7.6200   -0.2060   -0.8910 C.2     1  UNL1       -0.0440
      7  C          7.6960   -0.3860   -2.2770 C.2     1  UNL1        0.0080
      8  C          7.9060   -1.2730   -0.0700 C.2     1  UNL1        0.0540
      9  C          8.0540   -1.6260   -2.7740 C.2     1  UNL1        0.0510
     10  C          8.2670   -2.5240   -0.5770 C.2     1  UNL1        0.1660
     11  C          8.3410   -2.7030   -1.9410 C.2     1  UNL1        0.1650
     12  O          8.5930   -3.7230    0.0220 O.2     1  UNL1       -0.4540
     13  O          8.7160   -4.0200   -2.1530 O.2     1  UNL1       -0.4540
     14  C          8.9750   -4.6780   -0.9360 C.3     1  UNL1        0.4680
@<TRIPOS>BOND
     1     9     7    1
     2     9    11    2
     3     7     6    2
     4    13    11    1
     5    13    14    1
     6    11    10    1
     7    14    12    1
     8     6     5    1
     9     6     8    1
    10    10     8    2
    11    10    12    1
    12     1     5    1
    13     1     2    1
    14     2     4    2
    15     2     3    1
