MODEL 1
REMARK VINA RESULT:      -7.9      0.000      0.000
REMARK SMILES CC(=O)CCc1ccc2c(c1)OCO2
REMARK SMILES IDX 4 1 2 2 1 3 3 4 5 5 6 6 7 7 11 8 8 9 10 10 9 11 12 12 14 13
REMARK SMILES IDX 13 14
REMARK H PARENT
REMARK Flexibility Score: inf
ROOT
ATOM      1  C   UNL     1       5.435   2.937   0.174  1.00  0.00     0.080 C 
ENDROOT
BRANCH   1   2
ATOM      2  C   UNL     1       6.279   3.847   0.998  1.00  0.00     0.130 C 
ATOM      3  C   UNL     1       7.263   4.774   0.377  1.00  0.00     0.087 C 
ATOM      4  O   UNL     1       6.186   3.857   2.215  1.00  0.00    -0.300 OA
ENDBRANCH   1   2
BRANCH   1   5
ATOM      5  C   UNL     1       5.178   1.626   0.891  1.00  0.00     0.043 C 
BRANCH   5   6
ATOM      6  C   UNL     1       5.994   0.531   0.337  1.00  0.00    -0.044 A 
ATOM      7  C   UNL     1       6.344  -0.584   1.107  1.00  0.00     0.008 A 
ATOM      8  C   UNL     1       6.426   0.596  -0.968  1.00  0.00     0.054 A 
ATOM      9  C   UNL     1       7.112  -1.581   0.533  1.00  0.00     0.051 A 
ATOM     10  C   UNL     1       7.202  -0.416  -1.544  1.00  0.00     0.166 A 
ATOM     11  C   UNL     1       7.547  -1.513  -0.787  1.00  0.00     0.165 A 
ATOM     12  O   UNL     1       7.747  -0.582  -2.799  1.00  0.00    -0.454 OA
ATOM     13  O   UNL     1       8.305  -2.340  -1.601  1.00  0.00    -0.454 OA
ATOM     14  C   UNL     1       8.379  -1.831  -2.912  1.00  0.00     0.468 C 
ENDBRANCH   5   6
ENDBRANCH   1   5
TORSDOF 3
ENDMDL
MODEL 2
REMARK VINA RESULT:      -7.8      0.992      1.976
REMARK SMILES CC(=O)CCc1ccc2c(c1)OCO2
REMARK SMILES IDX 4 1 2 2 1 3 3 4 5 5 6 6 7 7 11 8 8 9 10 10 9 11 12 12 14 13
REMARK SMILES IDX 13 14
REMARK H PARENT
REMARK Flexibility Score: inf
ROOT
ATOM      1  C   UNL     1       5.482   2.894   0.210  1.00  0.00     0.080 C 
ENDROOT
BRANCH   1   2
ATOM      2  C   UNL     1       6.290   3.872   0.991  1.00  0.00     0.130 C 
ATOM      3  C   UNL     1       7.272   4.775   0.334  1.00  0.00     0.087 C 
ATOM      4  O   UNL     1       6.168   3.959   2.203  1.00  0.00    -0.300 OA
ENDBRANCH   1   2
BRANCH   1   5
ATOM      5  C   UNL     1       5.334   1.582   0.956  1.00  0.00     0.043 C 
BRANCH   5   6
ATOM      6  C   UNL     1       6.112   0.503   0.322  1.00  0.00    -0.044 A 
ATOM      7  C   UNL     1       6.401   0.514  -1.047  1.00  0.00     0.008 A 
ATOM      8  C   UNL     1       6.572  -0.545   1.086  1.00  0.00     0.054 A 
ATOM      9  C   UNL     1       7.136  -0.526  -1.587  1.00  0.00     0.051 A 
ATOM     10  C   UNL     1       7.315  -1.594   0.536  1.00  0.00     0.166 A 
ATOM     11  C   UNL     1       7.599  -1.584  -0.811  1.00  0.00     0.165 A 
ATOM     12  O   UNL     1       7.876  -2.732   1.076  1.00  0.00    -0.454 OA
ATOM     13  O   UNL     1       8.337  -2.728  -1.073  1.00  0.00    -0.454 OA
ATOM     14  C   UNL     1       8.613  -3.437   0.111  1.00  0.00     0.468 C 
ENDBRANCH   5   6
ENDBRANCH   1   5
TORSDOF 3
ENDMDL
MODEL 3
REMARK VINA RESULT:      -7.6      1.888      2.628
REMARK SMILES CC(=O)CCc1ccc2c(c1)OCO2
REMARK SMILES IDX 4 1 2 2 1 3 3 4 5 5 6 6 7 7 11 8 8 9 10 10 9 11 12 12 14 13
REMARK SMILES IDX 13 14
REMARK H PARENT
REMARK Flexibility Score: inf
ROOT
ATOM      1  C   UNL     1       5.521   1.944   1.246  1.00  0.00     0.080 C 
ENDROOT
BRANCH   1   2
ATOM      2  C   UNL     1       5.103   0.728   1.998  1.00  0.00     0.130 C 
ATOM      3  C   UNL     1       6.022  -0.425   2.192  1.00  0.00     0.087 C 
ATOM      4  O   UNL     1       3.984   0.643   2.479  1.00  0.00    -0.300 OA
ENDBRANCH   1   2
BRANCH   1   5
ATOM      5  C   UNL     1       5.394   1.737  -0.250  1.00  0.00     0.043 C 
BRANCH   5   6
ATOM      6  C   UNL     1       6.562   1.031  -0.805  1.00  0.00    -0.044 A 
ATOM      7  C   UNL     1       7.869   1.459  -0.545  1.00  0.00     0.008 A 
ATOM      8  C   UNL     1       6.375  -0.078  -1.598  1.00  0.00     0.054 A 
ATOM      9  C   UNL     1       8.927   0.756  -1.093  1.00  0.00     0.051 A 
ATOM     10  C   UNL     1       7.448  -0.786  -2.149  1.00  0.00     0.166 A 
ATOM     11  C   UNL     1       8.734  -0.365  -1.895  1.00  0.00     0.165 A 
ATOM     12  O   UNL     1       7.522  -1.901  -2.957  1.00  0.00    -0.454 OA
ATOM     13  O   UNL     1       9.580  -1.240  -2.557  1.00  0.00    -0.454 OA
ATOM     14  C   UNL     1       8.857  -2.282  -3.169  1.00  0.00     0.468 C 
ENDBRANCH   5   6
ENDBRANCH   1   5
TORSDOF 3
ENDMDL
MODEL 4
REMARK VINA RESULT:      -7.6      1.133      1.546
REMARK SMILES CC(=O)CCc1ccc2c(c1)OCO2
REMARK SMILES IDX 4 1 2 2 1 3 3 4 5 5 6 6 7 7 11 8 8 9 10 10 9 11 12 12 14 13
REMARK SMILES IDX 13 14
REMARK H PARENT
REMARK Flexibility Score: inf
ROOT
ATOM      1  C   UNL     1       5.385   2.873   0.156  1.00  0.00     0.080 C 
ENDROOT
BRANCH   1   2
ATOM      2  C   UNL     1       6.233   3.779   0.979  1.00  0.00     0.130 C 
ATOM      3  C   UNL     1       7.147   4.774   0.356  1.00  0.00     0.087 C 
ATOM      4  O   UNL     1       6.202   3.730   2.198  1.00  0.00    -0.300 OA
ENDBRANCH   1   2
BRANCH   1   5
ATOM      5  C   UNL     1       5.614   1.420   0.522  1.00  0.00     0.043 C 
BRANCH   5   6
ATOM      6  C   UNL     1       6.693   0.818  -0.280  1.00  0.00    -0.044 A 
ATOM      7  C   UNL     1       7.960   1.406  -0.364  1.00  0.00     0.008 A 
ATOM      8  C   UNL     1       6.462  -0.353  -0.965  1.00  0.00     0.054 A 
ATOM      9  C   UNL     1       8.935   0.795  -1.132  1.00  0.00     0.051 A 
ATOM     10  C   UNL     1       7.450  -0.968  -1.740  1.00  0.00     0.166 A 
ATOM     11  C   UNL     1       8.697  -0.388  -1.824  1.00  0.00     0.165 A 
ATOM     12  O   UNL     1       7.467  -2.115  -2.504  1.00  0.00    -0.454 OA
ATOM     13  O   UNL     1       9.462  -1.201  -2.646  1.00  0.00    -0.454 OA
ATOM     14  C   UNL     1       8.749  -2.355  -3.025  1.00  0.00     0.468 C 
ENDBRANCH   5   6
ENDBRANCH   1   5
TORSDOF 3
ENDMDL
MODEL 5
REMARK VINA RESULT:      -7.5      1.984      3.042
REMARK SMILES CC(=O)CCc1ccc2c(c1)OCO2
REMARK SMILES IDX 4 1 2 2 1 3 3 4 5 5 6 6 7 7 11 8 8 9 10 10 9 11 12 12 14 13
REMARK SMILES IDX 13 14
REMARK H PARENT
REMARK Flexibility Score: inf
ROOT
ATOM      1  C   UNL     1       5.780   1.388  -0.330  1.00  0.00     0.080 C 
ENDROOT
BRANCH   1   2
ATOM      2  C   UNL     1       5.126   1.310   1.006  1.00  0.00     0.130 C 
ATOM      3  C   UNL     1       5.409   0.196   1.950  1.00  0.00     0.087 C 
ATOM      4  O   UNL     1       4.332   2.164   1.366  1.00  0.00    -0.300 OA
ENDBRANCH   1   2
BRANCH   1   5
ATOM      5  C   UNL     1       7.268   1.119  -0.231  1.00  0.00     0.043 C 
BRANCH   5   6
ATOM      6  C   UNL     1       7.631  -0.176  -0.835  1.00  0.00    -0.044 A 
ATOM      7  C   UNL     1       7.704  -0.341  -2.223  1.00  0.00     0.008 A 
ATOM      8  C   UNL     1       7.909  -1.253  -0.025  1.00  0.00     0.054 A 
ATOM      9  C   UNL     1       8.050  -1.579  -2.734  1.00  0.00     0.051 A 
ATOM     10  C   UNL     1       8.260  -2.502  -0.547  1.00  0.00     0.166 A 
ATOM     11  C   UNL     1       8.331  -2.666  -1.912  1.00  0.00     0.165 A 
ATOM     12  O   UNL     1       8.577  -3.709   0.039  1.00  0.00    -0.454 OA
ATOM     13  O   UNL     1       8.695  -3.985  -2.139  1.00  0.00    -0.454 OA
ATOM     14  C   UNL     1       8.949  -4.657  -0.928  1.00  0.00     0.468 C 
ENDBRANCH   5   6
ENDBRANCH   1   5
TORSDOF 3
ENDMDL
