@<TRIPOS>MOLECULE
/home/cewinharhar/GITHUB/reincatalyze/data/processed/docking_pred/2023-May-22-1902_sub9_nm5_bs15_s42_ex16_mel10_mts1000_k50_ec02_g099_lra9e-4_lrc1e-3/32925d028e6f827171d23f19599134de0355568e_ligand_9.pdbqt
 14 15 0 0 0
SMALL
GASTEIGER

@<TRIPOS>ATOM
      1  C          5.7800    1.3880   -0.3300 C.3     1  UNL1        0.0800
      2  C          5.1260    1.3100    1.0060 C.2     1  UNL1        0.1300
      3  C          5.4090    0.1960    1.9500 C.3     1  UNL1        0.0870
      4  O          4.3320    2.1640    1.3660 O.2     1  UNL1       -0.3000
      5  C          7.2680    1.1190   -0.2310 C.3     1  UNL1        0.0430
      6  C          7.6310   -0.1760   -0.8350 C.2     1  UNL1       -0.0440
      7  C          7.7040   -0.3410   -2.2230 C.2     1  UNL1        0.0080
      8  C          7.9090   -1.2530   -0.0250 C.2     1  UNL1        0.0540
      9  C          8.0500   -1.5790   -2.7340 C.2     1  UNL1        0.0510
     10  C          8.2600   -2.5020   -0.5470 C.2     1  UNL1        0.1660
     11  C          8.3310   -2.6660   -1.9120 C.2     1  UNL1        0.1650
     12  O          8.5770   -3.7090    0.0390 O.2     1  UNL1       -0.4540
     13  O          8.6950   -3.9850   -2.1390 O.2     1  UNL1       -0.4540
     14  C          8.9490   -4.6570   -0.9280 C.3     1  UNL1        0.4680
@<TRIPOS>BOND
     1     9     7    1
     2     9    11    2
     3     7     6    2
     4    13    11    1
     5    13    14    1
     6    11    10    1
     7    14    12    1
     8     6     5    1
     9     6     8    1
    10    10     8    2
    11    10    12    1
    12     1     5    1
    13     1     2    1
    14     2     4    2
    15     2     3    1
