@<TRIPOS>MOLECULE
/home/cewinharhar/GITHUB/reincatalyze/data/processed/docking_pred/2023-May-22-1902_sub9_nm5_bs15_s42_ex16_mel10_mts1000_k50_ec02_g099_lra9e-4_lrc1e-3/32925d028e6f827171d23f19599134de0355568e_ligand_9.pdbqt
 14 15 0 0 0
SMALL
GASTEIGER

@<TRIPOS>ATOM
      1  C          5.4350    2.9370    0.1740 C.3     1  UNL1        0.0800
      2  C          6.2790    3.8470    0.9980 C.2     1  UNL1        0.1300
      3  C          7.2630    4.7740    0.3770 C.3     1  UNL1        0.0870
      4  O          6.1860    3.8570    2.2150 O.2     1  UNL1       -0.3000
      5  C          5.1780    1.6260    0.8910 C.3     1  UNL1        0.0430
      6  C          5.9940    0.5310    0.3370 C.2     1  UNL1       -0.0440
      7  C          6.3440   -0.5840    1.1070 C.2     1  UNL1        0.0080
      8  C          6.4260    0.5960   -0.9680 C.2     1  UNL1        0.0540
      9  C          7.1120   -1.5810    0.5330 C.2     1  UNL1        0.0510
     10  C          7.2020   -0.4160   -1.5440 C.2     1  UNL1        0.1660
     11  C          7.5470   -1.5130   -0.7870 C.2     1  UNL1        0.1650
     12  O          7.7470   -0.5820   -2.7990 O.2     1  UNL1       -0.4540
     13  O          8.3050   -2.3400   -1.6010 O.2     1  UNL1       -0.4540
     14  C          8.3790   -1.8310   -2.9120 C.3     1  UNL1        0.4680
@<TRIPOS>BOND
     1    14    12    1
     2    14    13    1
     3    12    10    1
     4    13    11    1
     5    10     8    1
     6    10    11    2
     7     8     6    2
     8    11     9    1
     9     1     5    1
    10     1     2    1
    11     6     5    1
    12     6     7    1
    13     3     2    1
    14     9     7    2
    15     2     4    2
