@<TRIPOS>MOLECULE
/home/cewinharhar/GITHUB/reincatalyze/data/processed/docking_pred/2023-May-22-1902_sub9_nm5_bs15_s42_ex16_mel10_mts1000_k50_ec02_g099_lra9e-4_lrc1e-3/354626f0a3e222b5e9865005b72eb67019ec4e19_ligand_9.pdbqt
 14 15 0 0 0
SMALL
GASTEIGER

@<TRIPOS>ATOM
      1  C          6.1290    0.7800    1.1630 C.3     1  UNL1        0.0800
      2  C          5.0060    1.7400    0.9750 C.2     1  UNL1        0.1300
      3  C          4.9340    2.6340   -0.2120 C.3     1  UNL1        0.0870
      4  O          4.1070    1.8220    1.7960 O.2     1  UNL1       -0.3000
      5  C          7.2180    0.9970    0.1320 C.3     1  UNL1        0.0430
      6  C          7.5570   -0.2500   -0.5760 C.2     1  UNL1       -0.0440
      7  C          7.5140   -0.3350   -1.9720 C.2     1  UNL1        0.0080
      8  C          7.9280   -1.3630    0.1430 C.2     1  UNL1        0.0540
      9  C          7.8440   -1.5320   -2.5820 C.2     1  UNL1        0.0510
     10  C          8.2610   -2.5710   -0.4780 C.2     1  UNL1        0.1660
     11  C          8.2180   -2.6560   -1.8520 C.2     1  UNL1        0.1650
     12  O          8.6550   -3.8000    0.0070 O.2     1  UNL1       -0.4540
     13  O          8.5910   -3.9490   -2.1850 O.2     1  UNL1       -0.4540
     14  C          8.9640   -4.6810   -1.0420 C.3     1  UNL1        0.4680
@<TRIPOS>BOND
     1     9     7    1
     2     9    11    2
     3    13    11    1
     4    13    14    1
     5     7     6    2
     6    11    10    1
     7    14    12    1
     8     6     5    1
     9     6     8    1
    10    10    12    1
    11    10     8    2
    12     3     2    1
    13     5     1    1
    14     2     1    1
    15     2     4    2
