MODEL 1
REMARK VINA RESULT:      -7.8      0.000      0.000
REMARK SMILES CC(=O)CCc1ccc2c(c1)OCO2
REMARK SMILES IDX 4 1 2 2 1 3 3 4 5 5 6 6 7 7 11 8 8 9 10 10 9 11 12 12 14 13
REMARK SMILES IDX 13 14
REMARK H PARENT
REMARK Flexibility Score: inf
ROOT
ATOM      1  C   UNL     1       5.463   2.898   0.259  1.00  0.00     0.080 C 
ENDROOT
BRANCH   1   2
ATOM      2  C   UNL     1       6.277   3.870   1.040  1.00  0.00     0.130 C 
ATOM      3  C   UNL     1       7.258   4.774   0.381  1.00  0.00     0.087 C 
ATOM      4  O   UNL     1       6.162   3.953   2.252  1.00  0.00    -0.300 OA
ENDBRANCH   1   2
BRANCH   1   5
ATOM      5  C   UNL     1       5.269   1.603   1.023  1.00  0.00     0.043 C 
BRANCH   5   6
ATOM      6  C   UNL     1       6.090   0.512   0.467  1.00  0.00    -0.044 A 
ATOM      7  C   UNL     1       6.478  -0.583   1.247  1.00  0.00     0.008 A 
ATOM      8  C   UNL     1       6.487   0.561  -0.850  1.00  0.00     0.054 A 
ATOM      9  C   UNL     1       7.247  -1.578   0.670  1.00  0.00     0.051 A 
ATOM     10  C   UNL     1       7.265  -0.447  -1.428  1.00  0.00     0.166 A 
ATOM     11  C   UNL     1       7.648  -1.525  -0.661  1.00  0.00     0.165 A 
ATOM     12  O   UNL     1       7.781  -0.627  -2.693  1.00  0.00    -0.454 OA
ATOM     13  O   UNL     1       8.398  -2.353  -1.481  1.00  0.00    -0.454 OA
ATOM     14  C   UNL     1       8.431  -1.867  -2.802  1.00  0.00     0.468 C 
ENDBRANCH   5   6
ENDBRANCH   1   5
TORSDOF 3
ENDMDL
MODEL 2
REMARK VINA RESULT:      -7.7      0.988      1.969
REMARK SMILES CC(=O)CCc1ccc2c(c1)OCO2
REMARK SMILES IDX 4 1 2 2 1 3 3 4 5 5 6 6 7 7 11 8 8 9 10 10 9 11 12 12 14 13
REMARK SMILES IDX 13 14
REMARK H PARENT
REMARK Flexibility Score: inf
ROOT
ATOM      1  C   UNL     1       5.311   3.029   0.329  1.00  0.00     0.080 C 
ENDROOT
BRANCH   1   2
ATOM      2  C   UNL     1       6.353   3.767   1.097  1.00  0.00     0.130 C 
ATOM      3  C   UNL     1       7.233   4.775   0.448  1.00  0.00     0.087 C 
ATOM      4  O   UNL     1       6.515   3.562   2.289  1.00  0.00    -0.300 OA
ENDBRANCH   1   2
BRANCH   1   5
ATOM      5  C   UNL     1       5.040   1.667   0.937  1.00  0.00     0.043 C 
BRANCH   5   6
ATOM      6  C   UNL     1       5.908   0.627   0.357  1.00  0.00    -0.044 A 
ATOM      7  C   UNL     1       6.363   0.705  -0.964  1.00  0.00     0.008 A 
ATOM      8  C   UNL     1       6.288  -0.450   1.125  1.00  0.00     0.054 A 
ATOM      9  C   UNL     1       7.176  -0.300  -1.454  1.00  0.00     0.051 A 
ATOM     10  C   UNL     1       7.111  -1.464   0.624  1.00  0.00     0.166 A 
ATOM     11  C   UNL     1       7.558  -1.389  -0.676  1.00  0.00     0.165 A 
ATOM     12  O   UNL     1       7.620  -2.620   1.178  1.00  0.00    -0.454 OA
ATOM     13  O   UNL     1       8.342  -2.510  -0.896  1.00  0.00    -0.454 OA
ATOM     14  C   UNL     1       8.482  -3.271   0.280  1.00  0.00     0.468 C 
ENDBRANCH   5   6
ENDBRANCH   1   5
TORSDOF 3
ENDMDL
MODEL 3
REMARK VINA RESULT:      -7.7      1.911      2.644
REMARK SMILES CC(=O)CCc1ccc2c(c1)OCO2
REMARK SMILES IDX 4 1 2 2 1 3 3 4 5 5 6 6 7 7 11 8 8 9 10 10 9 11 12 12 14 13
REMARK SMILES IDX 13 14
REMARK H PARENT
REMARK Flexibility Score: inf
ROOT
ATOM      1  C   UNL     1       5.531   1.939   1.255  1.00  0.00     0.080 C 
ENDROOT
BRANCH   1   2
ATOM      2  C   UNL     1       5.113   0.720   2.002  1.00  0.00     0.130 C 
ATOM      3  C   UNL     1       6.032  -0.435   2.188  1.00  0.00     0.087 C 
ATOM      4  O   UNL     1       3.996   0.633   2.485  1.00  0.00    -0.300 OA
ENDBRANCH   1   2
BRANCH   1   5
ATOM      5  C   UNL     1       5.404   1.739  -0.242  1.00  0.00     0.043 C 
BRANCH   5   6
ATOM      6  C   UNL     1       6.570   1.030  -0.799  1.00  0.00    -0.044 A 
ATOM      7  C   UNL     1       7.878   1.452  -0.537  1.00  0.00     0.008 A 
ATOM      8  C   UNL     1       6.379  -0.076  -1.596  1.00  0.00     0.054 A 
ATOM      9  C   UNL     1       8.933   0.747  -1.087  1.00  0.00     0.051 A 
ATOM     10  C   UNL     1       7.449  -0.786  -2.148  1.00  0.00     0.166 A 
ATOM     11  C   UNL     1       8.737  -0.371  -1.892  1.00  0.00     0.165 A 
ATOM     12  O   UNL     1       7.519  -1.898  -2.960  1.00  0.00    -0.454 OA
ATOM     13  O   UNL     1       9.580  -1.246  -2.558  1.00  0.00    -0.454 OA
ATOM     14  C   UNL     1       8.853  -2.283  -3.172  1.00  0.00     0.468 C 
ENDBRANCH   5   6
ENDBRANCH   1   5
TORSDOF 3
ENDMDL
MODEL 4
REMARK VINA RESULT:      -7.5      1.968      3.049
REMARK SMILES CC(=O)CCc1ccc2c(c1)OCO2
REMARK SMILES IDX 4 1 2 2 1 3 3 4 5 5 6 6 7 7 11 8 8 9 10 10 9 11 12 12 14 13
REMARK SMILES IDX 13 14
REMARK H PARENT
REMARK Flexibility Score: inf
ROOT
ATOM      1  C   UNL     1       5.766   1.321  -0.428  1.00  0.00     0.080 C 
ENDROOT
BRANCH   1   2
ATOM      2  C   UNL     1       5.175   1.353   0.938  1.00  0.00     0.130 C 
ATOM      3  C   UNL     1       5.329   0.214   1.883  1.00  0.00     0.087 C 
ATOM      4  O   UNL     1       4.542   2.322   1.325  1.00  0.00    -0.300 OA
ENDBRANCH   1   2
BRANCH   1   5
ATOM      5  C   UNL     1       7.264   1.099  -0.375  1.00  0.00     0.043 C 
BRANCH   5   6
ATOM      6  C   UNL     1       7.644  -0.205  -0.948  1.00  0.00    -0.044 A 
ATOM      7  C   UNL     1       7.749  -0.396  -2.331  1.00  0.00     0.008 A 
ATOM      8  C   UNL     1       7.906  -1.267  -0.113  1.00  0.00     0.054 A 
ATOM      9  C   UNL     1       8.110  -1.641  -2.811  1.00  0.00     0.051 A 
ATOM     10  C   UNL     1       8.271  -2.524  -0.603  1.00  0.00     0.166 A 
ATOM     11  C   UNL     1       8.373  -2.713  -1.963  1.00  0.00     0.165 A 
ATOM     12  O   UNL     1       8.578  -3.720   0.012  1.00  0.00    -0.454 OA
ATOM     13  O   UNL     1       8.746  -4.034  -2.158  1.00  0.00    -0.454 OA
ATOM     14  C   UNL     1       8.974  -4.684  -0.930  1.00  0.00     0.468 C 
ENDBRANCH   5   6
ENDBRANCH   1   5
TORSDOF 3
ENDMDL
MODEL 5
REMARK VINA RESULT:      -7.4      1.823      2.817
REMARK SMILES CC(=O)CCc1ccc2c(c1)OCO2
REMARK SMILES IDX 4 1 2 2 1 3 3 4 5 5 6 6 7 7 11 8 8 9 10 10 9 11 12 12 14 13
REMARK SMILES IDX 13 14
REMARK H PARENT
REMARK Flexibility Score: inf
ROOT
ATOM      1  C   UNL     1       6.129   0.780   1.163  1.00  0.00     0.080 C 
ENDROOT
BRANCH   1   2
ATOM      2  C   UNL     1       5.006   1.740   0.975  1.00  0.00     0.130 C 
ATOM      3  C   UNL     1       4.934   2.634  -0.212  1.00  0.00     0.087 C 
ATOM      4  O   UNL     1       4.107   1.822   1.796  1.00  0.00    -0.300 OA
ENDBRANCH   1   2
BRANCH   1   5
ATOM      5  C   UNL     1       7.218   0.997   0.132  1.00  0.00     0.043 C 
BRANCH   5   6
ATOM      6  C   UNL     1       7.557  -0.250  -0.576  1.00  0.00    -0.044 A 
ATOM      7  C   UNL     1       7.514  -0.335  -1.972  1.00  0.00     0.008 A 
ATOM      8  C   UNL     1       7.928  -1.363   0.143  1.00  0.00     0.054 A 
ATOM      9  C   UNL     1       7.844  -1.532  -2.582  1.00  0.00     0.051 A 
ATOM     10  C   UNL     1       8.261  -2.571  -0.478  1.00  0.00     0.166 A 
ATOM     11  C   UNL     1       8.218  -2.656  -1.852  1.00  0.00     0.165 A 
ATOM     12  O   UNL     1       8.655  -3.800   0.007  1.00  0.00    -0.454 OA
ATOM     13  O   UNL     1       8.591  -3.949  -2.185  1.00  0.00    -0.454 OA
ATOM     14  C   UNL     1       8.964  -4.681  -1.042  1.00  0.00     0.468 C 
ENDBRANCH   5   6
ENDBRANCH   1   5
TORSDOF 3
ENDMDL
