@<TRIPOS>MOLECULE
/home/cewinharhar/GITHUB/reincatalyze/data/processed/docking_pred/2023-May-22-1902_sub9_nm5_bs15_s42_ex16_mel10_mts1000_k50_ec02_g099_lra9e-4_lrc1e-3/354626f0a3e222b5e9865005b72eb67019ec4e19_ligand_9.pdbqt
 14 15 0 0 0
SMALL
GASTEIGER

@<TRIPOS>ATOM
      1  C          5.3110    3.0290    0.3290 C.3     1  UNL1        0.0800
      2  C          6.3530    3.7670    1.0970 C.2     1  UNL1        0.1300
      3  C          7.2330    4.7750    0.4480 C.3     1  UNL1        0.0870
      4  O          6.5150    3.5620    2.2890 O.2     1  UNL1       -0.3000
      5  C          5.0400    1.6670    0.9370 C.3     1  UNL1        0.0430
      6  C          5.9080    0.6270    0.3570 C.2     1  UNL1       -0.0440
      7  C          6.3630    0.7050   -0.9640 C.2     1  UNL1        0.0080
      8  C          6.2880   -0.4500    1.1250 C.2     1  UNL1        0.0540
      9  C          7.1760   -0.3000   -1.4540 C.2     1  UNL1        0.0510
     10  C          7.1110   -1.4640    0.6240 C.2     1  UNL1        0.1660
     11  C          7.5580   -1.3890   -0.6760 C.2     1  UNL1        0.1650
     12  O          7.6200   -2.6200    1.1780 O.2     1  UNL1       -0.4540
     13  O          8.3420   -2.5100   -0.8960 O.2     1  UNL1       -0.4540
     14  C          8.4820   -3.2710    0.2800 C.3     1  UNL1        0.4680
@<TRIPOS>BOND
     1     9     7    1
     2     9    11    2
     3     7     6    2
     4    13    11    1
     5    13    14    1
     6    11    10    1
     7    14    12    1
     8     1     5    1
     9     1     2    1
    10     6     5    1
    11     6     8    1
    12     3     2    1
    13    10     8    2
    14    10    12    1
    15     2     4    2
