@<TRIPOS>MOLECULE
/home/cewinharhar/GITHUB/reincatalyze/data/processed/docking_pred/2023-May-22-1902_sub9_nm5_bs15_s42_ex16_mel10_mts1000_k50_ec02_g099_lra9e-4_lrc1e-3/354626f0a3e222b5e9865005b72eb67019ec4e19_ligand_9.pdbqt
 14 15 0 0 0
SMALL
GASTEIGER

@<TRIPOS>ATOM
      1  C          5.4630    2.8980    0.2590 C.3     1  UNL1        0.0800
      2  C          6.2770    3.8700    1.0400 C.2     1  UNL1        0.1300
      3  C          7.2580    4.7740    0.3810 C.3     1  UNL1        0.0870
      4  O          6.1620    3.9530    2.2520 O.2     1  UNL1       -0.3000
      5  C          5.2690    1.6030    1.0230 C.3     1  UNL1        0.0430
      6  C          6.0900    0.5120    0.4670 C.2     1  UNL1       -0.0440
      7  C          6.4780   -0.5830    1.2470 C.2     1  UNL1        0.0080
      8  C          6.4870    0.5610   -0.8500 C.2     1  UNL1        0.0540
      9  C          7.2470   -1.5780    0.6700 C.2     1  UNL1        0.0510
     10  C          7.2650   -0.4470   -1.4280 C.2     1  UNL1        0.1660
     11  C          7.6480   -1.5250   -0.6610 C.2     1  UNL1        0.1650
     12  O          7.7810   -0.6270   -2.6930 O.2     1  UNL1       -0.4540
     13  O          8.3980   -2.3530   -1.4810 O.2     1  UNL1       -0.4540
     14  C          8.4310   -1.8670   -2.8020 C.3     1  UNL1        0.4680
@<TRIPOS>BOND
     1    14    12    1
     2    14    13    1
     3    12    10    1
     4    13    11    1
     5    10     8    1
     6    10    11    2
     7     8     6    2
     8    11     9    1
     9     1     5    1
    10     1     2    1
    11     3     2    1
    12     6     5    1
    13     6     7    1
    14     9     7    2
    15     2     4    2
