@<TRIPOS>MOLECULE
/home/cewinharhar/GITHUB/reincatalyze/data/processed/docking_pred/2023-May-22-1902_sub9_nm5_bs15_s42_ex16_mel10_mts1000_k50_ec02_g099_lra9e-4_lrc1e-3/354626f0a3e222b5e9865005b72eb67019ec4e19_ligand_9.pdbqt
 14 15 0 0 0
SMALL
GASTEIGER

@<TRIPOS>ATOM
      1  C          5.7660    1.3210   -0.4280 C.3     1  UNL1        0.0800
      2  C          5.1750    1.3530    0.9380 C.2     1  UNL1        0.1300
      3  C          5.3290    0.2140    1.8830 C.3     1  UNL1        0.0870
      4  O          4.5420    2.3220    1.3250 O.2     1  UNL1       -0.3000
      5  C          7.2640    1.0990   -0.3750 C.3     1  UNL1        0.0430
      6  C          7.6440   -0.2050   -0.9480 C.2     1  UNL1       -0.0440
      7  C          7.7490   -0.3960   -2.3310 C.2     1  UNL1        0.0080
      8  C          7.9060   -1.2670   -0.1130 C.2     1  UNL1        0.0540
      9  C          8.1100   -1.6410   -2.8110 C.2     1  UNL1        0.0510
     10  C          8.2710   -2.5240   -0.6030 C.2     1  UNL1        0.1660
     11  C          8.3730   -2.7130   -1.9630 C.2     1  UNL1        0.1650
     12  O          8.5780   -3.7200    0.0120 O.2     1  UNL1       -0.4540
     13  O          8.7460   -4.0340   -2.1580 O.2     1  UNL1       -0.4540
     14  C          8.9740   -4.6840   -0.9300 C.3     1  UNL1        0.4680
@<TRIPOS>BOND
     1     9     7    1
     2     9    11    2
     3     7     6    2
     4    13    11    1
     5    13    14    1
     6    11    10    1
     7     6     5    1
     8     6     8    1
     9    14    12    1
    10    10     8    2
    11    10    12    1
    12     1     5    1
    13     1     2    1
    14     2     4    2
    15     2     3    1
