MODEL 1
REMARK VINA RESULT:      -7.9      0.000      0.000
REMARK SMILES CC(=O)CCc1ccc2c(c1)OCO2
REMARK SMILES IDX 4 1 2 2 1 3 3 4 5 5 6 6 7 7 11 8 8 9 10 10 9 11 12 12 14 13
REMARK SMILES IDX 13 14
REMARK H PARENT
REMARK Flexibility Score: inf
ROOT
ATOM      1  C   UNL     1       5.402   2.936   0.115  1.00  0.00     0.080 C 
ENDROOT
BRANCH   1   2
ATOM      2  C   UNL     1       6.304   3.775   0.953  1.00  0.00     0.130 C 
ATOM      3  C   UNL     1       7.226   4.774   0.349  1.00  0.00     0.087 C 
ATOM      4  O   UNL     1       6.312   3.665   2.169  1.00  0.00    -0.300 OA
ENDBRANCH   1   2
BRANCH   1   5
ATOM      5  C   UNL     1       5.083   1.620   0.797  1.00  0.00     0.043 C 
BRANCH   5   6
ATOM      6  C   UNL     1       5.944   0.529   0.309  1.00  0.00    -0.044 A 
ATOM      7  C   UNL     1       6.333  -0.527   1.142  1.00  0.00     0.008 A 
ATOM      8  C   UNL     1       6.381   0.536  -0.996  1.00  0.00     0.054 A 
ATOM      9  C   UNL     1       7.142  -1.524   0.628  1.00  0.00     0.051 A 
ATOM     10  C   UNL     1       7.198  -0.475  -1.511  1.00  0.00     0.166 A 
ATOM     11  C   UNL     1       7.582  -1.513  -0.692  1.00  0.00     0.165 A 
ATOM     12  O   UNL     1       7.756  -0.691  -2.753  1.00  0.00    -0.454 OA
ATOM     13  O   UNL     1       8.375  -2.355  -1.456  1.00  0.00    -0.454 OA
ATOM     14  C   UNL     1       8.437  -1.919  -2.793  1.00  0.00     0.468 C 
ENDBRANCH   5   6
ENDBRANCH   1   5
TORSDOF 3
ENDMDL
MODEL 2
REMARK VINA RESULT:      -7.8      0.960      1.945
REMARK SMILES CC(=O)CCc1ccc2c(c1)OCO2
REMARK SMILES IDX 4 1 2 2 1 3 3 4 5 5 6 6 7 7 11 8 8 9 10 10 9 11 12 12 14 13
REMARK SMILES IDX 13 14
REMARK H PARENT
REMARK Flexibility Score: inf
ROOT
ATOM      1  C   UNL     1       5.482   2.894   0.210  1.00  0.00     0.080 C 
ENDROOT
BRANCH   1   2
ATOM      2  C   UNL     1       6.290   3.872   0.991  1.00  0.00     0.130 C 
ATOM      3  C   UNL     1       7.272   4.775   0.334  1.00  0.00     0.087 C 
ATOM      4  O   UNL     1       6.168   3.959   2.203  1.00  0.00    -0.300 OA
ENDBRANCH   1   2
BRANCH   1   5
ATOM      5  C   UNL     1       5.334   1.582   0.956  1.00  0.00     0.043 C 
BRANCH   5   6
ATOM      6  C   UNL     1       6.112   0.503   0.322  1.00  0.00    -0.044 A 
ATOM      7  C   UNL     1       6.401   0.514  -1.047  1.00  0.00     0.008 A 
ATOM      8  C   UNL     1       6.572  -0.545   1.086  1.00  0.00     0.054 A 
ATOM      9  C   UNL     1       7.136  -0.526  -1.587  1.00  0.00     0.051 A 
ATOM     10  C   UNL     1       7.315  -1.594   0.536  1.00  0.00     0.166 A 
ATOM     11  C   UNL     1       7.599  -1.584  -0.811  1.00  0.00     0.165 A 
ATOM     12  O   UNL     1       7.876  -2.732   1.076  1.00  0.00    -0.454 OA
ATOM     13  O   UNL     1       8.337  -2.728  -1.073  1.00  0.00    -0.454 OA
ATOM     14  C   UNL     1       8.613  -3.437   0.111  1.00  0.00     0.468 C 
ENDBRANCH   5   6
ENDBRANCH   1   5
TORSDOF 3
ENDMDL
MODEL 3
REMARK VINA RESULT:      -7.6      1.879      2.626
REMARK SMILES CC(=O)CCc1ccc2c(c1)OCO2
REMARK SMILES IDX 4 1 2 2 1 3 3 4 5 5 6 6 7 7 11 8 8 9 10 10 9 11 12 12 14 13
REMARK SMILES IDX 13 14
REMARK H PARENT
REMARK Flexibility Score: inf
ROOT
ATOM      1  C   UNL     1       5.504   1.925   1.257  1.00  0.00     0.080 C 
ENDROOT
BRANCH   1   2
ATOM      2  C   UNL     1       5.062   0.709   1.995  1.00  0.00     0.130 C 
ATOM      3  C   UNL     1       5.947  -0.476   2.149  1.00  0.00     0.087 C 
ATOM      4  O   UNL     1       3.951   0.651   2.498  1.00  0.00    -0.300 OA
ENDBRANCH   1   2
BRANCH   1   5
ATOM      5  C   UNL     1       5.382   1.733  -0.242  1.00  0.00     0.043 C 
BRANCH   5   6
ATOM      6  C   UNL     1       6.554   1.035  -0.800  1.00  0.00    -0.044 A 
ATOM      7  C   UNL     1       7.859   1.472  -0.544  1.00  0.00     0.008 A 
ATOM      8  C   UNL     1       6.372  -0.077  -1.591  1.00  0.00     0.054 A 
ATOM      9  C   UNL     1       8.919   0.775  -1.095  1.00  0.00     0.051 A 
ATOM     10  C   UNL     1       7.448  -0.777  -2.145  1.00  0.00     0.166 A 
ATOM     11  C   UNL     1       8.732  -0.347  -1.895  1.00  0.00     0.165 A 
ATOM     12  O   UNL     1       7.528  -1.892  -2.952  1.00  0.00    -0.454 OA
ATOM     13  O   UNL     1       9.582  -1.217  -2.559  1.00  0.00    -0.454 OA
ATOM     14  C   UNL     1       8.865  -2.264  -3.167  1.00  0.00     0.468 C 
ENDBRANCH   5   6
ENDBRANCH   1   5
TORSDOF 3
ENDMDL
MODEL 4
REMARK VINA RESULT:      -7.5      1.948      3.036
REMARK SMILES CC(=O)CCc1ccc2c(c1)OCO2
REMARK SMILES IDX 4 1 2 2 1 3 3 4 5 5 6 6 7 7 11 8 8 9 10 10 9 11 12 12 14 13
REMARK SMILES IDX 13 14
REMARK H PARENT
REMARK Flexibility Score: inf
ROOT
ATOM      1  C   UNL     1       5.742   1.313  -0.374  1.00  0.00     0.080 C 
ENDROOT
BRANCH   1   2
ATOM      2  C   UNL     1       5.165   1.317   1.000  1.00  0.00     0.130 C 
ATOM      3  C   UNL     1       5.368   0.178   1.935  1.00  0.00     0.087 C 
ATOM      4  O   UNL     1       4.504   2.261   1.400  1.00  0.00    -0.300 OA
ENDBRANCH   1   2
BRANCH   1   5
ATOM      5  C   UNL     1       7.242   1.100  -0.340  1.00  0.00     0.043 C 
BRANCH   5   6
ATOM      6  C   UNL     1       7.623  -0.200  -0.920  1.00  0.00    -0.044 A 
ATOM      7  C   UNL     1       7.710  -0.387  -2.305  1.00  0.00     0.008 A 
ATOM      8  C   UNL     1       7.903  -1.261  -0.090  1.00  0.00     0.054 A 
ATOM      9  C   UNL     1       8.073  -1.630  -2.792  1.00  0.00     0.051 A 
ATOM     10  C   UNL     1       8.270  -2.515  -0.588  1.00  0.00     0.166 A 
ATOM     11  C   UNL     1       8.355  -2.701  -1.950  1.00  0.00     0.165 A 
ATOM     12  O   UNL     1       8.592  -3.710   0.020  1.00  0.00    -0.454 OA
ATOM     13  O   UNL     1       8.733  -4.019  -2.152  1.00  0.00    -0.454 OA
ATOM     14  C   UNL     1       8.982  -4.670  -0.928  1.00  0.00     0.468 C 
ENDBRANCH   5   6
ENDBRANCH   1   5
TORSDOF 3
ENDMDL
MODEL 5
REMARK VINA RESULT:      -7.5      1.152      1.527
REMARK SMILES CC(=O)CCc1ccc2c(c1)OCO2
REMARK SMILES IDX 4 1 2 2 1 3 3 4 5 5 6 6 7 7 11 8 8 9 10 10 9 11 12 12 14 13
REMARK SMILES IDX 13 14
REMARK H PARENT
REMARK Flexibility Score: inf
ROOT
ATOM      1  C   UNL     1       5.427   2.910   0.363  1.00  0.00     0.080 C 
ENDROOT
BRANCH   1   2
ATOM      2  C   UNL     1       6.243   3.900   1.120  1.00  0.00     0.130 C 
ATOM      3  C   UNL     1       7.236   4.775   0.441  1.00  0.00     0.087 C 
ATOM      4  O   UNL     1       6.119   4.022   2.328  1.00  0.00    -0.300 OA
ENDBRANCH   1   2
BRANCH   1   5
ATOM      5  C   UNL     1       5.745   1.492   0.793  1.00  0.00     0.043 C 
BRANCH   5   6
ATOM      6  C   UNL     1       6.755   0.870  -0.082  1.00  0.00    -0.044 A 
ATOM      7  C   UNL     1       8.021   1.440  -0.260  1.00  0.00     0.008 A 
ATOM      8  C   UNL     1       6.458  -0.300  -0.743  1.00  0.00     0.054 A 
ATOM      9  C   UNL     1       8.929   0.811  -1.093  1.00  0.00     0.051 A 
ATOM     10  C   UNL     1       7.379  -0.933  -1.583  1.00  0.00     0.166 A 
ATOM     11  C   UNL     1       8.625  -0.372  -1.760  1.00  0.00     0.165 A 
ATOM     12  O   UNL     1       7.325  -2.084  -2.340  1.00  0.00    -0.454 OA
ATOM     13  O   UNL     1       9.317  -1.200  -2.630  1.00  0.00    -0.454 OA
ATOM     14  C   UNL     1       8.562  -2.344  -2.951  1.00  0.00     0.468 C 
ENDBRANCH   5   6
ENDBRANCH   1   5
TORSDOF 3
ENDMDL
