@<TRIPOS>MOLECULE
/home/cewinharhar/GITHUB/reincatalyze/data/processed/docking_pred/2023-May-22-1902_sub9_nm5_bs15_s42_ex16_mel10_mts1000_k50_ec02_g099_lra9e-4_lrc1e-3/36543b95c0c748273319382419c31c9b55863a9a_ligand_9.pdbqt
 14 15 0 0 0
SMALL
GASTEIGER

@<TRIPOS>ATOM
      1  C          5.4270    2.9100    0.3630 C.3     1  UNL1        0.0800
      2  C          6.2430    3.9000    1.1200 C.2     1  UNL1        0.1300
      3  C          7.2360    4.7750    0.4410 C.3     1  UNL1        0.0870
      4  O          6.1190    4.0220    2.3280 O.2     1  UNL1       -0.3000
      5  C          5.7450    1.4920    0.7930 C.3     1  UNL1        0.0430
      6  C          6.7550    0.8700   -0.0820 C.2     1  UNL1       -0.0440
      7  C          8.0210    1.4400   -0.2600 C.2     1  UNL1        0.0080
      8  C          6.4580   -0.3000   -0.7430 C.2     1  UNL1        0.0540
      9  C          8.9290    0.8110   -1.0930 C.2     1  UNL1        0.0510
     10  C          7.3790   -0.9330   -1.5830 C.2     1  UNL1        0.1660
     11  C          8.6250   -0.3720   -1.7600 C.2     1  UNL1        0.1650
     12  O          7.3250   -2.0840   -2.3400 O.2     1  UNL1       -0.4540
     13  O          9.3170   -1.2000   -2.6300 O.2     1  UNL1       -0.4540
     14  C          8.5620   -2.3440   -2.9510 C.3     1  UNL1        0.4680
@<TRIPOS>BOND
     1    14    13    1
     2    14    12    1
     3    13    11    1
     4    12    10    1
     5    11    10    2
     6    11     9    1
     7    10     8    1
     8     9     7    2
     9     8     6    2
    10     7     6    1
    11     6     5    1
    12     1     5    1
    13     1     2    1
    14     3     2    1
    15     2     4    2
