MODEL 1
REMARK VINA RESULT:      -7.9      0.000      0.000
REMARK SMILES CC(=O)CCc1ccc2c(c1)OCO2
REMARK SMILES IDX 4 1 2 2 1 3 3 4 5 5 6 6 7 7 11 8 8 9 10 10 9 11 12 12 14 13
REMARK SMILES IDX 13 14
REMARK H PARENT
REMARK Flexibility Score: inf
ROOT
ATOM      1  C   UNL     1       5.402   2.936   0.115  1.00  0.00     0.080 C 
ENDROOT
BRANCH   1   2
ATOM      2  C   UNL     1       6.304   3.775   0.953  1.00  0.00     0.130 C 
ATOM      3  C   UNL     1       7.226   4.774   0.349  1.00  0.00     0.087 C 
ATOM      4  O   UNL     1       6.312   3.665   2.169  1.00  0.00    -0.300 OA
ENDBRANCH   1   2
BRANCH   1   5
ATOM      5  C   UNL     1       5.083   1.620   0.797  1.00  0.00     0.043 C 
BRANCH   5   6
ATOM      6  C   UNL     1       5.944   0.529   0.309  1.00  0.00    -0.044 A 
ATOM      7  C   UNL     1       6.333  -0.527   1.142  1.00  0.00     0.008 A 
ATOM      8  C   UNL     1       6.381   0.536  -0.996  1.00  0.00     0.054 A 
ATOM      9  C   UNL     1       7.142  -1.524   0.628  1.00  0.00     0.051 A 
ATOM     10  C   UNL     1       7.198  -0.475  -1.511  1.00  0.00     0.166 A 
ATOM     11  C   UNL     1       7.582  -1.513  -0.692  1.00  0.00     0.165 A 
ATOM     12  O   UNL     1       7.756  -0.691  -2.753  1.00  0.00    -0.454 OA
ATOM     13  O   UNL     1       8.375  -2.355  -1.456  1.00  0.00    -0.454 OA
ATOM     14  C   UNL     1       8.437  -1.919  -2.793  1.00  0.00     0.468 C 
ENDBRANCH   5   6
ENDBRANCH   1   5
TORSDOF 3
ENDMDL
MODEL 2
REMARK VINA RESULT:      -7.8      0.960      1.945
REMARK SMILES CC(=O)CCc1ccc2c(c1)OCO2
REMARK SMILES IDX 4 1 2 2 1 3 3 4 5 5 6 6 7 7 11 8 8 9 10 10 9 11 12 12 14 13
REMARK SMILES IDX 13 14
REMARK H PARENT
REMARK Flexibility Score: inf
ROOT
ATOM      1  C   UNL     1       5.482   2.894   0.210  1.00  0.00     0.080 C 
ENDROOT
BRANCH   1   2
ATOM      2  C   UNL     1       6.290   3.872   0.991  1.00  0.00     0.130 C 
ATOM      3  C   UNL     1       7.272   4.775   0.334  1.00  0.00     0.087 C 
ATOM      4  O   UNL     1       6.168   3.959   2.203  1.00  0.00    -0.300 OA
ENDBRANCH   1   2
BRANCH   1   5
ATOM      5  C   UNL     1       5.334   1.582   0.956  1.00  0.00     0.043 C 
BRANCH   5   6
ATOM      6  C   UNL     1       6.112   0.503   0.322  1.00  0.00    -0.044 A 
ATOM      7  C   UNL     1       6.401   0.514  -1.047  1.00  0.00     0.008 A 
ATOM      8  C   UNL     1       6.572  -0.545   1.086  1.00  0.00     0.054 A 
ATOM      9  C   UNL     1       7.136  -0.526  -1.587  1.00  0.00     0.051 A 
ATOM     10  C   UNL     1       7.315  -1.594   0.536  1.00  0.00     0.166 A 
ATOM     11  C   UNL     1       7.599  -1.584  -0.811  1.00  0.00     0.165 A 
ATOM     12  O   UNL     1       7.876  -2.732   1.076  1.00  0.00    -0.454 OA
ATOM     13  O   UNL     1       8.337  -2.728  -1.073  1.00  0.00    -0.454 OA
ATOM     14  C   UNL     1       8.613  -3.437   0.111  1.00  0.00     0.468 C 
ENDBRANCH   5   6
ENDBRANCH   1   5
TORSDOF 3
ENDMDL
MODEL 3
REMARK VINA RESULT:      -7.6      1.877      2.620
REMARK SMILES CC(=O)CCc1ccc2c(c1)OCO2
REMARK SMILES IDX 4 1 2 2 1 3 3 4 5 5 6 6 7 7 11 8 8 9 10 10 9 11 12 12 14 13
REMARK SMILES IDX 13 14
REMARK H PARENT
REMARK Flexibility Score: inf
ROOT
ATOM      1  C   UNL     1       5.497   1.935   1.254  1.00  0.00     0.080 C 
ENDROOT
BRANCH   1   2
ATOM      2  C   UNL     1       5.060   0.719   1.994  1.00  0.00     0.130 C 
ATOM      3  C   UNL     1       5.950  -0.463   2.148  1.00  0.00     0.087 C 
ATOM      4  O   UNL     1       3.951   0.657   2.500  1.00  0.00    -0.300 OA
ENDBRANCH   1   2
BRANCH   1   5
ATOM      5  C   UNL     1       5.376   1.740  -0.245  1.00  0.00     0.043 C 
BRANCH   5   6
ATOM      6  C   UNL     1       6.547   1.038  -0.800  1.00  0.00    -0.044 A 
ATOM      7  C   UNL     1       7.853   1.473  -0.543  1.00  0.00     0.008 A 
ATOM      8  C   UNL     1       6.365  -0.074  -1.591  1.00  0.00     0.054 A 
ATOM      9  C   UNL     1       8.913   0.775  -1.090  1.00  0.00     0.051 A 
ATOM     10  C   UNL     1       7.441  -0.777  -2.142  1.00  0.00     0.166 A 
ATOM     11  C   UNL     1       8.725  -0.349  -1.890  1.00  0.00     0.165 A 
ATOM     12  O   UNL     1       7.520  -1.893  -2.947  1.00  0.00    -0.454 OA
ATOM     13  O   UNL     1       9.575  -1.221  -2.552  1.00  0.00    -0.454 OA
ATOM     14  C   UNL     1       8.857  -2.267  -3.160  1.00  0.00     0.468 C 
ENDBRANCH   5   6
ENDBRANCH   1   5
TORSDOF 3
ENDMDL
MODEL 4
REMARK VINA RESULT:      -7.5      1.941      3.036
REMARK SMILES CC(=O)CCc1ccc2c(c1)OCO2
REMARK SMILES IDX 4 1 2 2 1 3 3 4 5 5 6 6 7 7 11 8 8 9 10 10 9 11 12 12 14 13
REMARK SMILES IDX 13 14
REMARK H PARENT
REMARK Flexibility Score: inf
ROOT
ATOM      1  C   UNL     1       5.760   1.323  -0.373  1.00  0.00     0.080 C 
ENDROOT
BRANCH   1   2
ATOM      2  C   UNL     1       5.184   1.321   1.001  1.00  0.00     0.130 C 
ATOM      3  C   UNL     1       5.364   0.167   1.921  1.00  0.00     0.087 C 
ATOM      4  O   UNL     1       4.542   2.274   1.412  1.00  0.00    -0.300 OA
ENDBRANCH   1   2
BRANCH   1   5
ATOM      5  C   UNL     1       7.260   1.106  -0.341  1.00  0.00     0.043 C 
BRANCH   5   6
ATOM      6  C   UNL     1       7.636  -0.194  -0.925  1.00  0.00    -0.044 A 
ATOM      7  C   UNL     1       7.743  -0.373  -2.309  1.00  0.00     0.008 A 
ATOM      8  C   UNL     1       7.894  -1.264  -0.099  1.00  0.00     0.054 A 
ATOM      9  C   UNL     1       8.100  -1.615  -2.800  1.00  0.00     0.051 A 
ATOM     10  C   UNL     1       8.255  -2.518  -0.600  1.00  0.00     0.166 A 
ATOM     11  C   UNL     1       8.359  -2.695  -1.962  1.00  0.00     0.165 A 
ATOM     12  O   UNL     1       8.557  -3.720   0.004  1.00  0.00    -0.454 OA
ATOM     13  O   UNL     1       8.727  -4.015  -2.167  1.00  0.00    -0.454 OA
ATOM     14  C   UNL     1       8.952  -4.677  -0.945  1.00  0.00     0.468 C 
ENDBRANCH   5   6
ENDBRANCH   1   5
TORSDOF 3
ENDMDL
MODEL 5
REMARK VINA RESULT:      -7.4      1.832      2.812
REMARK SMILES CC(=O)CCc1ccc2c(c1)OCO2
REMARK SMILES IDX 4 1 2 2 1 3 3 4 5 5 6 6 7 7 11 8 8 9 10 10 9 11 12 12 14 13
REMARK SMILES IDX 13 14
REMARK H PARENT
REMARK Flexibility Score: inf
ROOT
ATOM      1  C   UNL     1       6.353   0.972   1.142  1.00  0.00     0.080 C 
ENDROOT
BRANCH   1   2
ATOM      2  C   UNL     1       5.112   1.769   0.935  1.00  0.00     0.130 C 
ATOM      3  C   UNL     1       4.900   2.579  -0.294  1.00  0.00     0.087 C 
ATOM      4  O   UNL     1       4.227   1.780   1.776  1.00  0.00    -0.300 OA
ENDBRANCH   1   2
BRANCH   1   5
ATOM      5  C   UNL     1       7.321   1.152  -0.011  1.00  0.00     0.043 C 
BRANCH   5   6
ATOM      6  C   UNL     1       7.637  -0.130  -0.664  1.00  0.00    -0.044 A 
ATOM      7  C   UNL     1       7.611  -0.270  -2.057  1.00  0.00     0.008 A 
ATOM      8  C   UNL     1       7.971  -1.223   0.103  1.00  0.00     0.054 A 
ATOM      9  C   UNL     1       7.917  -1.497  -2.614  1.00  0.00     0.051 A 
ATOM     10  C   UNL     1       8.281  -2.462  -0.466  1.00  0.00     0.166 A 
ATOM     11  C   UNL     1       8.254  -2.600  -1.836  1.00  0.00     0.165 A 
ATOM     12  O   UNL     1       8.637  -3.680   0.073  1.00  0.00    -0.454 OA
ATOM     13  O   UNL     1       8.598  -3.914  -2.113  1.00  0.00    -0.454 OA
ATOM     14  C   UNL     1       8.938  -4.610  -0.937  1.00  0.00     0.468 C 
ENDBRANCH   5   6
ENDBRANCH   1   5
TORSDOF 3
ENDMDL
