@<TRIPOS>MOLECULE
/home/cewinharhar/GITHUB/reincatalyze/data/processed/docking_pred/2023-May-22-1902_sub9_nm5_bs15_s42_ex16_mel10_mts1000_k50_ec02_g099_lra9e-4_lrc1e-3/367438b83e07ec58543242b49c62b5ced391bd04_ligand_9.pdbqt
 14 15 0 0 0
SMALL
GASTEIGER

@<TRIPOS>ATOM
      1  C          5.7600    1.3230   -0.3730 C.3     1  UNL1        0.0800
      2  C          5.1840    1.3210    1.0010 C.2     1  UNL1        0.1300
      3  C          5.3640    0.1670    1.9210 C.3     1  UNL1        0.0870
      4  O          4.5420    2.2740    1.4120 O.2     1  UNL1       -0.3000
      5  C          7.2600    1.1060   -0.3410 C.3     1  UNL1        0.0430
      6  C          7.6360   -0.1940   -0.9250 C.2     1  UNL1       -0.0440
      7  C          7.7430   -0.3730   -2.3090 C.2     1  UNL1        0.0080
      8  C          7.8940   -1.2640   -0.0990 C.2     1  UNL1        0.0540
      9  C          8.1000   -1.6150   -2.8000 C.2     1  UNL1        0.0510
     10  C          8.2550   -2.5180   -0.6000 C.2     1  UNL1        0.1660
     11  C          8.3590   -2.6950   -1.9620 C.2     1  UNL1        0.1650
     12  O          8.5570   -3.7200    0.0040 O.2     1  UNL1       -0.4540
     13  O          8.7270   -4.0150   -2.1670 O.2     1  UNL1       -0.4540
     14  C          8.9520   -4.6770   -0.9450 C.3     1  UNL1        0.4680
@<TRIPOS>BOND
     1     9     7    1
     2     9    11    2
     3     7     6    2
     4    13    11    1
     5    13    14    1
     6    11    10    1
     7    14    12    1
     8     6     5    1
     9     6     8    1
    10    10     8    2
    11    10    12    1
    12     1     5    1
    13     1     2    1
    14     2     4    2
    15     2     3    1
