@<TRIPOS>MOLECULE
/home/cewinharhar/GITHUB/reincatalyze/data/processed/docking_pred/2023-May-22-1902_sub9_nm5_bs15_s42_ex16_mel10_mts1000_k50_ec02_g099_lra9e-4_lrc1e-3/37aabdb081a78d2f2d4d4e560ab17afff45a2586_ligand_9.pdbqt
 14 15 0 0 0
SMALL
GASTEIGER

@<TRIPOS>ATOM
      1  C          5.4600    2.8970    0.0610 C.3     1  UNL1        0.0800
      2  C          6.2810    3.8020    0.9130 C.2     1  UNL1        0.1300
      3  C          7.2410    4.7730    0.3210 C.3     1  UNL1        0.0870
      4  O          6.1900    3.7730    2.1290 O.2     1  UNL1       -0.3000
      5  C          5.1780    1.5850    0.7650 C.3     1  UNL1        0.0430
      6  C          6.0030    0.4880    0.2280 C.2     1  UNL1       -0.0440
      7  C          6.2840   -0.6560    0.9830 C.2     1  UNL1        0.0080
      8  C          6.5110    0.5790   -1.0480 C.2     1  UNL1        0.0540
      9  C          7.0630   -1.6540    0.4260 C.2     1  UNL1        0.0510
     10  C          7.2970   -0.4330   -1.6080 C.2     1  UNL1        0.1660
     11  C          7.5760   -1.5580   -0.8640 C.2     1  UNL1        0.1650
     12  O          7.9110   -0.5770   -2.8340 O.2     1  UNL1       -0.4540
     13  O          8.3620   -2.3780   -1.6580 O.2     1  UNL1       -0.4540
     14  C          8.5230   -1.8360   -2.9470 C.3     1  UNL1        0.4680
@<TRIPOS>BOND
     1    14    12    1
     2    14    13    1
     3    12    10    1
     4    13    11    1
     5    10     8    1
     6    10    11    2
     7     8     6    2
     8    11     9    1
     9     1     5    1
    10     1     2    1
    11     6     5    1
    12     6     7    1
    13     3     2    1
    14     9     7    2
    15     2     4    2
