@<TRIPOS>MOLECULE
/home/cewinharhar/GITHUB/reincatalyze/data/processed/docking_pred/2023-May-22-1902_sub9_nm5_bs15_s42_ex16_mel10_mts1000_k50_ec02_g099_lra9e-4_lrc1e-3/37aabdb081a78d2f2d4d4e560ab17afff45a2586_ligand_9.pdbqt
 14 15 0 0 0
SMALL
GASTEIGER

@<TRIPOS>ATOM
      1  C          6.3020    0.9660    1.1940 C.3     1  UNL1        0.0800
      2  C          5.0660    1.7640    0.9620 C.2     1  UNL1        0.1300
      3  C          4.9120    2.6340   -0.2350 C.3     1  UNL1        0.0870
      4  O          4.1380    1.7260    1.7530 O.2     1  UNL1       -0.3000
      5  C          7.2980    1.1520    0.0670 C.3     1  UNL1        0.0430
      6  C          7.6250   -0.1260   -0.5910 C.2     1  UNL1       -0.0440
      7  C          7.6050   -0.2590   -1.9840 C.2     1  UNL1        0.0080
      8  C          7.9610   -1.2200    0.1730 C.2     1  UNL1        0.0540
      9  C          7.9210   -1.4830   -2.5450 C.2     1  UNL1        0.0510
     10  C          8.2810   -2.4550   -0.3990 C.2     1  UNL1        0.1660
     11  C          8.2600   -2.5870   -1.7690 C.2     1  UNL1        0.1650
     12  O          8.6410   -3.6730    0.1360 O.2     1  UNL1       -0.4540
     13  O          8.6140   -3.8980   -2.0500 O.2     1  UNL1       -0.4540
     14  C          8.9520   -4.5960   -0.8760 C.3     1  UNL1        0.4680
@<TRIPOS>BOND
     1     9     7    1
     2     9    11    2
     3    13    11    1
     4    13    14    1
     5     7     6    2
     6    11    10    1
     7    14    12    1
     8     6     5    1
     9     6     8    1
    10    10    12    1
    11    10     8    2
    12     3     2    1
    13     5     1    1
    14     2     1    1
    15     2     4    2
