MODEL 1
REMARK VINA RESULT:      -7.9      0.000      0.000
REMARK SMILES CC(=O)CCc1ccc2c(c1)OCO2
REMARK SMILES IDX 4 1 2 2 1 3 3 4 5 5 6 6 7 7 11 8 8 9 10 10 9 11 12 12 14 13
REMARK SMILES IDX 13 14
REMARK H PARENT
REMARK Flexibility Score: inf
ROOT
ATOM      1  C   UNL     1       5.460   2.897   0.061  1.00  0.00     0.080 C 
ENDROOT
BRANCH   1   2
ATOM      2  C   UNL     1       6.281   3.802   0.913  1.00  0.00     0.130 C 
ATOM      3  C   UNL     1       7.241   4.773   0.321  1.00  0.00     0.087 C 
ATOM      4  O   UNL     1       6.190   3.773   2.129  1.00  0.00    -0.300 OA
ENDBRANCH   1   2
BRANCH   1   5
ATOM      5  C   UNL     1       5.178   1.585   0.765  1.00  0.00     0.043 C 
BRANCH   5   6
ATOM      6  C   UNL     1       6.003   0.488   0.228  1.00  0.00    -0.044 A 
ATOM      7  C   UNL     1       6.284  -0.656   0.983  1.00  0.00     0.008 A 
ATOM      8  C   UNL     1       6.511   0.579  -1.048  1.00  0.00     0.054 A 
ATOM      9  C   UNL     1       7.063  -1.654   0.426  1.00  0.00     0.051 A 
ATOM     10  C   UNL     1       7.297  -0.433  -1.608  1.00  0.00     0.166 A 
ATOM     11  C   UNL     1       7.576  -1.558  -0.864  1.00  0.00     0.165 A 
ATOM     12  O   UNL     1       7.911  -0.577  -2.834  1.00  0.00    -0.454 OA
ATOM     13  O   UNL     1       8.362  -2.378  -1.658  1.00  0.00    -0.454 OA
ATOM     14  C   UNL     1       8.523  -1.836  -2.947  1.00  0.00     0.468 C 
ENDBRANCH   5   6
ENDBRANCH   1   5
TORSDOF 3
ENDMDL
MODEL 2
REMARK VINA RESULT:      -7.8      1.039      2.021
REMARK SMILES CC(=O)CCc1ccc2c(c1)OCO2
REMARK SMILES IDX 4 1 2 2 1 3 3 4 5 5 6 6 7 7 11 8 8 9 10 10 9 11 12 12 14 13
REMARK SMILES IDX 13 14
REMARK H PARENT
REMARK Flexibility Score: inf
ROOT
ATOM      1  C   UNL     1       5.339   2.979   0.199  1.00  0.00     0.080 C 
ENDROOT
BRANCH   1   2
ATOM      2  C   UNL     1       6.351   3.684   1.034  1.00  0.00     0.130 C 
ATOM      3  C   UNL     1       7.204   4.769   0.478  1.00  0.00     0.087 C 
ATOM      4  O   UNL     1       6.512   3.388   2.207  1.00  0.00    -0.300 OA
ENDBRANCH   1   2
BRANCH   1   5
ATOM      5  C   UNL     1       5.007   1.615   0.771  1.00  0.00     0.043 C 
BRANCH   5   6
ATOM      6  C   UNL     1       5.897   0.568   0.237  1.00  0.00    -0.044 A 
ATOM      7  C   UNL     1       6.356   0.600  -1.085  1.00  0.00     0.008 A 
ATOM      8  C   UNL     1       6.295  -0.468   1.051  1.00  0.00     0.054 A 
ATOM      9  C   UNL     1       7.190  -0.410  -1.530  1.00  0.00     0.051 A 
ATOM     10  C   UNL     1       7.139  -1.486   0.596  1.00  0.00     0.166 A 
ATOM     11  C   UNL     1       7.590  -1.457  -0.705  1.00  0.00     0.165 A 
ATOM     12  O   UNL     1       7.669  -2.607   1.199  1.00  0.00    -0.454 OA
ATOM     13  O   UNL     1       8.396  -2.571  -0.875  1.00  0.00    -0.454 OA
ATOM     14  C   UNL     1       8.546  -3.279   0.333  1.00  0.00     0.468 C 
ENDBRANCH   5   6
ENDBRANCH   1   5
TORSDOF 3
ENDMDL
MODEL 3
REMARK VINA RESULT:      -7.6      1.887      2.630
REMARK SMILES CC(=O)CCc1ccc2c(c1)OCO2
REMARK SMILES IDX 4 1 2 2 1 3 3 4 5 5 6 6 7 7 11 8 8 9 10 10 9 11 12 12 14 13
REMARK SMILES IDX 13 14
REMARK H PARENT
REMARK Flexibility Score: inf
ROOT
ATOM      1  C   UNL     1       5.513   1.915   1.264  1.00  0.00     0.080 C 
ENDROOT
BRANCH   1   2
ATOM      2  C   UNL     1       5.069   0.698   2.001  1.00  0.00     0.130 C 
ATOM      3  C   UNL     1       5.959  -0.482   2.166  1.00  0.00     0.087 C 
ATOM      4  O   UNL     1       3.954   0.635   2.492  1.00  0.00    -0.300 OA
ENDBRANCH   1   2
BRANCH   1   5
ATOM      5  C   UNL     1       5.390   1.726  -0.235  1.00  0.00     0.043 C 
BRANCH   5   6
ATOM      6  C   UNL     1       6.559   1.025  -0.795  1.00  0.00    -0.044 A 
ATOM      7  C   UNL     1       7.866   1.459  -0.541  1.00  0.00     0.008 A 
ATOM      8  C   UNL     1       6.374  -0.087  -1.585  1.00  0.00     0.054 A 
ATOM      9  C   UNL     1       8.924   0.761  -1.093  1.00  0.00     0.051 A 
ATOM     10  C   UNL     1       7.448  -0.790  -2.140  1.00  0.00     0.166 A 
ATOM     11  C   UNL     1       8.733  -0.362  -1.892  1.00  0.00     0.165 A 
ATOM     12  O   UNL     1       7.524  -1.905  -2.947  1.00  0.00    -0.454 OA
ATOM     13  O   UNL     1       9.581  -1.234  -2.558  1.00  0.00    -0.454 OA
ATOM     14  C   UNL     1       8.860  -2.280  -3.164  1.00  0.00     0.468 C 
ENDBRANCH   5   6
ENDBRANCH   1   5
TORSDOF 3
ENDMDL
MODEL 4
REMARK VINA RESULT:      -7.5      1.956      3.012
REMARK SMILES CC(=O)CCc1ccc2c(c1)OCO2
REMARK SMILES IDX 4 1 2 2 1 3 3 4 5 5 6 6 7 7 11 8 8 9 10 10 9 11 12 12 14 13
REMARK SMILES IDX 13 14
REMARK H PARENT
REMARK Flexibility Score: inf
ROOT
ATOM      1  C   UNL     1       5.770   1.323  -0.408  1.00  0.00     0.080 C 
ENDROOT
BRANCH   1   2
ATOM      2  C   UNL     1       5.184   1.353   0.961  1.00  0.00     0.130 C 
ATOM      3  C   UNL     1       5.306   0.196   1.888  1.00  0.00     0.087 C 
ATOM      4  O   UNL     1       4.583   2.335   1.365  1.00  0.00    -0.300 OA
ENDBRANCH   1   2
BRANCH   1   5
ATOM      5  C   UNL     1       7.264   1.073  -0.362  1.00  0.00     0.043 C 
BRANCH   5   6
ATOM      6  C   UNL     1       7.617  -0.232  -0.949  1.00  0.00    -0.044 A 
ATOM      7  C   UNL     1       7.659  -0.427  -2.334  1.00  0.00     0.008 A 
ATOM      8  C   UNL     1       7.919  -1.292  -0.123  1.00  0.00     0.054 A 
ATOM      9  C   UNL     1       7.998  -1.673  -2.827  1.00  0.00     0.051 A 
ATOM     10  C   UNL     1       8.262  -2.550  -0.627  1.00  0.00     0.166 A 
ATOM     11  C   UNL     1       8.301  -2.743  -1.990  1.00  0.00     0.165 A 
ATOM     12  O   UNL     1       8.597  -3.744  -0.024  1.00  0.00    -0.454 OA
ATOM     13  O   UNL     1       8.665  -4.064  -2.198  1.00  0.00    -0.454 OA
ATOM     14  C   UNL     1       8.950  -4.710  -0.980  1.00  0.00     0.468 C 
ENDBRANCH   5   6
ENDBRANCH   1   5
TORSDOF 3
ENDMDL
MODEL 5
REMARK VINA RESULT:      -7.5      1.848      2.785
REMARK SMILES CC(=O)CCc1ccc2c(c1)OCO2
REMARK SMILES IDX 4 1 2 2 1 3 3 4 5 5 6 6 7 7 11 8 8 9 10 10 9 11 12 12 14 13
REMARK SMILES IDX 13 14
REMARK H PARENT
REMARK Flexibility Score: inf
ROOT
ATOM      1  C   UNL     1       6.302   0.966   1.194  1.00  0.00     0.080 C 
ENDROOT
BRANCH   1   2
ATOM      2  C   UNL     1       5.066   1.764   0.962  1.00  0.00     0.130 C 
ATOM      3  C   UNL     1       4.912   2.634  -0.235  1.00  0.00     0.087 C 
ATOM      4  O   UNL     1       4.138   1.726   1.753  1.00  0.00    -0.300 OA
ENDBRANCH   1   2
BRANCH   1   5
ATOM      5  C   UNL     1       7.298   1.152   0.067  1.00  0.00     0.043 C 
BRANCH   5   6
ATOM      6  C   UNL     1       7.625  -0.126  -0.591  1.00  0.00    -0.044 A 
ATOM      7  C   UNL     1       7.605  -0.259  -1.984  1.00  0.00     0.008 A 
ATOM      8  C   UNL     1       7.961  -1.220   0.173  1.00  0.00     0.054 A 
ATOM      9  C   UNL     1       7.921  -1.483  -2.545  1.00  0.00     0.051 A 
ATOM     10  C   UNL     1       8.281  -2.455  -0.399  1.00  0.00     0.166 A 
ATOM     11  C   UNL     1       8.260  -2.587  -1.769  1.00  0.00     0.165 A 
ATOM     12  O   UNL     1       8.641  -3.673   0.136  1.00  0.00    -0.454 OA
ATOM     13  O   UNL     1       8.614  -3.898  -2.050  1.00  0.00    -0.454 OA
ATOM     14  C   UNL     1       8.952  -4.596  -0.876  1.00  0.00     0.468 C 
ENDBRANCH   5   6
ENDBRANCH   1   5
TORSDOF 3
ENDMDL
