@<TRIPOS>MOLECULE
/home/cewinharhar/GITHUB/reincatalyze/data/processed/docking_pred/2023-May-22-1902_sub9_nm5_bs15_s42_ex16_mel10_mts1000_k50_ec02_g099_lra9e-4_lrc1e-3/37aabdb081a78d2f2d4d4e560ab17afff45a2586_ligand_9.pdbqt
 14 15 0 0 0
SMALL
GASTEIGER

@<TRIPOS>ATOM
      1  C          5.7700    1.3230   -0.4080 C.3     1  UNL1        0.0800
      2  C          5.1840    1.3530    0.9610 C.2     1  UNL1        0.1300
      3  C          5.3060    0.1960    1.8880 C.3     1  UNL1        0.0870
      4  O          4.5830    2.3350    1.3650 O.2     1  UNL1       -0.3000
      5  C          7.2640    1.0730   -0.3620 C.3     1  UNL1        0.0430
      6  C          7.6170   -0.2320   -0.9490 C.2     1  UNL1       -0.0440
      7  C          7.6590   -0.4270   -2.3340 C.2     1  UNL1        0.0080
      8  C          7.9190   -1.2920   -0.1230 C.2     1  UNL1        0.0540
      9  C          7.9980   -1.6730   -2.8270 C.2     1  UNL1        0.0510
     10  C          8.2620   -2.5500   -0.6270 C.2     1  UNL1        0.1660
     11  C          8.3010   -2.7430   -1.9900 C.2     1  UNL1        0.1650
     12  O          8.5970   -3.7440   -0.0240 O.2     1  UNL1       -0.4540
     13  O          8.6650   -4.0640   -2.1980 O.2     1  UNL1       -0.4540
     14  C          8.9500   -4.7100   -0.9800 C.3     1  UNL1        0.4680
@<TRIPOS>BOND
     1     9     7    1
     2     9    11    2
     3     7     6    2
     4    13    11    1
     5    13    14    1
     6    11    10    1
     7    14    12    1
     8     6     5    1
     9     6     8    1
    10    10     8    2
    11    10    12    1
    12     1     5    1
    13     1     2    1
    14     2     4    2
    15     2     3    1
