@<TRIPOS>MOLECULE
/home/cewinharhar/GITHUB/reincatalyze/data/processed/docking_pred/2023-May-22-1902_sub9_nm5_bs15_s42_ex16_mel10_mts1000_k50_ec02_g099_lra9e-4_lrc1e-3/37aabdb081a78d2f2d4d4e560ab17afff45a2586_ligand_9.pdbqt
 14 15 0 0 0
SMALL
GASTEIGER

@<TRIPOS>ATOM
      1  C          5.3390    2.9790    0.1990 C.3     1  UNL1        0.0800
      2  C          6.3510    3.6840    1.0340 C.2     1  UNL1        0.1300
      3  C          7.2040    4.7690    0.4780 C.3     1  UNL1        0.0870
      4  O          6.5120    3.3880    2.2070 O.2     1  UNL1       -0.3000
      5  C          5.0070    1.6150    0.7710 C.3     1  UNL1        0.0430
      6  C          5.8970    0.5680    0.2370 C.2     1  UNL1       -0.0440
      7  C          6.3560    0.6000   -1.0850 C.2     1  UNL1        0.0080
      8  C          6.2950   -0.4680    1.0510 C.2     1  UNL1        0.0540
      9  C          7.1900   -0.4100   -1.5300 C.2     1  UNL1        0.0510
     10  C          7.1390   -1.4860    0.5960 C.2     1  UNL1        0.1660
     11  C          7.5900   -1.4570   -0.7050 C.2     1  UNL1        0.1650
     12  O          7.6690   -2.6070    1.1990 O.2     1  UNL1       -0.4540
     13  O          8.3960   -2.5710   -0.8750 O.2     1  UNL1       -0.4540
     14  C          8.5460   -3.2790    0.3330 C.3     1  UNL1        0.4680
@<TRIPOS>BOND
     1     9     7    1
     2     9    11    2
     3     7     6    2
     4    13    11    1
     5    13    14    1
     6    11    10    1
     7     1     5    1
     8     1     2    1
     9     6     5    1
    10     6     8    1
    11    14    12    1
    12     3     2    1
    13    10     8    2
    14    10    12    1
    15     2     4    2
