@<TRIPOS>MOLECULE
/home/cewinharhar/GITHUB/reincatalyze/data/processed/docking_pred/2023-May-22-1902_sub9_nm5_bs15_s42_ex16_mel10_mts1000_k50_ec02_g099_lra9e-4_lrc1e-3/3b11ad51370e6150fddf32b3aa65dd5e24197163_ligand_9.pdbqt
 14 15 0 0 0
SMALL
GASTEIGER

@<TRIPOS>ATOM
      1  C          5.4680    0.6620    1.4640 C.3     1  UNL1        0.0800
      2  C          5.4850    2.0900    1.0410 C.2     1  UNL1        0.1300
      3  C          4.9300    2.5230   -0.2690 C.3     1  UNL1        0.0870
      4  O          5.9600    2.9520    1.7640 O.2     1  UNL1       -0.3000
      5  C          6.8590    0.0600    1.4250 C.3     1  UNL1        0.0430
      6  C          7.3310   -0.1370    0.0430 C.2     1  UNL1       -0.0440
      7  C          6.6970   -1.0310   -0.8280 C.2     1  UNL1        0.0080
      8  C          8.4180    0.5730   -0.4140 C.2     1  UNL1        0.0540
      9  C          7.1840   -1.1730   -2.1140 C.2     1  UNL1        0.0510
     10  C          8.9060    0.4260   -1.7160 C.2     1  UNL1        0.1660
     11  C          8.2840   -0.4540   -2.5730 C.2     1  UNL1        0.1650
     12  O          9.9540    1.0070   -2.3970 O.2     1  UNL1       -0.4540
     13  O          8.9700   -0.3950   -3.7760 O.2     1  UNL1       -0.4540
     14  C          9.9800    0.5850   -3.7370 C.3     1  UNL1        0.4680
@<TRIPOS>BOND
     1    13    14    1
     2    13    11    1
     3    14    12    1
     4    11     9    2
     5    11    10    1
     6    12    10    1
     7     9     7    1
     8    10     8    2
     9     7     6    2
    10     8     6    1
    11     3     2    1
    12     6     5    1
    13     2     1    1
    14     2     4    2
    15     5     1    1
