MODEL 1
REMARK VINA RESULT:      -7.8      0.000      0.000
REMARK SMILES CC(=O)CCc1ccc2c(c1)OCO2
REMARK SMILES IDX 4 1 2 2 1 3 3 4 5 5 6 6 7 7 11 8 8 9 10 10 9 11 12 12 14 13
REMARK SMILES IDX 13 14
REMARK H PARENT
REMARK Flexibility Score: inf
ROOT
ATOM      1  C   UNL     1       5.470   2.912   0.097  1.00  0.00     0.080 C 
ENDROOT
BRANCH   1   2
ATOM      2  C   UNL     1       6.302   3.809   0.948  1.00  0.00     0.130 C 
ATOM      3  C   UNL     1       7.265   4.775   0.356  1.00  0.00     0.087 C 
ATOM      4  O   UNL     1       6.215   3.775   2.165  1.00  0.00    -0.300 OA
ENDBRANCH   1   2
BRANCH   1   5
ATOM      5  C   UNL     1       5.119   1.631   0.827  1.00  0.00     0.043 C 
BRANCH   5   6
ATOM      6  C   UNL     1       5.961   0.504   0.389  1.00  0.00    -0.044 A 
ATOM      7  C   UNL     1       6.387  -0.484   1.284  1.00  0.00     0.008 A 
ATOM      8  C   UNL     1       6.342   0.409  -0.931  1.00  0.00     0.054 A 
ATOM      9  C   UNL     1       7.176  -1.519   0.815  1.00  0.00     0.051 A 
ATOM     10  C   UNL     1       7.139  -0.639  -1.400  1.00  0.00     0.166 A 
ATOM     11  C   UNL     1       7.560  -1.611  -0.519  1.00  0.00     0.165 A 
ATOM     12  O   UNL     1       7.644  -0.952  -2.644  1.00  0.00    -0.454 OA
ATOM     13  O   UNL     1       8.322  -2.510  -1.249  1.00  0.00    -0.454 OA
ATOM     14  C   UNL     1       8.326  -2.180  -2.617  1.00  0.00     0.468 C 
ENDBRANCH   5   6
ENDBRANCH   1   5
TORSDOF 3
ENDMDL
MODEL 2
REMARK VINA RESULT:      -7.7      1.976      2.792
REMARK SMILES CC(=O)CCc1ccc2c(c1)OCO2
REMARK SMILES IDX 4 1 2 2 1 3 3 4 5 5 6 6 7 7 11 8 8 9 10 10 9 11 12 12 14 13
REMARK SMILES IDX 13 14
REMARK H PARENT
REMARK Flexibility Score: inf
ROOT
ATOM      1  C   UNL     1       5.548   1.788   1.159  1.00  0.00     0.080 C 
ENDROOT
BRANCH   1   2
ATOM      2  C   UNL     1       5.073   0.595   1.914  1.00  0.00     0.130 C 
ATOM      3  C   UNL     1       5.860  -0.667   1.954  1.00  0.00     0.087 C 
ATOM      4  O   UNL     1       4.018   0.620   2.526  1.00  0.00    -0.300 OA
ENDBRANCH   1   2
BRANCH   1   5
ATOM      5  C   UNL     1       5.448   1.568  -0.338  1.00  0.00     0.043 C 
BRANCH   5   6
ATOM      6  C   UNL     1       6.690   0.997  -0.890  1.00  0.00    -0.044 A 
ATOM      7  C   UNL     1       7.950   1.446  -0.476  1.00  0.00     0.008 A 
ATOM      8  C   UNL     1       6.621  -0.002  -1.833  1.00  0.00     0.054 A 
ATOM      9  C   UNL     1       9.081   0.873  -1.028  1.00  0.00     0.051 A 
ATOM     10  C   UNL     1       7.767  -0.579  -2.388  1.00  0.00     0.166 A 
ATOM     11  C   UNL     1       9.007  -0.137  -1.983  1.00  0.00     0.165 A 
ATOM     12  O   UNL     1       7.960  -1.570  -3.327  1.00  0.00    -0.454 OA
ATOM     13  O   UNL     1       9.946  -0.875  -2.687  1.00  0.00    -0.454 OA
ATOM     14  C   UNL     1       9.326  -1.857  -3.484  1.00  0.00     0.468 C 
ENDBRANCH   5   6
ENDBRANCH   1   5
TORSDOF 3
ENDMDL
MODEL 3
REMARK VINA RESULT:      -7.4      2.167      3.223
REMARK SMILES CC(=O)CCc1ccc2c(c1)OCO2
REMARK SMILES IDX 4 1 2 2 1 3 3 4 5 5 6 6 7 7 11 8 8 9 10 10 9 11 12 12 14 13
REMARK SMILES IDX 13 14
REMARK H PARENT
REMARK Flexibility Score: inf
ROOT
ATOM      1  C   UNL     1       6.042   1.385   1.154  1.00  0.00     0.080 C 
ENDROOT
BRANCH   1   2
ATOM      2  C   UNL     1       5.493   0.302   2.016  1.00  0.00     0.130 C 
ATOM      3  C   UNL     1       6.269  -0.932   2.310  1.00  0.00     0.087 C 
ATOM      4  O   UNL     1       4.380   0.397   2.510  1.00  0.00    -0.300 OA
ENDBRANCH   1   2
BRANCH   1   5
ATOM      5  C   UNL     1       5.670   1.173  -0.300  1.00  0.00     0.043 C 
BRANCH   5   6
ATOM      6  C   UNL     1       6.772   0.558  -1.061  1.00  0.00    -0.044 A 
ATOM      7  C   UNL     1       6.597  -0.639  -1.765  1.00  0.00     0.008 A 
ATOM      8  C   UNL     1       8.005   1.168  -1.090  1.00  0.00     0.054 A 
ATOM      9  C   UNL     1       7.667  -1.169  -2.463  1.00  0.00     0.051 A 
ATOM     10  C   UNL     1       9.084   0.628  -1.798  1.00  0.00     0.166 A 
ATOM     11  C   UNL     1       8.913  -0.550  -2.489  1.00  0.00     0.165 A 
ATOM     12  O   UNL     1      10.388   1.037  -1.978  1.00  0.00    -0.454 OA
ATOM     13  O   UNL     1      10.129  -0.844  -3.087  1.00  0.00    -0.454 OA
ATOM     14  C   UNL     1      11.066   0.183  -2.864  1.00  0.00     0.468 C 
ENDBRANCH   5   6
ENDBRANCH   1   5
TORSDOF 3
ENDMDL
MODEL 4
REMARK VINA RESULT:      -7.4      1.751      2.555
REMARK SMILES CC(=O)CCc1ccc2c(c1)OCO2
REMARK SMILES IDX 4 1 2 2 1 3 3 4 5 5 6 6 7 7 11 8 8 9 10 10 9 11 12 12 14 13
REMARK SMILES IDX 13 14
REMARK H PARENT
REMARK Flexibility Score: inf
ROOT
ATOM      1  C   UNL     1       5.468   0.662   1.464  1.00  0.00     0.080 C 
ENDROOT
BRANCH   1   2
ATOM      2  C   UNL     1       5.485   2.090   1.041  1.00  0.00     0.130 C 
ATOM      3  C   UNL     1       4.930   2.523  -0.269  1.00  0.00     0.087 C 
ATOM      4  O   UNL     1       5.960   2.952   1.764  1.00  0.00    -0.300 OA
ENDBRANCH   1   2
BRANCH   1   5
ATOM      5  C   UNL     1       6.859   0.060   1.425  1.00  0.00     0.043 C 
BRANCH   5   6
ATOM      6  C   UNL     1       7.331  -0.137   0.043  1.00  0.00    -0.044 A 
ATOM      7  C   UNL     1       6.697  -1.031  -0.828  1.00  0.00     0.008 A 
ATOM      8  C   UNL     1       8.418   0.573  -0.414  1.00  0.00     0.054 A 
ATOM      9  C   UNL     1       7.184  -1.173  -2.114  1.00  0.00     0.051 A 
ATOM     10  C   UNL     1       8.906   0.426  -1.716  1.00  0.00     0.166 A 
ATOM     11  C   UNL     1       8.284  -0.454  -2.573  1.00  0.00     0.165 A 
ATOM     12  O   UNL     1       9.954   1.007  -2.397  1.00  0.00    -0.454 OA
ATOM     13  O   UNL     1       8.970  -0.395  -3.776  1.00  0.00    -0.454 OA
ATOM     14  C   UNL     1       9.980   0.585  -3.737  1.00  0.00     0.468 C 
ENDBRANCH   5   6
ENDBRANCH   1   5
TORSDOF 3
ENDMDL
MODEL 5
REMARK VINA RESULT:      -7.4      1.719      5.178
REMARK SMILES CC(=O)CCc1ccc2c(c1)OCO2
REMARK SMILES IDX 4 1 2 2 1 3 3 4 5 5 6 6 7 7 11 8 8 9 10 10 9 11 12 12 14 13
REMARK SMILES IDX 13 14
REMARK H PARENT
REMARK Flexibility Score: inf
ROOT
ATOM      1  C   UNL     1       7.662  -1.932  -2.426  1.00  0.00     0.080 C 
ENDROOT
BRANCH   1   2
ATOM      2  C   UNL     1       8.917  -1.584  -3.149  1.00  0.00     0.130 C 
ATOM      3  C   UNL     1       9.167  -0.212  -3.664  1.00  0.00     0.087 C 
ATOM      4  O   UNL     1       9.782  -2.424  -3.341  1.00  0.00    -0.300 OA
ENDBRANCH   1   2
BRANCH   1   5
ATOM      5  C   UNL     1       7.888  -1.989  -0.928  1.00  0.00     0.043 C 
BRANCH   5   6
ATOM      6  C   UNL     1       7.031  -1.030  -0.209  1.00  0.00    -0.044 A 
ATOM      7  C   UNL     1       6.657  -1.237   1.124  1.00  0.00     0.008 A 
ATOM      8  C   UNL     1       6.584   0.102  -0.852  1.00  0.00     0.054 A 
ATOM      9  C   UNL     1       5.851  -0.302   1.748  1.00  0.00     0.051 A 
ATOM     10  C   UNL     1       5.770   1.045  -0.217  1.00  0.00     0.166 A 
ATOM     11  C   UNL     1       5.401   0.841   1.094  1.00  0.00     0.165 A 
ATOM     12  O   UNL     1       5.204   2.231  -0.634  1.00  0.00    -0.454 OA
ATOM     13  O   UNL     1       4.608   1.918   1.459  1.00  0.00    -0.454 OA
ATOM     14  C   UNL     1       4.532   2.867   0.422  1.00  0.00     0.468 C 
ENDBRANCH   5   6
ENDBRANCH   1   5
TORSDOF 3
ENDMDL
