@<TRIPOS>MOLECULE
/home/cewinharhar/GITHUB/reincatalyze/data/processed/docking_pred/2023-May-22-1902_sub9_nm5_bs15_s42_ex16_mel10_mts1000_k50_ec02_g099_lra9e-4_lrc1e-3/3b11ad51370e6150fddf32b3aa65dd5e24197163_ligand_9.pdbqt
 14 15 0 0 0
SMALL
GASTEIGER

@<TRIPOS>ATOM
      1  C          5.5480    1.7880    1.1590 C.3     1  UNL1        0.0800
      2  C          5.0730    0.5950    1.9140 C.2     1  UNL1        0.1300
      3  C          5.8600   -0.6670    1.9540 C.3     1  UNL1        0.0870
      4  O          4.0180    0.6200    2.5260 O.2     1  UNL1       -0.3000
      5  C          5.4480    1.5680   -0.3380 C.3     1  UNL1        0.0430
      6  C          6.6900    0.9970   -0.8900 C.2     1  UNL1       -0.0440
      7  C          7.9500    1.4460   -0.4760 C.2     1  UNL1        0.0080
      8  C          6.6210   -0.0020   -1.8330 C.2     1  UNL1        0.0540
      9  C          9.0810    0.8730   -1.0280 C.2     1  UNL1        0.0510
     10  C          7.7670   -0.5790   -2.3880 C.2     1  UNL1        0.1660
     11  C          9.0070   -0.1370   -1.9830 C.2     1  UNL1        0.1650
     12  O          7.9600   -1.5700   -3.3270 O.2     1  UNL1       -0.4540
     13  O          9.9460   -0.8750   -2.6870 O.2     1  UNL1       -0.4540
     14  C          9.3260   -1.8570   -3.4840 C.3     1  UNL1        0.4680
@<TRIPOS>BOND
     1    14    12    1
     2    14    13    1
     3    12    10    1
     4    13    11    1
     5    10    11    2
     6    10     8    1
     7    11     9    1
     8     8     6    2
     9     9     7    2
    10     6     7    1
    11     6     5    1
    12     5     1    1
    13     1     2    1
    14     2     3    1
    15     2     4    2
