@<TRIPOS>MOLECULE
/home/cewinharhar/GITHUB/reincatalyze/data/processed/docking_pred/2023-May-22-1902_sub9_nm5_bs15_s42_ex16_mel10_mts1000_k50_ec02_g099_lra9e-4_lrc1e-3/3b11ad51370e6150fddf32b3aa65dd5e24197163_ligand_9.pdbqt
 14 15 0 0 0
SMALL
GASTEIGER

@<TRIPOS>ATOM
      1  C          6.0420    1.3850    1.1540 C.3     1  UNL1        0.0800
      2  C          5.4930    0.3020    2.0160 C.2     1  UNL1        0.1300
      3  C          6.2690   -0.9320    2.3100 C.3     1  UNL1        0.0870
      4  O          4.3800    0.3970    2.5100 O.2     1  UNL1       -0.3000
      5  C          5.6700    1.1730   -0.3000 C.3     1  UNL1        0.0430
      6  C          6.7720    0.5580   -1.0610 C.2     1  UNL1       -0.0440
      7  C          6.5970   -0.6390   -1.7650 C.2     1  UNL1        0.0080
      8  C          8.0050    1.1680   -1.0900 C.2     1  UNL1        0.0540
      9  C          7.6670   -1.1690   -2.4630 C.2     1  UNL1        0.0510
     10  C          9.0840    0.6280   -1.7980 C.2     1  UNL1        0.1660
     11  C          8.9130   -0.5500   -2.4890 C.2     1  UNL1        0.1650
     12  O         10.3880    1.0370   -1.9780 O.2     1  UNL1       -0.4540
     13  O         10.1290   -0.8440   -3.0870 O.2     1  UNL1       -0.4540
     14  C         11.0660    0.1830   -2.8640 C.3     1  UNL1        0.4680
@<TRIPOS>BOND
     1    13    14    1
     2    13    11    1
     3    14    12    1
     4    11     9    2
     5    11    10    1
     6     9     7    1
     7    12    10    1
     8    10     8    2
     9     7     6    2
    10     8     6    1
    11     6     5    1
    12     5     1    1
    13     1     2    1
    14     2     3    1
    15     2     4    2
