@<TRIPOS>MOLECULE
/home/cewinharhar/GITHUB/reincatalyze/data/processed/docking_pred/2023-May-22-1902_sub9_nm5_bs15_s42_ex16_mel10_mts1000_k50_ec02_g099_lra9e-4_lrc1e-3/3b11ad51370e6150fddf32b3aa65dd5e24197163_ligand_9.pdbqt
 14 15 0 0 0
SMALL
GASTEIGER

@<TRIPOS>ATOM
      1  C          5.4700    2.9120    0.0970 C.3     1  UNL1        0.0800
      2  C          6.3020    3.8090    0.9480 C.2     1  UNL1        0.1300
      3  C          7.2650    4.7750    0.3560 C.3     1  UNL1        0.0870
      4  O          6.2150    3.7750    2.1650 O.2     1  UNL1       -0.3000
      5  C          5.1190    1.6310    0.8270 C.3     1  UNL1        0.0430
      6  C          5.9610    0.5040    0.3890 C.2     1  UNL1       -0.0440
      7  C          6.3870   -0.4840    1.2840 C.2     1  UNL1        0.0080
      8  C          6.3420    0.4090   -0.9310 C.2     1  UNL1        0.0540
      9  C          7.1760   -1.5190    0.8150 C.2     1  UNL1        0.0510
     10  C          7.1390   -0.6390   -1.4000 C.2     1  UNL1        0.1660
     11  C          7.5600   -1.6110   -0.5190 C.2     1  UNL1        0.1650
     12  O          7.6440   -0.9520   -2.6440 O.2     1  UNL1       -0.4540
     13  O          8.3220   -2.5100   -1.2490 O.2     1  UNL1       -0.4540
     14  C          8.3260   -2.1800   -2.6170 C.3     1  UNL1        0.4680
@<TRIPOS>BOND
     1    12    14    1
     2    12    10    1
     3    14    13    1
     4    10     8    1
     5    10    11    2
     6    13    11    1
     7     8     6    2
     8    11     9    1
     9     1     5    1
    10     1     2    1
    11     3     2    1
    12     6     5    1
    13     6     7    1
    14     9     7    2
    15     2     4    2
