@<TRIPOS>MOLECULE
/home/cewinharhar/GITHUB/reincatalyze/data/processed/docking_pred/2023-May-22-1902_sub9_nm5_bs15_s42_ex16_mel10_mts1000_k50_ec02_g099_lra9e-4_lrc1e-3/3b11ad51370e6150fddf32b3aa65dd5e24197163_ligand_9.pdbqt
 14 15 0 0 0
SMALL
GASTEIGER

@<TRIPOS>ATOM
      1  C          7.6620   -1.9320   -2.4260 C.3     1  UNL1        0.0800
      2  C          8.9170   -1.5840   -3.1490 C.2     1  UNL1        0.1300
      3  C          9.1670   -0.2120   -3.6640 C.3     1  UNL1        0.0870
      4  O          9.7820   -2.4240   -3.3410 O.2     1  UNL1       -0.3000
      5  C          7.8880   -1.9890   -0.9280 C.3     1  UNL1        0.0430
      6  C          7.0310   -1.0300   -0.2090 C.2     1  UNL1       -0.0440
      7  C          6.6570   -1.2370    1.1240 C.2     1  UNL1        0.0080
      8  C          6.5840    0.1020   -0.8520 C.2     1  UNL1        0.0540
      9  C          5.8510   -0.3020    1.7480 C.2     1  UNL1        0.0510
     10  C          5.7700    1.0450   -0.2170 C.2     1  UNL1        0.1660
     11  C          5.4010    0.8410    1.0940 C.2     1  UNL1        0.1650
     12  O          5.2040    2.2310   -0.6340 O.2     1  UNL1       -0.4540
     13  O          4.6080    1.9180    1.4590 O.2     1  UNL1       -0.4540
     14  C          4.5320    2.8670    0.4220 C.3     1  UNL1        0.4680
@<TRIPOS>BOND
     1     3     2    1
     2     4     2    2
     3     2     1    1
     4     1     5    1
     5     5     6    1
     6     8    10    1
     7     8     6    2
     8    12    10    1
     9    12    14    1
    10    10    11    2
    11     6     7    1
    12    14    13    1
    13    11    13    1
    14    11     9    1
    15     7     9    2
