@<TRIPOS>MOLECULE
/home/cewinharhar/GITHUB/reincatalyze/data/processed/docking_pred/2023-May-22-1902_sub9_nm5_bs15_s42_ex16_mel10_mts1000_k50_ec02_g099_lra9e-4_lrc1e-3/3b29dc4ebb7ee5049f43ecb42d98a580ffb6b5da_ligand_9.pdbqt
 14 15 0 0 0
SMALL
GASTEIGER

@<TRIPOS>ATOM
      1  C          5.4220    2.9510    0.1180 C.3     1  UNL1        0.0800
      2  C          6.3000    3.8150    0.9550 C.2     1  UNL1        0.1300
      3  C          7.2610    4.7730    0.3480 C.3     1  UNL1        0.0870
      4  O          6.2560    3.7590    2.1740 O.2     1  UNL1       -0.3000
      5  C          5.1140    1.6400    0.8140 C.3     1  UNL1        0.0430
      6  C          5.9540    0.5410    0.3050 C.2     1  UNL1       -0.0440
      7  C          6.2930   -0.5540    1.1080 C.2     1  UNL1        0.0080
      8  C          6.4200    0.5810   -0.9890 C.2     1  UNL1        0.0540
      9  C          7.0840   -1.5570    0.5770 C.2     1  UNL1        0.0510
     10  C          7.2190   -0.4360   -1.5220 C.2     1  UNL1        0.1660
     11  C          7.5540   -1.5130   -0.7320 C.2     1  UNL1        0.1650
     12  O          7.7980   -0.6240   -2.7580 O.2     1  UNL1       -0.4540
     13  O          8.3390   -2.3500   -1.5090 O.2     1  UNL1       -0.4540
     14  C          8.4440   -1.8700   -2.8280 C.3     1  UNL1        0.4680
@<TRIPOS>BOND
     1    14    12    1
     2    14    13    1
     3    12    10    1
     4    10     8    1
     5    10    11    2
     6    13    11    1
     7     8     6    2
     8    11     9    1
     9     1     5    1
    10     1     2    1
    11     6     5    1
    12     6     7    1
    13     3     2    1
    14     9     7    2
    15     2     4    2
