@<TRIPOS>MOLECULE
/home/cewinharhar/GITHUB/reincatalyze/data/processed/docking_pred/2023-May-22-1902_sub9_nm5_bs15_s42_ex16_mel10_mts1000_k50_ec02_g099_lra9e-4_lrc1e-3/3b29dc4ebb7ee5049f43ecb42d98a580ffb6b5da_ligand_9.pdbqt
 14 15 0 0 0
SMALL
GASTEIGER

@<TRIPOS>ATOM
      1  C          5.4590    2.9040    0.2670 C.3     1  UNL1        0.0800
      2  C          6.2910    3.8800    1.0240 C.2     1  UNL1        0.1300
      3  C          7.2630    4.7750    0.3400 C.3     1  UNL1        0.0870
      4  O          6.1990    3.9730    2.2380 O.2     1  UNL1       -0.3000
      5  C          5.3400    1.5880    1.0100 C.3     1  UNL1        0.0430
      6  C          6.1270    0.5230    0.3640 C.2     1  UNL1       -0.0440
      7  C          6.4680    0.5830   -0.9920 C.2     1  UNL1        0.0080
      8  C          6.5450   -0.5600    1.1030 C.2     1  UNL1        0.0540
      9  C          7.2100   -0.4460   -1.5440 C.2     1  UNL1        0.0510
     10  C          7.2950   -1.5970    0.5410 C.2     1  UNL1        0.1660
     11  C          7.6300   -1.5400   -0.7940 C.2     1  UNL1        0.1650
     12  O          7.8210   -2.7630    1.0560 O.2     1  UNL1       -0.4540
     13  O          8.3630   -2.6830   -1.0730 O.2     1  UNL1       -0.4540
     14  C          8.5850   -3.4410    0.0920 C.3     1  UNL1        0.4680
@<TRIPOS>BOND
     1     9     7    1
     2     9    11    2
     3    13    11    1
     4    13    14    1
     5     7     6    2
     6    11    10    1
     7    14    12    1
     8     1     5    1
     9     1     2    1
    10     3     2    1
    11     6     5    1
    12     6     8    1
    13    10    12    1
    14    10     8    2
    15     2     4    2
