@<TRIPOS>MOLECULE
/home/cewinharhar/GITHUB/reincatalyze/data/processed/docking_pred/2023-May-22-1902_sub9_nm5_bs15_s42_ex16_mel10_mts1000_k50_ec02_g099_lra9e-4_lrc1e-3/3b29dc4ebb7ee5049f43ecb42d98a580ffb6b5da_ligand_9.pdbqt
 14 15 0 0 0
SMALL
GASTEIGER

@<TRIPOS>ATOM
      1  C          5.7450    1.3340   -0.3390 C.3     1  UNL1        0.0800
      2  C          5.1600    1.3050    1.0300 C.2     1  UNL1        0.1300
      3  C          5.3830    0.1580    1.9510 C.3     1  UNL1        0.0870
      4  O          4.4770    2.2300    1.4390 O.2     1  UNL1       -0.3000
      5  C          7.2430    1.1080   -0.3030 C.3     1  UNL1        0.0430
      6  C          7.6160   -0.1860   -0.9030 C.2     1  UNL1       -0.0440
      7  C          7.6920   -0.3560   -2.2900 C.2     1  UNL1        0.0080
      8  C          7.9000   -1.2580   -0.0890 C.2     1  UNL1        0.0540
      9  C          8.0470   -1.5930   -2.7960 C.2     1  UNL1        0.0510
     10  C          8.2600   -2.5070   -0.6050 C.2     1  UNL1        0.1660
     11  C          8.3340   -2.6760   -1.9690 C.2     1  UNL1        0.1650
     12  O          8.5850   -3.7100   -0.0140 O.2     1  UNL1       -0.4540
     13  O          8.7070   -3.9920   -2.1910 O.2     1  UNL1       -0.4540
     14  C          8.9650   -4.6580   -0.9780 C.3     1  UNL1        0.4680
@<TRIPOS>BOND
     1     9     7    1
     2     9    11    2
     3     7     6    2
     4    13    11    1
     5    13    14    1
     6    11    10    1
     7    14    12    1
     8     6     5    1
     9     6     8    1
    10    10     8    2
    11    10    12    1
    12     1     5    1
    13     1     2    1
    14     2     4    2
    15     2     3    1
