@<TRIPOS>MOLECULE
/home/cewinharhar/GITHUB/reincatalyze/data/processed/docking_pred/2023-May-22-1902_sub9_nm5_bs15_s42_ex16_mel10_mts1000_k50_ec02_g099_lra9e-4_lrc1e-3/3b29dc4ebb7ee5049f43ecb42d98a580ffb6b5da_ligand_9.pdbqt
 14 15 0 0 0
SMALL
GASTEIGER

@<TRIPOS>ATOM
      1  C          5.5030    1.9450    1.2480 C.3     1  UNL1        0.0800
      2  C          5.0710    0.7330    1.9990 C.2     1  UNL1        0.1300
      3  C          5.9650   -0.4440    2.1640 C.3     1  UNL1        0.0870
      4  O          3.9610    0.6710    2.5030 O.2     1  UNL1       -0.3000
      5  C          5.3800    1.7380   -0.2480 C.3     1  UNL1        0.0430
      6  C          6.5530    1.0390   -0.8020 C.2     1  UNL1       -0.0440
      7  C          7.8570    1.4730   -0.5380 C.2     1  UNL1        0.0080
      8  C          6.3740   -0.0710   -1.5960 C.2     1  UNL1        0.0540
      9  C          8.9200    0.7760   -1.0840 C.2     1  UNL1        0.0510
     10  C          7.4520   -0.7720   -2.1450 C.2     1  UNL1        0.1660
     11  C          8.7350   -0.3450   -1.8870 C.2     1  UNL1        0.1650
     12  O          7.5350   -1.8850   -2.9540 O.2     1  UNL1       -0.4540
     13  O          9.5880   -1.2140   -2.5490 O.2     1  UNL1       -0.4540
     14  C          8.8720   -2.2590   -3.1630 C.3     1  UNL1        0.4680
@<TRIPOS>BOND
     1    14    12    1
     2    14    13    1
     3    12    10    1
     4    13    11    1
     5    10    11    2
     6    10     8    1
     7    11     9    1
     8     8     6    2
     9     9     7    2
    10     6     7    1
    11     6     5    1
    12     5     1    1
    13     1     2    1
    14     2     3    1
    15     2     4    2
