@<TRIPOS>MOLECULE
/home/cewinharhar/GITHUB/reincatalyze/data/processed/docking_pred/2023-May-22-1902_sub9_nm5_bs15_s42_ex16_mel10_mts1000_k50_ec02_g099_lra9e-4_lrc1e-3/3b98b0574a09314ff34419eb6cee054edaec9098_ligand_9.pdbqt
 14 15 0 0 0
SMALL
GASTEIGER

@<TRIPOS>ATOM
      1  C          5.4200    2.9000    0.1370 C.3     1  UNL1        0.0800
      2  C          6.3010    3.7580    0.9770 C.2     1  UNL1        0.1300
      3  C          7.2090    4.7710    0.3750 C.3     1  UNL1        0.0870
      4  O          6.3040    3.6530    2.1930 O.2     1  UNL1       -0.3000
      5  C          5.5980    1.4330    0.4730 C.3     1  UNL1        0.0430
      6  C          6.6840    0.8200   -0.3120 C.2     1  UNL1       -0.0440
      7  C          7.9590    1.3940   -0.3710 C.2     1  UNL1        0.0080
      8  C          6.4500   -0.3450   -1.0060 C.2     1  UNL1        0.0540
      9  C          8.9400    0.7730   -1.1240 C.2     1  UNL1        0.0510
     10  C          7.4450   -0.9690   -1.7650 C.2     1  UNL1        0.1660
     11  C          8.7000   -0.4050   -1.8250 C.2     1  UNL1        0.1650
     12  O          7.4620   -2.1140   -2.5320 O.2     1  UNL1       -0.4540
     13  O          9.4700   -1.2240   -2.6350 O.2     1  UNL1       -0.4540
     14  C          8.7500   -2.3670   -3.0320 C.3     1  UNL1        0.4680
@<TRIPOS>BOND
     1    14    13    1
     2    14    12    1
     3    13    11    1
     4    12    10    1
     5    11    10    2
     6    11     9    1
     7    10     8    1
     8     9     7    2
     9     8     6    2
    10     7     6    1
    11     6     5    1
    12     1     5    1
    13     1     2    1
    14     3     2    1
    15     2     4    2
