@<TRIPOS>MOLECULE
/home/cewinharhar/GITHUB/reincatalyze/data/processed/docking_pred/2023-May-22-1902_sub9_nm5_bs15_s42_ex16_mel10_mts1000_k50_ec02_g099_lra9e-4_lrc1e-3/3b98b0574a09314ff34419eb6cee054edaec9098_ligand_9.pdbqt
 14 15 0 0 0
SMALL
GASTEIGER

@<TRIPOS>ATOM
      1  C          5.7240    1.3560   -0.3510 C.3     1  UNL1        0.0800
      2  C          5.3690    2.7190    0.1340 C.2     1  UNL1        0.1300
      3  C          6.4120    3.7200    0.4810 C.3     1  UNL1        0.0870
      4  O          4.2030    3.0540    0.2620 O.2     1  UNL1       -0.3000
      5  C          7.2150    1.1030   -0.2390 C.3     1  UNL1        0.0430
      6  C          7.5960   -0.1870   -0.8410 C.2     1  UNL1       -0.0440
      7  C          7.6850   -0.3510   -2.2280 C.2     1  UNL1        0.0080
      8  C          7.8770   -1.2630   -0.0290 C.2     1  UNL1        0.0540
      9  C          8.0490   -1.5850   -2.7360 C.2     1  UNL1        0.0510
     10  C          8.2450   -2.5080   -0.5480 C.2     1  UNL1        0.1660
     11  C          8.3320   -2.6700   -1.9120 C.2     1  UNL1        0.1650
     12  O          8.5680   -3.7120    0.0400 O.2     1  UNL1       -0.4540
     13  O          8.7110   -3.9840   -2.1360 O.2     1  UNL1       -0.4540
     14  C          8.9600   -4.6550   -0.9240 C.3     1  UNL1        0.4680
@<TRIPOS>BOND
     1     9     7    1
     2     9    11    2
     3     7     6    2
     4    13    11    1
     5    13    14    1
     6    11    10    1
     7    14    12    1
     8     6     5    1
     9     6     8    1
    10    10     8    2
    11    10    12    1
    12     1     5    1
    13     1     2    1
    14     2     4    2
    15     2     3    1
