@<TRIPOS>MOLECULE
/home/cewinharhar/GITHUB/reincatalyze/data/processed/docking_pred/2023-May-22-1902_sub9_nm5_bs15_s42_ex16_mel10_mts1000_k50_ec02_g099_lra9e-4_lrc1e-3/3bf4b9a3f06cfa5433c2fd34b58c3faf64c233d9_ligand_9.pdbqt
 14 15 0 0 0
SMALL
GASTEIGER

@<TRIPOS>ATOM
      1  C          5.5100    1.9230    1.2690 C.3     1  UNL1        0.0800
      2  C          5.0370    0.7110    1.9930 C.2     1  UNL1        0.1300
      3  C          5.8970   -0.4930    2.1460 C.3     1  UNL1        0.0870
      4  O          3.9200    0.6700    2.4840 O.2     1  UNL1       -0.3000
      5  C          5.3930    1.7490   -0.2330 C.3     1  UNL1        0.0430
      6  C          6.5570    1.0390   -0.7920 C.2     1  UNL1       -0.0440
      7  C          7.8660    1.4590   -0.5330 C.2     1  UNL1        0.0080
      8  C          6.3630   -0.0670   -1.5890 C.2     1  UNL1        0.0540
      9  C          8.9190    0.7530   -1.0850 C.2     1  UNL1        0.0510
     10  C          7.4310   -0.7780   -2.1440 C.2     1  UNL1        0.1660
     11  C          8.7200   -0.3640   -1.8910 C.2     1  UNL1        0.1650
     12  O          7.4980   -1.8900   -2.9560 O.2     1  UNL1       -0.4540
     13  O          9.5610   -1.2410   -2.5580 O.2     1  UNL1       -0.4540
     14  C          8.8310   -2.2770   -3.1720 C.3     1  UNL1        0.4680
@<TRIPOS>BOND
     1    14    12    1
     2    14    13    1
     3    12    10    1
     4    13    11    1
     5    10    11    2
     6    10     8    1
     7    11     9    1
     8     8     6    2
     9     9     7    2
    10     6     7    1
    11     6     5    1
    12     5     1    1
    13     1     2    1
    14     2     3    1
    15     2     4    2
