@<TRIPOS>MOLECULE
/home/cewinharhar/GITHUB/reincatalyze/data/processed/docking_pred/2023-May-22-1902_sub9_nm5_bs15_s42_ex16_mel10_mts1000_k50_ec02_g099_lra9e-4_lrc1e-3/3bf4b9a3f06cfa5433c2fd34b58c3faf64c233d9_ligand_9.pdbqt
 14 15 0 0 0
SMALL
GASTEIGER

@<TRIPOS>ATOM
      1  C          5.3220    2.9790    0.1400 C.3     1  UNL1        0.0800
      2  C          6.2870    3.7500    0.9720 C.2     1  UNL1        0.1300
      3  C          7.1870    4.7740    0.3780 C.3     1  UNL1        0.0870
      4  O          6.3680    3.5610    2.1750 O.2     1  UNL1       -0.3000
      5  C          5.0170    1.6290    0.7590 C.3     1  UNL1        0.0430
      6  C          5.8990    0.5740    0.2300 C.2     1  UNL1       -0.0440
      7  C          6.3550    0.5930   -1.0930 C.2     1  UNL1        0.0080
      8  C          6.2930   -0.4600    1.0500 C.2     1  UNL1        0.0540
      9  C          7.1820   -0.4240   -1.5330 C.2     1  UNL1        0.0510
     10  C          7.1300   -1.4860    0.6000 C.2     1  UNL1        0.1660
     11  C          7.5770   -1.4680   -0.7020 C.2     1  UNL1        0.1650
     12  O          7.6540   -2.6060    1.2090 O.2     1  UNL1       -0.4540
     13  O          8.3760   -2.5880   -0.8670 O.2     1  UNL1       -0.4540
     14  C          8.5250   -3.2890    0.3450 C.3     1  UNL1        0.4680
@<TRIPOS>BOND
     1     9     7    1
     2     9    11    2
     3     7     6    2
     4    13    11    1
     5    13    14    1
     6    11    10    1
     7     1     5    1
     8     1     2    1
     9     6     5    1
    10     6     8    1
    11    14    12    1
    12     3     2    1
    13    10     8    2
    14    10    12    1
    15     2     4    2
