@<TRIPOS>MOLECULE
/home/cewinharhar/GITHUB/reincatalyze/data/processed/docking_pred/2023-May-22-1902_sub9_nm5_bs15_s42_ex16_mel10_mts1000_k50_ec02_g099_lra9e-4_lrc1e-3/3bf4b9a3f06cfa5433c2fd34b58c3faf64c233d9_ligand_9.pdbqt
 14 15 0 0 0
SMALL
GASTEIGER

@<TRIPOS>ATOM
      1  C          5.4280    2.9240    0.0430 C.3     1  UNL1        0.0800
      2  C          6.2810    3.7930    0.9000 C.2     1  UNL1        0.1300
      3  C          7.2340    4.7740    0.3150 C.3     1  UNL1        0.0870
      4  O          6.2230    3.7230    2.1170 O.2     1  UNL1       -0.3000
      5  C          5.0850    1.6250    0.7440 C.3     1  UNL1        0.0430
      6  C          5.9250    0.5100    0.2720 C.2     1  UNL1       -0.0440
      7  C          6.2360   -0.5750    1.0990 C.2     1  UNL1        0.0080
      8  C          6.4170    0.5240   -1.0130 C.2     1  UNL1        0.0540
      9  C          7.0290   -1.5930    0.6010 C.2     1  UNL1        0.0510
     10  C          7.2170   -0.5080   -1.5130 C.2     1  UNL1        0.1660
     11  C          7.5260   -1.5750   -0.6990 C.2     1  UNL1        0.1650
     12  O          7.8210   -0.7220   -2.7340 O.2     1  UNL1       -0.4540
     13  O          8.3190   -2.4320   -1.4450 O.2     1  UNL1       -0.4540
     14  C          8.4560   -1.9740   -2.7690 C.3     1  UNL1        0.4680
@<TRIPOS>BOND
     1    14    12    1
     2    14    13    1
     3    12    10    1
     4    10     8    1
     5    10    11    2
     6    13    11    1
     7     8     6    2
     8    11     9    1
     9     1     5    1
    10     1     2    1
    11     6     5    1
    12     6     7    1
    13     3     2    1
    14     9     7    2
    15     2     4    2
