@<TRIPOS>MOLECULE
/home/cewinharhar/GITHUB/reincatalyze/data/processed/docking_pred/2023-May-22-1902_sub9_nm5_bs15_s42_ex16_mel10_mts1000_k50_ec02_g099_lra9e-4_lrc1e-3/3bf4b9a3f06cfa5433c2fd34b58c3faf64c233d9_ligand_9.pdbqt
 14 15 0 0 0
SMALL
GASTEIGER

@<TRIPOS>ATOM
      1  C          5.6780    2.8750   -0.1960 C.3     1  UNL1        0.0800
      2  C          6.2620    3.7920    0.8230 C.2     1  UNL1        0.1300
      3  C          7.3440    4.7530    0.4800 C.3     1  UNL1        0.0870
      4  O          5.8670    3.7790    1.9780 O.2     1  UNL1       -0.3000
      5  C          4.8270    1.8020    0.4530 C.3     1  UNL1        0.0430
      6  C          5.6040    0.5790    0.7240 C.2     1  UNL1       -0.0440
      7  C          5.5450   -0.0680    1.9640 C.2     1  UNL1        0.0080
      8  C          6.4080    0.0490   -0.2590 C.2     1  UNL1        0.0540
      9  C          6.2950   -1.2130    2.1610 C.2     1  UNL1        0.0510
     10  C          7.1640   -1.1090   -0.0560 C.2     1  UNL1        0.1660
     11  C          7.1070   -1.7450    1.1640 C.2     1  UNL1        0.1650
     12  O          8.0260   -1.8220   -0.8620 O.2     1  UNL1       -0.4540
     13  O          7.9440   -2.8470    1.0810 O.2     1  UNL1       -0.4540
     14  C          8.4760   -2.9850   -0.2150 C.3     1  UNL1        0.4680
@<TRIPOS>BOND
     1    12    14    1
     2    12    10    1
     3     8    10    1
     4     8     6    2
     5    14    13    1
     6     1     5    1
     7     1     2    1
     8    10    11    2
     9     5     6    1
    10     3     2    1
    11     6     7    1
    12     2     4    2
    13    13    11    1
    14    11     9    1
    15     7     9    2
