@<TRIPOS>MOLECULE
/home/cewinharhar/GITHUB/reincatalyze/data/processed/docking_pred/2023-May-22-1902_sub9_nm5_bs15_s42_ex16_mel10_mts1000_k50_ec02_g099_lra9e-4_lrc1e-3/3c607cf36dcc024da10d53d595c24d9744c2a083_ligand_9.pdbqt
 14 15 0 0 0
SMALL
GASTEIGER

@<TRIPOS>ATOM
      1  C          5.7240    1.3020   -0.3210 C.3     1  UNL1        0.0800
      2  C          5.1890    1.2970    1.0690 C.2     1  UNL1        0.1300
      3  C          5.3590    0.1240    1.9680 C.3     1  UNL1        0.0870
      4  O          4.5900    2.2640    1.5130 O.2     1  UNL1       -0.3000
      5  C          7.2280    1.1110   -0.3320 C.3     1  UNL1        0.0430
      6  C          7.6110   -0.1880   -0.9120 C.2     1  UNL1       -0.0440
      7  C          7.7070   -0.3720   -2.2970 C.2     1  UNL1        0.0080
      8  C          7.8840   -1.2520   -0.0830 C.2     1  UNL1        0.0540
      9  C          8.0710   -1.6140   -2.7840 C.2     1  UNL1        0.0510
     10  C          8.2520   -2.5060   -0.5810 C.2     1  UNL1        0.1660
     11  C          8.3460   -2.6880   -1.9430 C.2     1  UNL1        0.1650
     12  O          8.5680   -3.7020    0.0260 O.2     1  UNL1       -0.4540
     13  O          8.7240   -4.0060   -2.1450 O.2     1  UNL1       -0.4540
     14  C          8.9640   -4.6600   -0.9220 C.3     1  UNL1        0.4680
@<TRIPOS>BOND
     1     9     7    1
     2     9    11    2
     3     7     6    2
     4    13    11    1
     5    13    14    1
     6    11    10    1
     7    14    12    1
     8     6     5    1
     9     6     8    1
    10    10     8    2
    11    10    12    1
    12     5     1    1
    13     1     2    1
    14     2     4    2
    15     2     3    1
