@<TRIPOS>MOLECULE
/home/cewinharhar/GITHUB/reincatalyze/data/processed/docking_pred/2023-May-22-1902_sub9_nm5_bs15_s42_ex16_mel10_mts1000_k50_ec02_g099_lra9e-4_lrc1e-3/3c93f0ab1d0179ecce707f4524a6ff468bff7290_ligand_9.pdbqt
 14 15 0 0 0
SMALL
GASTEIGER

@<TRIPOS>ATOM
      1  C          5.7530    1.3220   -0.3390 C.3     1  UNL1        0.0800
      2  C          5.1670    1.3070    1.0310 C.2     1  UNL1        0.1300
      3  C          5.3620    0.1540    1.9500 C.3     1  UNL1        0.0870
      4  O          4.5060    2.2470    1.4400 O.2     1  UNL1       -0.3000
      5  C          7.2510    1.0970   -0.3000 C.3     1  UNL1        0.0430
      6  C          7.6250   -0.2010   -0.8910 C.2     1  UNL1       -0.0440
      7  C          7.6990   -0.3810   -2.2770 C.2     1  UNL1        0.0080
      8  C          7.9120   -1.2670   -0.0690 C.2     1  UNL1        0.0540
      9  C          8.0560   -1.6210   -2.7740 C.2     1  UNL1        0.0510
     10  C          8.2730   -2.5180   -0.5770 C.2     1  UNL1        0.1660
     11  C          8.3450   -2.6970   -1.9410 C.2     1  UNL1        0.1650
     12  O          8.6000   -3.7170    0.0220 O.2     1  UNL1       -0.4540
     13  O          8.7200   -4.0140   -2.1530 O.2     1  UNL1       -0.4540
     14  C          8.9800   -4.6710   -0.9360 C.3     1  UNL1        0.4680
@<TRIPOS>BOND
     1     9     7    1
     2     9    11    2
     3     7     6    2
     4    13    11    1
     5    13    14    1
     6    11    10    1
     7    14    12    1
     8     6     5    1
     9     6     8    1
    10    10     8    2
    11    10    12    1
    12     1     5    1
    13     1     2    1
    14     2     4    2
    15     2     3    1
