@<TRIPOS>MOLECULE
/home/cewinharhar/GITHUB/reincatalyze/data/processed/docking_pred/2023-May-22-1902_sub9_nm5_bs15_s42_ex16_mel10_mts1000_k50_ec02_g099_lra9e-4_lrc1e-3/3dd20a82ca316ee4e9168eadca9f8684e5881f32_ligand_9.pdbqt
 14 15 0 0 0
SMALL
GASTEIGER

@<TRIPOS>ATOM
      1  C          5.5290    1.8800    1.2920 C.3     1  UNL1        0.0800
      2  C          5.0760    0.6590    2.0160 C.2     1  UNL1        0.1300
      3  C          5.9540   -0.5330    2.1630 C.3     1  UNL1        0.0870
      4  O          3.9620    0.6010    2.5110 O.2     1  UNL1       -0.3000
      5  C          5.3990    1.7100   -0.2080 C.3     1  UNL1        0.0430
      6  C          6.5660    1.0160   -0.7830 C.2     1  UNL1       -0.0440
      7  C          7.8720    1.4650   -0.5540 C.2     1  UNL1        0.0080
      8  C          6.3790   -0.1020   -1.5630 C.2     1  UNL1        0.0540
      9  C          8.9280    0.7740   -1.1180 C.2     1  UNL1        0.0510
     10  C          7.4500   -0.7980   -2.1310 C.2     1  UNL1        0.1660
     11  C          8.7350   -0.3570   -1.9070 C.2     1  UNL1        0.1650
     12  O          7.5240   -1.9190   -2.9310 O.2     1  UNL1       -0.4540
     13  O          9.5800   -1.2240   -2.5800 O.2     1  UNL1       -0.4540
     14  C          8.8600   -2.2820   -3.1680 C.3     1  UNL1        0.4680
@<TRIPOS>BOND
     1    14    12    1
     2    14    13    1
     3    12    10    1
     4    13    11    1
     5    10    11    2
     6    10     8    1
     7    11     9    1
     8     8     6    2
     9     9     7    2
    10     6     7    1
    11     6     5    1
    12     5     1    1
    13     1     2    1
    14     2     3    1
    15     2     4    2
