@<TRIPOS>MOLECULE
/home/cewinharhar/GITHUB/reincatalyze/data/processed/docking_pred/2023-May-22-1902_sub9_nm5_bs15_s42_ex16_mel10_mts1000_k50_ec02_g099_lra9e-4_lrc1e-3/3dd20a82ca316ee4e9168eadca9f8684e5881f32_ligand_9.pdbqt
 14 15 0 0 0
SMALL
GASTEIGER

@<TRIPOS>ATOM
      1  C          5.4460    2.9160    0.3190 C.3     1  UNL1        0.0800
      2  C          6.2860    3.9020    1.0530 C.2     1  UNL1        0.1300
      3  C          7.2630    4.7740    0.3480 C.3     1  UNL1        0.0870
      4  O          6.1960    4.0240    2.2640 O.2     1  UNL1       -0.3000
      5  C          5.3080    1.6230    1.0980 C.3     1  UNL1        0.0430
      6  C          6.1070    0.5370    0.5020 C.2     1  UNL1       -0.0440
      7  C          6.4640   -0.5990    1.2370 C.2     1  UNL1        0.0080
      8  C          6.5140    0.6310   -0.8090 C.2     1  UNL1        0.0540
      9  C          7.2140   -1.5860    0.6240 C.2     1  UNL1        0.0510
     10  C          7.2720   -0.3700   -1.4240 C.2     1  UNL1        0.1660
     11  C          7.6260   -1.4870   -0.7010 C.2     1  UNL1        0.1650
     12  O          7.7930   -0.5080   -2.6940 O.2     1  UNL1       -0.4540
     13  O          8.3620   -2.2980   -1.5510 O.2     1  UNL1       -0.4540
     14  C          8.4150   -1.7580   -2.8500 C.3     1  UNL1        0.4680
@<TRIPOS>BOND
     1    14    12    1
     2    14    13    1
     3    12    10    1
     4    13    11    1
     5    10     8    1
     6    10    11    2
     7     8     6    2
     8    11     9    1
     9     1     2    1
    10     1     5    1
    11     3     2    1
    12     6     5    1
    13     6     7    1
    14     9     7    2
    15     2     4    2
