@<TRIPOS>MOLECULE
/home/cewinharhar/GITHUB/reincatalyze/data/processed/docking_pred/2023-May-22-1902_sub9_nm5_bs15_s42_ex16_mel10_mts1000_k50_ec02_g099_lra9e-4_lrc1e-3/3dd20a82ca316ee4e9168eadca9f8684e5881f32_ligand_9.pdbqt
 14 15 0 0 0
SMALL
GASTEIGER

@<TRIPOS>ATOM
      1  C          6.2710    0.8520    1.0340 C.3     1  UNL1        0.0800
      2  C          5.0840    1.7450    0.9250 C.2     1  UNL1        0.1300
      3  C          4.8930    2.6510   -0.2390 C.3     1  UNL1        0.0870
      4  O          4.2290    1.7590    1.7950 O.2     1  UNL1       -0.3000
      5  C          7.2170    1.0490   -0.1340 C.3     1  UNL1        0.0430
      6  C          7.5700   -0.2320   -0.7730 C.2     1  UNL1       -0.0440
      7  C          7.5810   -0.3780   -2.1650 C.2     1  UNL1        0.0080
      8  C          7.9020   -1.3150    0.0080 C.2     1  UNL1        0.0540
      9  C          7.9210   -1.6040   -2.7080 C.2     1  UNL1        0.0510
     10  C          8.2470   -2.5520   -0.5460 C.2     1  UNL1        0.1660
     11  C          8.2560   -2.6970   -1.9160 C.2     1  UNL1        0.1650
     12  O          8.6090   -3.7620    0.0070 O.2     1  UNL1       -0.4540
     13  O          8.6280   -4.0060   -2.1770 O.2     1  UNL1       -0.4540
     14  C          8.9490   -4.6910   -0.9900 C.3     1  UNL1        0.4680
@<TRIPOS>BOND
     1     9     7    1
     2     9    11    2
     3    13    11    1
     4    13    14    1
     5     7     6    2
     6    11    10    1
     7    14    12    1
     8     6     5    1
     9     6     8    1
    10    10    12    1
    11    10     8    2
    12     3     2    1
    13     5     1    1
    14     2     1    1
    15     2     4    2
