MODEL 1
REMARK VINA RESULT:      -7.8      0.000      0.000
REMARK SMILES CC(=O)CCc1ccc2c(c1)OCO2
REMARK SMILES IDX 4 1 2 2 1 3 3 4 5 5 6 6 7 7 11 8 8 9 10 10 9 11 12 12 14 13
REMARK SMILES IDX 13 14
REMARK H PARENT
REMARK Flexibility Score: inf
ROOT
ATOM      1  C   UNL     1       5.370   2.987   0.172  1.00  0.00     0.080 C 
ENDROOT
BRANCH   1   2
ATOM      2  C   UNL     1       6.273   3.851   0.983  1.00  0.00     0.130 C 
ATOM      3  C   UNL     1       7.250   4.774   0.346  1.00  0.00     0.087 C 
ATOM      4  O   UNL     1       6.236   3.826   2.203  1.00  0.00    -0.300 OA
ENDBRANCH   1   2
BRANCH   1   5
ATOM      5  C   UNL     1       5.128   1.654   0.852  1.00  0.00     0.043 C 
BRANCH   5   6
ATOM      6  C   UNL     1       5.979   0.591   0.289  1.00  0.00    -0.044 A 
ATOM      7  C   UNL     1       6.387   0.611  -1.050  1.00  0.00     0.008 A 
ATOM      8  C   UNL     1       6.389  -0.450   1.090  1.00  0.00     0.054 A 
ATOM      9  C   UNL     1       7.187  -0.414  -1.523  1.00  0.00     0.051 A 
ATOM     10  C   UNL     1       7.198  -1.483   0.607  1.00  0.00     0.166 A 
ATOM     11  C   UNL     1       7.600  -1.465  -0.710  1.00  0.00     0.165 A 
ATOM     12  O   UNL     1       7.731  -2.612   1.194  1.00  0.00    -0.454 OA
ATOM     13  O   UNL     1       8.380  -2.594  -0.907  1.00  0.00    -0.454 OA
ATOM     14  C   UNL     1       8.564  -3.301   0.297  1.00  0.00     0.468 C 
ENDBRANCH   5   6
ENDBRANCH   1   5
TORSDOF 3
ENDMDL
MODEL 2
REMARK VINA RESULT:      -7.7      0.995      1.990
REMARK SMILES CC(=O)CCc1ccc2c(c1)OCO2
REMARK SMILES IDX 4 1 2 2 1 3 3 4 5 5 6 6 7 7 11 8 8 9 10 10 9 11 12 12 14 13
REMARK SMILES IDX 13 14
REMARK H PARENT
REMARK Flexibility Score: inf
ROOT
ATOM      1  C   UNL     1       5.446   2.916   0.319  1.00  0.00     0.080 C 
ENDROOT
BRANCH   1   2
ATOM      2  C   UNL     1       6.286   3.902   1.053  1.00  0.00     0.130 C 
ATOM      3  C   UNL     1       7.263   4.774   0.348  1.00  0.00     0.087 C 
ATOM      4  O   UNL     1       6.196   4.024   2.264  1.00  0.00    -0.300 OA
ENDBRANCH   1   2
BRANCH   1   5
ATOM      5  C   UNL     1       5.308   1.623   1.098  1.00  0.00     0.043 C 
BRANCH   5   6
ATOM      6  C   UNL     1       6.107   0.537   0.502  1.00  0.00    -0.044 A 
ATOM      7  C   UNL     1       6.464  -0.599   1.237  1.00  0.00     0.008 A 
ATOM      8  C   UNL     1       6.514   0.631  -0.809  1.00  0.00     0.054 A 
ATOM      9  C   UNL     1       7.214  -1.586   0.624  1.00  0.00     0.051 A 
ATOM     10  C   UNL     1       7.272  -0.370  -1.424  1.00  0.00     0.166 A 
ATOM     11  C   UNL     1       7.626  -1.487  -0.701  1.00  0.00     0.165 A 
ATOM     12  O   UNL     1       7.793  -0.508  -2.694  1.00  0.00    -0.454 OA
ATOM     13  O   UNL     1       8.362  -2.298  -1.551  1.00  0.00    -0.454 OA
ATOM     14  C   UNL     1       8.415  -1.758  -2.850  1.00  0.00     0.468 C 
ENDBRANCH   5   6
ENDBRANCH   1   5
TORSDOF 3
ENDMDL
MODEL 3
REMARK VINA RESULT:      -7.6      2.416      3.054
REMARK SMILES CC(=O)CCc1ccc2c(c1)OCO2
REMARK SMILES IDX 4 1 2 2 1 3 3 4 5 5 6 6 7 7 11 8 8 9 10 10 9 11 12 12 14 13
REMARK SMILES IDX 13 14
REMARK H PARENT
REMARK Flexibility Score: inf
ROOT
ATOM      1  C   UNL     1       5.529   1.880   1.292  1.00  0.00     0.080 C 
ENDROOT
BRANCH   1   2
ATOM      2  C   UNL     1       5.076   0.659   2.016  1.00  0.00     0.130 C 
ATOM      3  C   UNL     1       5.954  -0.533   2.163  1.00  0.00     0.087 C 
ATOM      4  O   UNL     1       3.962   0.601   2.511  1.00  0.00    -0.300 OA
ENDBRANCH   1   2
BRANCH   1   5
ATOM      5  C   UNL     1       5.399   1.710  -0.208  1.00  0.00     0.043 C 
BRANCH   5   6
ATOM      6  C   UNL     1       6.566   1.016  -0.783  1.00  0.00    -0.044 A 
ATOM      7  C   UNL     1       7.872   1.465  -0.554  1.00  0.00     0.008 A 
ATOM      8  C   UNL     1       6.379  -0.102  -1.563  1.00  0.00     0.054 A 
ATOM      9  C   UNL     1       8.928   0.774  -1.118  1.00  0.00     0.051 A 
ATOM     10  C   UNL     1       7.450  -0.798  -2.131  1.00  0.00     0.166 A 
ATOM     11  C   UNL     1       8.735  -0.357  -1.907  1.00  0.00     0.165 A 
ATOM     12  O   UNL     1       7.524  -1.919  -2.931  1.00  0.00    -0.454 OA
ATOM     13  O   UNL     1       9.580  -1.224  -2.580  1.00  0.00    -0.454 OA
ATOM     14  C   UNL     1       8.860  -2.282  -3.168  1.00  0.00     0.468 C 
ENDBRANCH   5   6
ENDBRANCH   1   5
TORSDOF 3
ENDMDL
MODEL 4
REMARK VINA RESULT:      -7.5      1.801      2.461
REMARK SMILES CC(=O)CCc1ccc2c(c1)OCO2
REMARK SMILES IDX 4 1 2 2 1 3 3 4 5 5 6 6 7 7 11 8 8 9 10 10 9 11 12 12 14 13
REMARK SMILES IDX 13 14
REMARK H PARENT
REMARK Flexibility Score: inf
ROOT
ATOM      1  C   UNL     1       5.798   1.386  -0.370  1.00  0.00     0.080 C 
ENDROOT
BRANCH   1   2
ATOM      2  C   UNL     1       5.142   1.337   0.966  1.00  0.00     0.130 C 
ATOM      3  C   UNL     1       5.404   0.229   1.924  1.00  0.00     0.087 C 
ATOM      4  O   UNL     1       4.364   2.210   1.315  1.00  0.00    -0.300 OA
ENDBRANCH   1   2
BRANCH   1   5
ATOM      5  C   UNL     1       7.284   1.106  -0.265  1.00  0.00     0.043 C 
BRANCH   5   6
ATOM      6  C   UNL     1       7.640  -0.193  -0.863  1.00  0.00    -0.044 A 
ATOM      7  C   UNL     1       7.691  -0.371  -2.250  1.00  0.00     0.008 A 
ATOM      8  C   UNL     1       7.934  -1.262  -0.047  1.00  0.00     0.054 A 
ATOM      9  C   UNL     1       8.032  -1.613  -2.754  1.00  0.00     0.051 A 
ATOM     10  C   UNL     1       8.279  -2.515  -0.562  1.00  0.00     0.166 A 
ATOM     11  C   UNL     1       8.328  -2.692  -1.927  1.00  0.00     0.165 A 
ATOM     12  O   UNL     1       8.608  -3.716   0.030  1.00  0.00    -0.454 OA
ATOM     13  O   UNL     1       8.691  -4.011  -2.147  1.00  0.00    -0.454 OA
ATOM     14  C   UNL     1       8.967  -4.672  -0.934  1.00  0.00     0.468 C 
ENDBRANCH   5   6
ENDBRANCH   1   5
TORSDOF 3
ENDMDL
MODEL 5
REMARK VINA RESULT:      -7.4      1.638      2.236
REMARK SMILES CC(=O)CCc1ccc2c(c1)OCO2
REMARK SMILES IDX 4 1 2 2 1 3 3 4 5 5 6 6 7 7 11 8 8 9 10 10 9 11 12 12 14 13
REMARK SMILES IDX 13 14
REMARK H PARENT
REMARK Flexibility Score: inf
ROOT
ATOM      1  C   UNL     1       6.271   0.852   1.034  1.00  0.00     0.080 C 
ENDROOT
BRANCH   1   2
ATOM      2  C   UNL     1       5.084   1.745   0.925  1.00  0.00     0.130 C 
ATOM      3  C   UNL     1       4.893   2.651  -0.239  1.00  0.00     0.087 C 
ATOM      4  O   UNL     1       4.229   1.759   1.795  1.00  0.00    -0.300 OA
ENDBRANCH   1   2
BRANCH   1   5
ATOM      5  C   UNL     1       7.217   1.049  -0.134  1.00  0.00     0.043 C 
BRANCH   5   6
ATOM      6  C   UNL     1       7.570  -0.232  -0.773  1.00  0.00    -0.044 A 
ATOM      7  C   UNL     1       7.581  -0.378  -2.165  1.00  0.00     0.008 A 
ATOM      8  C   UNL     1       7.902  -1.315   0.008  1.00  0.00     0.054 A 
ATOM      9  C   UNL     1       7.921  -1.604  -2.708  1.00  0.00     0.051 A 
ATOM     10  C   UNL     1       8.247  -2.552  -0.546  1.00  0.00     0.166 A 
ATOM     11  C   UNL     1       8.256  -2.697  -1.916  1.00  0.00     0.165 A 
ATOM     12  O   UNL     1       8.609  -3.762   0.007  1.00  0.00    -0.454 OA
ATOM     13  O   UNL     1       8.628  -4.006  -2.177  1.00  0.00    -0.454 OA
ATOM     14  C   UNL     1       8.949  -4.691  -0.990  1.00  0.00     0.468 C 
ENDBRANCH   5   6
ENDBRANCH   1   5
TORSDOF 3
ENDMDL
