@<TRIPOS>MOLECULE
/home/cewinharhar/GITHUB/reincatalyze/data/processed/docking_pred/2023-May-22-1902_sub9_nm5_bs15_s42_ex16_mel10_mts1000_k50_ec02_g099_lra9e-4_lrc1e-3/3e742204aaadd08b2af2eabe2bac092cf241077d_ligand_9.pdbqt
 14 15 0 0 0
SMALL
GASTEIGER

@<TRIPOS>ATOM
      1  C          5.6500    2.4580    0.7820 C.3     1  UNL1        0.0800
      2  C          6.2800    3.7450    1.1900 C.2     1  UNL1        0.1300
      3  C          7.1140    4.5390    0.2490 C.3     1  UNL1        0.0870
      4  O          6.1280    4.1870    2.3180 O.2     1  UNL1       -0.3000
      5  C          6.4220    1.2710    1.3230 C.3     1  UNL1        0.0430
      6  C          6.7880    0.3240    0.2540 C.2     1  UNL1       -0.0440
      7  C          6.4980    0.5880   -1.0890 C.2     1  UNL1        0.0080
      8  C          7.4320   -0.8490    0.5740 C.2     1  UNL1        0.0540
      9  C          6.8660   -0.3370   -2.0490 C.2     1  UNL1        0.0510
     10  C          7.8020   -1.7810   -0.4000 C.2     1  UNL1        0.1660
     11  C          7.5170   -1.5230   -1.7220 C.2     1  UNL1        0.1650
     12  O          8.4400   -3.0020   -0.3380 O.2     1  UNL1       -0.4540
     13  O          7.9910   -2.6010   -2.4530 O.2     1  UNL1       -0.4540
     14  C          8.6650   -3.5190   -1.6250 C.3     1  UNL1        0.4680
@<TRIPOS>BOND
     1    13    11    1
     2    13    14    1
     3     9    11    2
     4     9     7    1
     5    11    10    1
     6    14    12    1
     7     7     6    2
     8    10    12    1
     9    10     8    2
    10     3     2    1
    11     6     8    1
    12     6     5    1
    13     1     2    1
    14     1     5    1
    15     2     4    2
