@<TRIPOS>MOLECULE
/home/cewinharhar/GITHUB/reincatalyze/data/processed/docking_pred/2023-May-22-1902_sub9_nm5_bs15_s42_ex16_mel10_mts1000_k50_ec02_g099_lra9e-4_lrc1e-3/3e742204aaadd08b2af2eabe2bac092cf241077d_ligand_9.pdbqt
 14 15 0 0 0
SMALL
GASTEIGER

@<TRIPOS>ATOM
      1  C          5.1360    3.1470    0.6450 C.3     1  UNL1        0.0800
      2  C          6.3370    3.8350    1.1930 C.2     1  UNL1        0.1300
      3  C          7.1460    4.7710    0.3670 C.3     1  UNL1        0.0870
      4  O          6.6950    3.6490    2.3450 O.2     1  UNL1       -0.3000
      5  C          5.5140    2.1610   -0.4430 C.3     1  UNL1        0.0430
      6  C          5.9990    0.8880    0.1180 C.2     1  UNL1       -0.0440
      7  C          5.5290    0.4000    1.3430 C.2     1  UNL1        0.0080
      8  C          6.9340    0.1500   -0.5720 C.2     1  UNL1        0.0540
      9  C          6.0200   -0.8020    1.8200 C.2     1  UNL1        0.0510
     10  C          7.4260   -1.0650   -0.0860 C.2     1  UNL1        0.1660
     11  C          6.9660   -1.5440    1.1200 C.2     1  UNL1        0.1650
     12  O          8.3440   -1.9700   -0.5750 O.2     1  UNL1       -0.4540
     13  O          7.6160   -2.7470    1.3480 O.2     1  UNL1       -0.4540
     14  C          8.4310   -3.0990    0.2550 C.3     1  UNL1        0.4680
@<TRIPOS>BOND
     1    12    10    1
     2    12    14    1
     3     8    10    1
     4     8     6    2
     5     5     6    1
     6     5     1    1
     7    10    11    2
     8     6     7    1
     9    14    13    1
    10     3     2    1
    11     1     2    1
    12    11    13    1
    13    11     9    1
    14     2     4    2
    15     7     9    2
