@<TRIPOS>MOLECULE
/home/cewinharhar/GITHUB/reincatalyze/data/processed/docking_pred/2023-May-22-1902_sub9_nm5_bs15_s42_ex16_mel10_mts1000_k50_ec02_g099_lra9e-4_lrc1e-3/3e742204aaadd08b2af2eabe2bac092cf241077d_ligand_9.pdbqt
 14 15 0 0 0
SMALL
GASTEIGER

@<TRIPOS>ATOM
      1  C          5.4690    2.8990    0.1370 C.3     1  UNL1        0.0800
      2  C          6.2800    3.8270    0.9740 C.2     1  UNL1        0.1300
      3  C          7.2530    4.7750    0.3700 C.3     1  UNL1        0.0870
      4  O          6.1680    3.8340    2.1900 O.2     1  UNL1       -0.3000
      5  C          5.2200    1.5860    0.8530 C.3     1  UNL1        0.0430
      6  C          6.0370    0.4950    0.2930 C.2     1  UNL1       -0.0440
      7  C          6.3480   -0.6460    1.0410 C.2     1  UNL1        0.0080
      8  C          6.5090    0.5890   -0.9970 C.2     1  UNL1        0.0540
      9  C          7.1180   -1.6390    0.4620 C.2     1  UNL1        0.0510
     10  C          7.2860   -0.4170   -1.5780 C.2     1  UNL1        0.1660
     11  C          7.5940   -1.5400   -0.8420 C.2     1  UNL1        0.1650
     12  O          7.8660   -0.5570   -2.8210 O.2     1  UNL1       -0.4540
     13  O          8.3630   -2.3550   -1.6580 O.2     1  UNL1       -0.4540
     14  C          8.4840   -1.8120   -2.9510 C.3     1  UNL1        0.4680
@<TRIPOS>BOND
     1    14    12    1
     2    14    13    1
     3    12    10    1
     4    13    11    1
     5    10     8    1
     6    10    11    2
     7     8     6    2
     8    11     9    1
     9     1     5    1
    10     1     2    1
    11     6     5    1
    12     6     7    1
    13     3     2    1
    14     9     7    2
    15     2     4    2
