@<TRIPOS>MOLECULE
/home/cewinharhar/GITHUB/reincatalyze/data/processed/docking_pred/2023-May-22-1902_sub9_nm5_bs15_s42_ex16_mel10_mts1000_k50_ec02_g099_lra9e-4_lrc1e-3/3e742204aaadd08b2af2eabe2bac092cf241077d_ligand_9.pdbqt
 14 15 0 0 0
SMALL
GASTEIGER

@<TRIPOS>ATOM
      1  C          5.4010    2.8970    0.1750 C.3     1  UNL1        0.0800
      2  C          6.2770    3.7720    1.0030 C.2     1  UNL1        0.1300
      3  C          7.1870    4.7750    0.3870 C.3     1  UNL1        0.0870
      4  O          6.2740    3.6880    2.2210 O.2     1  UNL1       -0.3000
      5  C          5.5920    1.4350    0.5260 C.3     1  UNL1        0.0430
      6  C          6.6750    0.8210   -0.2630 C.2     1  UNL1       -0.0440
      7  C          7.9520    1.3890   -0.3230 C.2     1  UNL1        0.0080
      8  C          6.4350   -0.3420   -0.9600 C.2     1  UNL1        0.0540
      9  C          8.9290    0.7670   -1.0790 C.2     1  UNL1        0.0510
     10  C          7.4260   -0.9670   -1.7230 C.2     1  UNL1        0.1660
     11  C          8.6830   -0.4080   -1.7830 C.2     1  UNL1        0.1650
     12  O          7.4370   -2.1100   -2.4950 O.2     1  UNL1       -0.4540
     13  O          9.4480   -1.2280   -2.5980 O.2     1  UNL1       -0.4540
     14  C          8.7240   -2.3660   -2.9970 C.3     1  UNL1        0.4680
@<TRIPOS>BOND
     1    14    13    1
     2    14    12    1
     3    13    11    1
     4    12    10    1
     5    11    10    2
     6    11     9    1
     7    10     8    1
     8     9     7    2
     9     8     6    2
    10     7     6    1
    11     6     5    1
    12     1     5    1
    13     1     2    1
    14     3     2    1
    15     2     4    2
