MODEL 1
REMARK VINA RESULT:      -7.9      0.000      0.000
REMARK SMILES CC(=O)CCc1ccc2c(c1)OCO2
REMARK SMILES IDX 4 1 2 2 1 3 3 4 5 5 6 6 7 7 11 8 8 9 10 10 9 11 12 12 14 13
REMARK SMILES IDX 13 14
REMARK H PARENT
REMARK Flexibility Score: inf
ROOT
ATOM      1  C   UNL     1       5.469   2.899   0.137  1.00  0.00     0.080 C 
ENDROOT
BRANCH   1   2
ATOM      2  C   UNL     1       6.280   3.827   0.974  1.00  0.00     0.130 C 
ATOM      3  C   UNL     1       7.253   4.775   0.370  1.00  0.00     0.087 C 
ATOM      4  O   UNL     1       6.168   3.834   2.190  1.00  0.00    -0.300 OA
ENDBRANCH   1   2
BRANCH   1   5
ATOM      5  C   UNL     1       5.220   1.586   0.853  1.00  0.00     0.043 C 
BRANCH   5   6
ATOM      6  C   UNL     1       6.037   0.495   0.293  1.00  0.00    -0.044 A 
ATOM      7  C   UNL     1       6.348  -0.646   1.041  1.00  0.00     0.008 A 
ATOM      8  C   UNL     1       6.509   0.589  -0.997  1.00  0.00     0.054 A 
ATOM      9  C   UNL     1       7.118  -1.639   0.462  1.00  0.00     0.051 A 
ATOM     10  C   UNL     1       7.286  -0.417  -1.578  1.00  0.00     0.166 A 
ATOM     11  C   UNL     1       7.594  -1.540  -0.842  1.00  0.00     0.165 A 
ATOM     12  O   UNL     1       7.866  -0.557  -2.821  1.00  0.00    -0.454 OA
ATOM     13  O   UNL     1       8.363  -2.355  -1.658  1.00  0.00    -0.454 OA
ATOM     14  C   UNL     1       8.484  -1.812  -2.951  1.00  0.00     0.468 C 
ENDBRANCH   5   6
ENDBRANCH   1   5
TORSDOF 3
ENDMDL
MODEL 2
REMARK VINA RESULT:      -7.7      1.890      2.627
REMARK SMILES CC(=O)CCc1ccc2c(c1)OCO2
REMARK SMILES IDX 4 1 2 2 1 3 3 4 5 5 6 6 7 7 11 8 8 9 10 10 9 11 12 12 14 13
REMARK SMILES IDX 13 14
REMARK H PARENT
REMARK Flexibility Score: inf
ROOT
ATOM      1  C   UNL     1       5.504   1.923   1.251  1.00  0.00     0.080 C 
ENDROOT
BRANCH   1   2
ATOM      2  C   UNL     1       5.065   0.711   1.997  1.00  0.00     0.130 C 
ATOM      3  C   UNL     1       5.954  -0.470   2.161  1.00  0.00     0.087 C 
ATOM      4  O   UNL     1       3.954   0.653   2.499  1.00  0.00    -0.300 OA
ENDBRANCH   1   2
BRANCH   1   5
ATOM      5  C   UNL     1       5.380   1.722  -0.247  1.00  0.00     0.043 C 
BRANCH   5   6
ATOM      6  C   UNL     1       6.552   1.022  -0.803  1.00  0.00    -0.044 A 
ATOM      7  C   UNL     1       7.857   1.460  -0.547  1.00  0.00     0.008 A 
ATOM      8  C   UNL     1       6.371  -0.090  -1.593  1.00  0.00     0.054 A 
ATOM      9  C   UNL     1       8.918   0.762  -1.096  1.00  0.00     0.051 A 
ATOM     10  C   UNL     1       7.447  -0.792  -2.144  1.00  0.00     0.166 A 
ATOM     11  C   UNL     1       8.731  -0.362  -1.894  1.00  0.00     0.165 A 
ATOM     12  O   UNL     1       7.527  -1.909  -2.949  1.00  0.00    -0.454 OA
ATOM     13  O   UNL     1       9.581  -1.233  -2.556  1.00  0.00    -0.454 OA
ATOM     14  C   UNL     1       8.864  -2.281  -3.163  1.00  0.00     0.468 C 
ENDBRANCH   5   6
ENDBRANCH   1   5
TORSDOF 3
ENDMDL
MODEL 3
REMARK VINA RESULT:      -7.6      1.091      1.515
REMARK SMILES CC(=O)CCc1ccc2c(c1)OCO2
REMARK SMILES IDX 4 1 2 2 1 3 3 4 5 5 6 6 7 7 11 8 8 9 10 10 9 11 12 12 14 13
REMARK SMILES IDX 13 14
REMARK H PARENT
REMARK Flexibility Score: inf
ROOT
ATOM      1  C   UNL     1       5.401   2.897   0.175  1.00  0.00     0.080 C 
ENDROOT
BRANCH   1   2
ATOM      2  C   UNL     1       6.277   3.772   1.003  1.00  0.00     0.130 C 
ATOM      3  C   UNL     1       7.187   4.775   0.387  1.00  0.00     0.087 C 
ATOM      4  O   UNL     1       6.274   3.688   2.221  1.00  0.00    -0.300 OA
ENDBRANCH   1   2
BRANCH   1   5
ATOM      5  C   UNL     1       5.592   1.435   0.526  1.00  0.00     0.043 C 
BRANCH   5   6
ATOM      6  C   UNL     1       6.675   0.821  -0.263  1.00  0.00    -0.044 A 
ATOM      7  C   UNL     1       7.952   1.389  -0.323  1.00  0.00     0.008 A 
ATOM      8  C   UNL     1       6.435  -0.342  -0.960  1.00  0.00     0.054 A 
ATOM      9  C   UNL     1       8.929   0.767  -1.079  1.00  0.00     0.051 A 
ATOM     10  C   UNL     1       7.426  -0.967  -1.723  1.00  0.00     0.166 A 
ATOM     11  C   UNL     1       8.683  -0.408  -1.783  1.00  0.00     0.165 A 
ATOM     12  O   UNL     1       7.437  -2.110  -2.495  1.00  0.00    -0.454 OA
ATOM     13  O   UNL     1       9.448  -1.228  -2.598  1.00  0.00    -0.454 OA
ATOM     14  C   UNL     1       8.724  -2.366  -2.997  1.00  0.00     0.468 C 
ENDBRANCH   5   6
ENDBRANCH   1   5
TORSDOF 3
ENDMDL
MODEL 4
REMARK VINA RESULT:      -7.4      0.971      1.795
REMARK SMILES CC(=O)CCc1ccc2c(c1)OCO2
REMARK SMILES IDX 4 1 2 2 1 3 3 4 5 5 6 6 7 7 11 8 8 9 10 10 9 11 12 12 14 13
REMARK SMILES IDX 13 14
REMARK H PARENT
REMARK Flexibility Score: inf
ROOT
ATOM      1  C   UNL     1       5.650   2.458   0.782  1.00  0.00     0.080 C 
ENDROOT
BRANCH   1   2
ATOM      2  C   UNL     1       6.280   3.745   1.190  1.00  0.00     0.130 C 
ATOM      3  C   UNL     1       7.114   4.539   0.249  1.00  0.00     0.087 C 
ATOM      4  O   UNL     1       6.128   4.187   2.318  1.00  0.00    -0.300 OA
ENDBRANCH   1   2
BRANCH   1   5
ATOM      5  C   UNL     1       6.422   1.271   1.323  1.00  0.00     0.043 C 
BRANCH   5   6
ATOM      6  C   UNL     1       6.788   0.324   0.254  1.00  0.00    -0.044 A 
ATOM      7  C   UNL     1       6.498   0.588  -1.089  1.00  0.00     0.008 A 
ATOM      8  C   UNL     1       7.432  -0.849   0.574  1.00  0.00     0.054 A 
ATOM      9  C   UNL     1       6.866  -0.337  -2.049  1.00  0.00     0.051 A 
ATOM     10  C   UNL     1       7.802  -1.781  -0.400  1.00  0.00     0.166 A 
ATOM     11  C   UNL     1       7.517  -1.523  -1.722  1.00  0.00     0.165 A 
ATOM     12  O   UNL     1       8.440  -3.002  -0.338  1.00  0.00    -0.454 OA
ATOM     13  O   UNL     1       7.991  -2.601  -2.453  1.00  0.00    -0.454 OA
ATOM     14  C   UNL     1       8.665  -3.519  -1.625  1.00  0.00     0.468 C 
ENDBRANCH   5   6
ENDBRANCH   1   5
TORSDOF 3
ENDMDL
MODEL 5
REMARK VINA RESULT:      -7.4      1.341      1.795
REMARK SMILES CC(=O)CCc1ccc2c(c1)OCO2
REMARK SMILES IDX 4 1 2 2 1 3 3 4 5 5 6 6 7 7 11 8 8 9 10 10 9 11 12 12 14 13
REMARK SMILES IDX 13 14
REMARK H PARENT
REMARK Flexibility Score: inf
ROOT
ATOM      1  C   UNL     1       5.136   3.147   0.645  1.00  0.00     0.080 C 
ENDROOT
BRANCH   1   2
ATOM      2  C   UNL     1       6.337   3.835   1.193  1.00  0.00     0.130 C 
ATOM      3  C   UNL     1       7.146   4.771   0.367  1.00  0.00     0.087 C 
ATOM      4  O   UNL     1       6.695   3.649   2.345  1.00  0.00    -0.300 OA
ENDBRANCH   1   2
BRANCH   1   5
ATOM      5  C   UNL     1       5.514   2.161  -0.443  1.00  0.00     0.043 C 
BRANCH   5   6
ATOM      6  C   UNL     1       5.999   0.888   0.118  1.00  0.00    -0.044 A 
ATOM      7  C   UNL     1       5.529   0.400   1.343  1.00  0.00     0.008 A 
ATOM      8  C   UNL     1       6.934   0.150  -0.572  1.00  0.00     0.054 A 
ATOM      9  C   UNL     1       6.020  -0.802   1.820  1.00  0.00     0.051 A 
ATOM     10  C   UNL     1       7.426  -1.065  -0.086  1.00  0.00     0.166 A 
ATOM     11  C   UNL     1       6.966  -1.544   1.120  1.00  0.00     0.165 A 
ATOM     12  O   UNL     1       8.344  -1.970  -0.575  1.00  0.00    -0.454 OA
ATOM     13  O   UNL     1       7.616  -2.747   1.348  1.00  0.00    -0.454 OA
ATOM     14  C   UNL     1       8.431  -3.099   0.255  1.00  0.00     0.468 C 
ENDBRANCH   5   6
ENDBRANCH   1   5
TORSDOF 3
ENDMDL
