@<TRIPOS>MOLECULE
/home/cewinharhar/GITHUB/reincatalyze/data/processed/docking_pred/2023-May-22-1902_sub9_nm5_bs15_s42_ex16_mel10_mts1000_k50_ec02_g099_lra9e-4_lrc1e-3/3e742204aaadd08b2af2eabe2bac092cf241077d_ligand_9.pdbqt
 14 15 0 0 0
SMALL
GASTEIGER

@<TRIPOS>ATOM
      1  C          5.5040    1.9230    1.2510 C.3     1  UNL1        0.0800
      2  C          5.0650    0.7110    1.9970 C.2     1  UNL1        0.1300
      3  C          5.9540   -0.4700    2.1610 C.3     1  UNL1        0.0870
      4  O          3.9540    0.6530    2.4990 O.2     1  UNL1       -0.3000
      5  C          5.3800    1.7220   -0.2470 C.3     1  UNL1        0.0430
      6  C          6.5520    1.0220   -0.8030 C.2     1  UNL1       -0.0440
      7  C          7.8570    1.4600   -0.5470 C.2     1  UNL1        0.0080
      8  C          6.3710   -0.0900   -1.5930 C.2     1  UNL1        0.0540
      9  C          8.9180    0.7620   -1.0960 C.2     1  UNL1        0.0510
     10  C          7.4470   -0.7920   -2.1440 C.2     1  UNL1        0.1660
     11  C          8.7310   -0.3620   -1.8940 C.2     1  UNL1        0.1650
     12  O          7.5270   -1.9090   -2.9490 O.2     1  UNL1       -0.4540
     13  O          9.5810   -1.2330   -2.5560 O.2     1  UNL1       -0.4540
     14  C          8.8640   -2.2810   -3.1630 C.3     1  UNL1        0.4680
@<TRIPOS>BOND
     1    14    12    1
     2    14    13    1
     3    12    10    1
     4    13    11    1
     5    10    11    2
     6    10     8    1
     7    11     9    1
     8     8     6    2
     9     9     7    2
    10     6     7    1
    11     6     5    1
    12     5     1    1
    13     1     2    1
    14     2     3    1
    15     2     4    2
