@<TRIPOS>MOLECULE
/home/cewinharhar/GITHUB/reincatalyze/data/processed/docking_pred/2023-May-22-1902_sub9_nm5_bs15_s42_ex16_mel10_mts1000_k50_ec02_g099_lra9e-4_lrc1e-3/40246e00fe273733fff606c0d5025fbb5a6aafa7_ligand_9.pdbqt
 14 15 0 0 0
SMALL
GASTEIGER

@<TRIPOS>ATOM
      1  C          5.5400    1.9260    1.2730 C.3     1  UNL1        0.0800
      2  C          5.1120    0.7080    2.0170 C.2     1  UNL1        0.1300
      3  C          6.0220   -0.4550    2.1990 C.3     1  UNL1        0.0870
      4  O          3.9940    0.6290    2.5000 O.2     1  UNL1       -0.3000
      5  C          5.4070    1.7320   -0.2240 C.3     1  UNL1        0.0430
      6  C          6.5730    1.0300   -0.7900 C.2     1  UNL1       -0.0440
      7  C          7.8810    1.4590   -0.5360 C.2     1  UNL1        0.0080
      8  C          6.3840   -0.0770   -1.5850 C.2     1  UNL1        0.0540
      9  C          8.9370    0.7610   -1.0930 C.2     1  UNL1        0.0510
     10  C          7.4540   -0.7800   -2.1450 C.2     1  UNL1        0.1660
     11  C          8.7410   -0.3580   -1.8980 C.2     1  UNL1        0.1650
     12  O          7.5260   -1.8920   -2.9580 O.2     1  UNL1       -0.4540
     13  O          9.5850   -1.2290   -2.5690 O.2     1  UNL1       -0.4540
     14  C          8.8600   -2.2700   -3.1790 C.3     1  UNL1        0.4680
@<TRIPOS>BOND
     1    14    12    1
     2    14    13    1
     3    12    10    1
     4    13    11    1
     5    10    11    2
     6    10     8    1
     7    11     9    1
     8     8     6    2
     9     9     7    2
    10     6     7    1
    11     6     5    1
    12     5     1    1
    13     1     2    1
    14     2     3    1
    15     2     4    2
