@<TRIPOS>MOLECULE
/home/cewinharhar/GITHUB/reincatalyze/data/processed/docking_pred/2023-May-22-1902_sub9_nm5_bs15_s42_ex16_mel10_mts1000_k50_ec02_g099_lra9e-4_lrc1e-3/40246e00fe273733fff606c0d5025fbb5a6aafa7_ligand_9.pdbqt
 14 15 0 0 0
SMALL
GASTEIGER

@<TRIPOS>ATOM
      1  C          5.4250    2.9120    0.2800 C.3     1  UNL1        0.0800
      2  C          6.3740    3.7410    1.0750 C.2     1  UNL1        0.1300
      3  C          7.2350    4.7710    0.4350 C.3     1  UNL1        0.0870
      4  O          6.4720    3.5970    2.2820 O.2     1  UNL1       -0.3000
      5  C          5.1520    1.5850    0.9590 C.3     1  UNL1        0.0430
      6  C          5.9930    0.5060    0.4100 C.2     1  UNL1       -0.0440
      7  C          6.3830   -0.5880    1.1900 C.2     1  UNL1        0.0080
      8  C          6.4080    0.5660   -0.9010 C.2     1  UNL1        0.0540
      9  C          7.1720   -1.5710    0.6200 C.2     1  UNL1        0.0510
     10  C          7.2050   -0.4310   -1.4720 C.2     1  UNL1        0.1660
     11  C          7.5910   -1.5070   -0.7050 C.2     1  UNL1        0.1650
     12  O          7.7410   -0.5980   -2.7310 O.2     1  UNL1       -0.4540
     13  O          8.3620   -2.3230   -1.5180 O.2     1  UNL1       -0.4540
     14  C          8.4080   -1.8300   -2.8360 C.3     1  UNL1        0.4680
@<TRIPOS>BOND
     1    14    12    1
     2    14    13    1
     3    12    10    1
     4    13    11    1
     5    10     8    1
     6    10    11    2
     7     8     6    2
     8    11     9    1
     9     1     5    1
    10     1     2    1
    11     6     5    1
    12     6     7    1
    13     3     2    1
    14     9     7    2
    15     2     4    2
