@<TRIPOS>MOLECULE
/home/cewinharhar/GITHUB/reincatalyze/data/processed/docking_pred/2023-May-22-1902_sub9_nm5_bs15_s42_ex16_mel10_mts1000_k50_ec02_g099_lra9e-4_lrc1e-3/40246e00fe273733fff606c0d5025fbb5a6aafa7_ligand_9.pdbqt
 14 15 0 0 0
SMALL
GASTEIGER

@<TRIPOS>ATOM
      1  C          5.5000    2.8240    0.2010 C.3     1  UNL1        0.0800
      2  C          6.2820    3.8160    0.9910 C.2     1  UNL1        0.1300
      3  C          7.2140    4.7740    0.3380 C.3     1  UNL1        0.0870
      4  O          6.1790    3.8710    2.2060 O.2     1  UNL1       -0.3000
      5  C          5.8080    1.4060    0.6400 C.3     1  UNL1        0.0430
      6  C          6.8430    0.7850   -0.2050 C.2     1  UNL1       -0.0440
      7  C          8.0830    1.3990   -0.4150 C.2     1  UNL1        0.0080
      8  C          6.5960   -0.4290   -0.8050 C.2     1  UNL1        0.0540
      9  C          9.0170    0.7680   -1.2170 C.2     1  UNL1        0.0510
     10  C          7.5440   -1.0620   -1.6150 C.2     1  UNL1        0.1660
     11  C          8.7640   -0.4590   -1.8220 C.2     1  UNL1        0.1650
     12  O          7.5390   -2.2510   -2.3120 O.2     1  UNL1       -0.4540
     13  O          9.4910   -1.2990   -2.6510 O.2     1  UNL1       -0.4540
     14  C          8.7860   -2.4890   -2.9130 C.3     1  UNL1        0.4680
@<TRIPOS>BOND
     1    14    13    1
     2    14    12    1
     3    13    11    1
     4    12    10    1
     5    11    10    2
     6    11     9    1
     7    10     8    1
     8     9     7    2
     9     8     6    2
    10     7     6    1
    11     6     5    1
    12     1     5    1
    13     1     2    1
    14     3     2    1
    15     2     4    2
