@<TRIPOS>MOLECULE
/home/cewinharhar/GITHUB/reincatalyze/data/processed/docking_pred/2023-May-22-1902_sub9_nm5_bs15_s42_ex16_mel10_mts1000_k50_ec02_g099_lra9e-4_lrc1e-3/40246e00fe273733fff606c0d5025fbb5a6aafa7_ligand_9.pdbqt
 14 15 0 0 0
SMALL
GASTEIGER

@<TRIPOS>ATOM
      1  C          5.7700    1.3640   -0.4380 C.3     1  UNL1        0.0800
      2  C          5.4020    2.6800    0.1530 C.2     1  UNL1        0.1300
      3  C          6.4350    3.6620    0.5780 C.3     1  UNL1        0.0870
      4  O          4.2320    2.9930    0.3070 O.2     1  UNL1       -0.3000
      5  C          7.2530    1.0870   -0.2850 C.3     1  UNL1        0.0430
      6  C          7.6310   -0.2100   -0.8750 C.2     1  UNL1       -0.0440
      7  C          7.7320   -0.3840   -2.2600 C.2     1  UNL1        0.0080
      8  C          7.8950   -1.2820   -0.0530 C.2     1  UNL1        0.0540
      9  C          8.0910   -1.6230   -2.7560 C.2     1  UNL1        0.0510
     10  C          8.2580   -2.5330   -0.5590 C.2     1  UNL1        0.1660
     11  C          8.3570   -2.7050   -1.9220 C.2     1  UNL1        0.1650
     12  O          8.5660   -3.7360    0.0400 O.2     1  UNL1       -0.4540
     13  O          8.7280   -4.0240   -2.1340 O.2     1  UNL1       -0.4540
     14  C          8.9600   -4.6880   -0.9140 C.3     1  UNL1        0.4680
@<TRIPOS>BOND
     1     9     7    1
     2     9    11    2
     3     7     6    2
     4    13    11    1
     5    13    14    1
     6    11    10    1
     7    14    12    1
     8     6     5    1
     9     6     8    1
    10    10     8    2
    11    10    12    1
    12     1     5    1
    13     1     2    1
    14     2     4    2
    15     2     3    1
