@<TRIPOS>MOLECULE
/home/cewinharhar/GITHUB/reincatalyze/data/processed/docking_pred/2023-May-22-1902_sub9_nm5_bs15_s42_ex16_mel10_mts1000_k50_ec02_g099_lra9e-4_lrc1e-3/404021d27c656f8fbd9408a440432f577c9906d0_ligand_9.pdbqt
 14 15 0 0 0
SMALL
GASTEIGER

@<TRIPOS>ATOM
      1  C          6.4910    2.0430    1.4360 C.3     1  UNL1        0.0800
      2  C          6.7850    3.4990    1.5480 C.2     1  UNL1        0.1300
      3  C          6.9130    4.3640    0.3450 C.3     1  UNL1        0.0870
      4  O          6.9310    4.0270    2.6390 O.2     1  UNL1       -0.3000
      5  C          6.0170    1.6830    0.0420 C.3     1  UNL1        0.0430
      6  C          6.6290    0.4310   -0.4370 C.2     1  UNL1       -0.0440
      7  C          6.7880    0.1680   -1.8030 C.2     1  UNL1        0.0080
      8  C          7.0600   -0.5090    0.4710 C.2     1  UNL1        0.0540
      9  C          7.3700   -1.0240   -2.1940 C.2     1  UNL1        0.0510
     10  C          7.6490   -1.7120    0.0710 C.2     1  UNL1        0.1660
     11  C          7.8050   -1.9720   -1.2730 C.2     1  UNL1        0.1650
     12  O          8.1510   -2.7900    0.7680 O.2     1  UNL1       -0.4540
     13  O          8.4070   -3.2160   -1.3730 O.2     1  UNL1       -0.4540
     14  C          8.7260   -3.7310   -0.1020 C.3     1  UNL1        0.4680
@<TRIPOS>BOND
     1     9     7    1
     2     9    11    2
     3     7     6    2
     4    13    11    1
     5    13    14    1
     6    11    10    1
     7     6     5    1
     8     6     8    1
     9    14    12    1
    10     5     1    1
    11    10     8    2
    12    10    12    1
    13     3     2    1
    14     1     2    1
    15     2     4    2
