@<TRIPOS>MOLECULE
/home/cewinharhar/GITHUB/reincatalyze/data/processed/docking_pred/2023-May-22-1902_sub9_nm5_bs15_s42_ex16_mel10_mts1000_k50_ec02_g099_lra9e-4_lrc1e-3/404021d27c656f8fbd9408a440432f577c9906d0_ligand_9.pdbqt
 14 15 0 0 0
SMALL
GASTEIGER

@<TRIPOS>ATOM
      1  C          7.0480    2.1560   -0.3290 C.3     1  UNL1        0.0800
      2  C          6.7940    3.0710    0.8180 C.2     1  UNL1        0.1300
      3  C          6.9390    4.5460    0.6870 C.3     1  UNL1        0.0870
      4  O          6.4570    2.6330    1.9060 O.2     1  UNL1       -0.3000
      5  C          6.0780    0.9910   -0.3300 C.3     1  UNL1        0.0430
      6  C          6.7680   -0.2950   -0.1190 C.2     1  UNL1       -0.0440
      7  C          6.9680   -0.8180    1.1630 C.2     1  UNL1        0.0080
      8  C          7.2270   -1.0070   -1.2030 C.2     1  UNL1        0.0540
      9  C          7.6210   -2.0290    1.2990 C.2     1  UNL1        0.0510
     10  C          7.8860   -2.2320   -1.0610 C.2     1  UNL1        0.1660
     11  C          8.0850   -2.7470    0.2010 C.2     1  UNL1        0.1650
     12  O          8.4300   -3.1180   -1.9670 O.2     1  UNL1       -0.4540
     13  O          8.7530   -3.9510    0.0410 O.2     1  UNL1       -0.4540
     14  C          8.9110   -4.2690   -1.3210 C.3     1  UNL1        0.4680
@<TRIPOS>BOND
     1    12    14    1
     2    12    10    1
     3    14    13    1
     4     8    10    1
     5     8     6    2
     6    10    11    2
     7     5     1    1
     8     5     6    1
     9     1     2    1
    10     6     7    1
    11    13    11    1
    12    11     9    1
    13     3     2    1
    14     2     4    2
    15     7     9    2
