@<TRIPOS>MOLECULE
/home/cewinharhar/GITHUB/reincatalyze/data/processed/docking_pred/2023-May-22-1902_sub9_nm5_bs15_s42_ex16_mel10_mts1000_k50_ec02_g099_lra9e-4_lrc1e-3/404021d27c656f8fbd9408a440432f577c9906d0_ligand_9.pdbqt
 14 15 0 0 0
SMALL
GASTEIGER

@<TRIPOS>ATOM
      1  C          6.3430    1.2370    0.8770 C.3     1  UNL1        0.0800
      2  C          5.6500    0.4210    1.9140 C.2     1  UNL1        0.1300
      3  C          6.2660   -0.8090    2.4790 C.3     1  UNL1        0.0870
      4  O          4.5490    0.7420    2.3310 O.2     1  UNL1       -0.3000
      5  C          5.8340    0.9080   -0.5120 C.3     1  UNL1        0.0430
      6  C          6.8040    0.1000   -1.2730 C.2     1  UNL1       -0.0440
      7  C          7.5250    0.6380   -2.3450 C.2     1  UNL1        0.0080
      8  C          7.0160   -1.2150   -0.9270 C.2     1  UNL1        0.0540
      9  C          8.4230   -0.1680   -3.0210 C.2     1  UNL1        0.0510
     10  C          7.9250   -2.0250   -1.6130 C.2     1  UNL1        0.1660
     11  C          8.6340   -1.4980   -2.6700 C.2     1  UNL1        0.1650
     12  O          8.3080   -3.3420   -1.4660 O.2     1  UNL1       -0.4540
     13  O          9.4470   -2.5110   -3.1530 O.2     1  UNL1       -0.4540
     14  C          9.3380   -3.6700   -2.3620 C.3     1  UNL1        0.4680
@<TRIPOS>BOND
     1    13    11    1
     2    13    14    1
     3     9    11    2
     4     9     7    1
     5    11    10    1
     6    14    12    1
     7     7     6    2
     8    10    12    1
     9    10     8    2
    10     6     8    1
    11     6     5    1
    12     5     1    1
    13     1     2    1
    14     2     4    2
    15     2     3    1
