@<TRIPOS>MOLECULE
/home/cewinharhar/GITHUB/reincatalyze/data/processed/docking_pred/2023-May-22-1902_sub9_nm5_bs15_s42_ex16_mel10_mts1000_k50_ec02_g099_lra9e-4_lrc1e-3/404021d27c656f8fbd9408a440432f577c9906d0_ligand_9.pdbqt
 14 15 0 0 0
SMALL
GASTEIGER

@<TRIPOS>ATOM
      1  C          5.9510    1.5520    1.2410 C.3     1  UNL1        0.0800
      2  C          5.4330    0.4130    2.0490 C.2     1  UNL1        0.1300
      3  C          6.2680   -0.7850    2.3330 C.3     1  UNL1        0.0870
      4  O          4.3010    0.4300    2.5030 O.2     1  UNL1       -0.3000
      5  C          5.7100    1.3320   -0.2390 C.3     1  UNL1        0.0430
      6  C          6.8480    0.6500   -0.8820 C.2     1  UNL1       -0.0440
      7  C          8.1300    1.2100   -0.8890 C.2     1  UNL1        0.0080
      8  C          6.6560   -0.5700   -1.4910 C.2     1  UNL1        0.0540
      9  C          9.1590    0.5240   -1.5060 C.2     1  UNL1        0.0510
     10  C          7.7000   -1.2600   -2.1130 C.2     1  UNL1        0.1660
     11  C          8.9620   -0.7090   -2.1220 C.2     1  UNL1        0.1650
     12  O          7.7640   -2.4670   -2.7780 O.2     1  UNL1       -0.4540
     13  O          9.7840   -1.5980   -2.7970 O.2     1  UNL1       -0.4540
     14  C          9.0850   -2.7670   -3.1510 C.3     1  UNL1        0.4680
@<TRIPOS>BOND
     1    14    13    1
     2    14    12    1
     3    13    11    1
     4    12    10    1
     5    11    10    2
     6    11     9    1
     7    10     8    1
     8     9     7    2
     9     8     6    2
    10     7     6    1
    11     6     5    1
    12     5     1    1
    13     1     2    1
    14     2     3    1
    15     2     4    2
