MODEL 1
REMARK VINA RESULT:      -7.2      0.000      0.000
REMARK SMILES CC(=O)CCc1ccc2c(c1)OCO2
REMARK SMILES IDX 4 1 2 2 1 3 3 4 5 5 6 6 7 7 11 8 8 9 10 10 9 11 12 12 14 13
REMARK SMILES IDX 13 14
REMARK H PARENT
REMARK Flexibility Score: inf
ROOT
ATOM      1  C   UNL     1       5.951   1.552   1.241  1.00  0.00     0.080 C 
ENDROOT
BRANCH   1   2
ATOM      2  C   UNL     1       5.433   0.413   2.049  1.00  0.00     0.130 C 
ATOM      3  C   UNL     1       6.268  -0.785   2.333  1.00  0.00     0.087 C 
ATOM      4  O   UNL     1       4.301   0.430   2.503  1.00  0.00    -0.300 OA
ENDBRANCH   1   2
BRANCH   1   5
ATOM      5  C   UNL     1       5.710   1.332  -0.239  1.00  0.00     0.043 C 
BRANCH   5   6
ATOM      6  C   UNL     1       6.848   0.650  -0.882  1.00  0.00    -0.044 A 
ATOM      7  C   UNL     1       8.130   1.210  -0.889  1.00  0.00     0.008 A 
ATOM      8  C   UNL     1       6.656  -0.570  -1.491  1.00  0.00     0.054 A 
ATOM      9  C   UNL     1       9.159   0.524  -1.506  1.00  0.00     0.051 A 
ATOM     10  C   UNL     1       7.700  -1.260  -2.113  1.00  0.00     0.166 A 
ATOM     11  C   UNL     1       8.962  -0.709  -2.122  1.00  0.00     0.165 A 
ATOM     12  O   UNL     1       7.764  -2.467  -2.778  1.00  0.00    -0.454 OA
ATOM     13  O   UNL     1       9.784  -1.598  -2.797  1.00  0.00    -0.454 OA
ATOM     14  C   UNL     1       9.085  -2.767  -3.151  1.00  0.00     0.468 C 
ENDBRANCH   5   6
ENDBRANCH   1   5
TORSDOF 3
ENDMDL
MODEL 2
REMARK VINA RESULT:      -7.1      1.046      1.057
REMARK SMILES CC(=O)CCc1ccc2c(c1)OCO2
REMARK SMILES IDX 4 1 2 2 1 3 3 4 5 5 6 6 7 7 11 8 8 9 10 10 9 11 12 12 14 13
REMARK SMILES IDX 13 14
REMARK H PARENT
REMARK Flexibility Score: inf
ROOT
ATOM      1  C   UNL     1       6.343   1.237   0.877  1.00  0.00     0.080 C 
ENDROOT
BRANCH   1   2
ATOM      2  C   UNL     1       5.650   0.421   1.914  1.00  0.00     0.130 C 
ATOM      3  C   UNL     1       6.266  -0.809   2.479  1.00  0.00     0.087 C 
ATOM      4  O   UNL     1       4.549   0.742   2.331  1.00  0.00    -0.300 OA
ENDBRANCH   1   2
BRANCH   1   5
ATOM      5  C   UNL     1       5.834   0.908  -0.512  1.00  0.00     0.043 C 
BRANCH   5   6
ATOM      6  C   UNL     1       6.804   0.100  -1.273  1.00  0.00    -0.044 A 
ATOM      7  C   UNL     1       7.525   0.638  -2.345  1.00  0.00     0.008 A 
ATOM      8  C   UNL     1       7.016  -1.215  -0.927  1.00  0.00     0.054 A 
ATOM      9  C   UNL     1       8.423  -0.168  -3.021  1.00  0.00     0.051 A 
ATOM     10  C   UNL     1       7.925  -2.025  -1.613  1.00  0.00     0.166 A 
ATOM     11  C   UNL     1       8.634  -1.498  -2.670  1.00  0.00     0.165 A 
ATOM     12  O   UNL     1       8.308  -3.342  -1.466  1.00  0.00    -0.454 OA
ATOM     13  O   UNL     1       9.447  -2.511  -3.153  1.00  0.00    -0.454 OA
ATOM     14  C   UNL     1       9.338  -3.670  -2.362  1.00  0.00     0.468 C 
ENDBRANCH   5   6
ENDBRANCH   1   5
TORSDOF 3
ENDMDL
MODEL 3
REMARK VINA RESULT:      -7.0      1.769      2.218
REMARK SMILES CC(=O)CCc1ccc2c(c1)OCO2
REMARK SMILES IDX 4 1 2 2 1 3 3 4 5 5 6 6 7 7 11 8 8 9 10 10 9 11 12 12 14 13
REMARK SMILES IDX 13 14
REMARK H PARENT
REMARK Flexibility Score: inf
ROOT
ATOM      1  C   UNL     1       5.965   1.151  -0.203  1.00  0.00     0.080 C 
ENDROOT
BRANCH   1   2
ATOM      2  C   UNL     1       5.908   1.160   1.286  1.00  0.00     0.130 C 
ATOM      3  C   UNL     1       5.351   0.013   2.053  1.00  0.00     0.087 C 
ATOM      4  O   UNL     1       6.318   2.117   1.923  1.00  0.00    -0.300 OA
ENDBRANCH   1   2
BRANCH   1   5
ATOM      5  C   UNL     1       7.398   1.124  -0.698  1.00  0.00     0.043 C 
BRANCH   5   6
ATOM      6  C   UNL     1       7.781  -0.211  -1.188  1.00  0.00    -0.044 A 
ATOM      7  C   UNL     1       7.991  -0.461  -2.549  1.00  0.00     0.008 A 
ATOM      8  C   UNL     1       7.943  -1.245  -0.294  1.00  0.00     0.054 A 
ATOM      9  C   UNL     1       8.350  -1.734  -2.951  1.00  0.00     0.051 A 
ATOM     10  C   UNL     1       8.308  -2.531  -0.705  1.00  0.00     0.166 A 
ATOM     11  C   UNL     1       8.512  -2.778  -2.045  1.00  0.00     0.165 A 
ATOM     12  O   UNL     1       8.527  -3.709  -0.023  1.00  0.00    -0.454 OA
ATOM     13  O   UNL     1       8.858  -4.115  -2.158  1.00  0.00    -0.454 OA
ATOM     14  C   UNL     1       8.968  -4.721  -0.892  1.00  0.00     0.468 C 
ENDBRANCH   5   6
ENDBRANCH   1   5
TORSDOF 3
ENDMDL
MODEL 4
REMARK VINA RESULT:      -6.7      2.258      2.875
REMARK SMILES CC(=O)CCc1ccc2c(c1)OCO2
REMARK SMILES IDX 4 1 2 2 1 3 3 4 5 5 6 6 7 7 11 8 8 9 10 10 9 11 12 12 14 13
REMARK SMILES IDX 13 14
REMARK H PARENT
REMARK Flexibility Score: inf
ROOT
ATOM      1  C   UNL     1       6.491   2.043   1.436  1.00  0.00     0.080 C 
ENDROOT
BRANCH   1   2
ATOM      2  C   UNL     1       6.785   3.499   1.548  1.00  0.00     0.130 C 
ATOM      3  C   UNL     1       6.913   4.364   0.345  1.00  0.00     0.087 C 
ATOM      4  O   UNL     1       6.931   4.027   2.639  1.00  0.00    -0.300 OA
ENDBRANCH   1   2
BRANCH   1   5
ATOM      5  C   UNL     1       6.017   1.683   0.042  1.00  0.00     0.043 C 
BRANCH   5   6
ATOM      6  C   UNL     1       6.629   0.431  -0.437  1.00  0.00    -0.044 A 
ATOM      7  C   UNL     1       6.788   0.168  -1.803  1.00  0.00     0.008 A 
ATOM      8  C   UNL     1       7.060  -0.509   0.471  1.00  0.00     0.054 A 
ATOM      9  C   UNL     1       7.370  -1.024  -2.194  1.00  0.00     0.051 A 
ATOM     10  C   UNL     1       7.649  -1.712   0.071  1.00  0.00     0.166 A 
ATOM     11  C   UNL     1       7.805  -1.972  -1.273  1.00  0.00     0.165 A 
ATOM     12  O   UNL     1       8.151  -2.790   0.768  1.00  0.00    -0.454 OA
ATOM     13  O   UNL     1       8.407  -3.216  -1.373  1.00  0.00    -0.454 OA
ATOM     14  C   UNL     1       8.726  -3.731  -0.102  1.00  0.00     0.468 C 
ENDBRANCH   5   6
ENDBRANCH   1   5
TORSDOF 3
ENDMDL
MODEL 5
REMARK VINA RESULT:      -6.7      2.112      2.914
REMARK SMILES CC(=O)CCc1ccc2c(c1)OCO2
REMARK SMILES IDX 4 1 2 2 1 3 3 4 5 5 6 6 7 7 11 8 8 9 10 10 9 11 12 12 14 13
REMARK SMILES IDX 13 14
REMARK H PARENT
REMARK Flexibility Score: inf
ROOT
ATOM      1  C   UNL     1       7.048   2.156  -0.329  1.00  0.00     0.080 C 
ENDROOT
BRANCH   1   2
ATOM      2  C   UNL     1       6.794   3.071   0.818  1.00  0.00     0.130 C 
ATOM      3  C   UNL     1       6.939   4.546   0.687  1.00  0.00     0.087 C 
ATOM      4  O   UNL     1       6.457   2.633   1.906  1.00  0.00    -0.300 OA
ENDBRANCH   1   2
BRANCH   1   5
ATOM      5  C   UNL     1       6.078   0.991  -0.330  1.00  0.00     0.043 C 
BRANCH   5   6
ATOM      6  C   UNL     1       6.768  -0.295  -0.119  1.00  0.00    -0.044 A 
ATOM      7  C   UNL     1       6.968  -0.818   1.163  1.00  0.00     0.008 A 
ATOM      8  C   UNL     1       7.227  -1.007  -1.203  1.00  0.00     0.054 A 
ATOM      9  C   UNL     1       7.621  -2.029   1.299  1.00  0.00     0.051 A 
ATOM     10  C   UNL     1       7.886  -2.232  -1.061  1.00  0.00     0.166 A 
ATOM     11  C   UNL     1       8.085  -2.747   0.201  1.00  0.00     0.165 A 
ATOM     12  O   UNL     1       8.430  -3.118  -1.967  1.00  0.00    -0.454 OA
ATOM     13  O   UNL     1       8.753  -3.951   0.041  1.00  0.00    -0.454 OA
ATOM     14  C   UNL     1       8.911  -4.269  -1.321  1.00  0.00     0.468 C 
ENDBRANCH   5   6
ENDBRANCH   1   5
TORSDOF 3
ENDMDL
