@<TRIPOS>MOLECULE
/home/cewinharhar/GITHUB/reincatalyze/data/processed/docking_pred/2023-May-22-1902_sub9_nm5_bs15_s42_ex16_mel10_mts1000_k50_ec02_g099_lra9e-4_lrc1e-3/41d0b72e0d67d5e9a3b384f9954b5fa92cfe5642_ligand_9.pdbqt
 14 15 0 0 0
SMALL
GASTEIGER

@<TRIPOS>ATOM
      1  C          5.5600    1.9180    1.2720 C.3     1  UNL1        0.0800
      2  C          5.1170    0.7040    2.0130 C.2     1  UNL1        0.1300
      3  C          6.0160   -0.4670    2.2010 C.3     1  UNL1        0.0870
      4  O          3.9960    0.6340    2.4890 O.2     1  UNL1       -0.3000
      5  C          5.4250    1.7290   -0.2260 C.3     1  UNL1        0.0430
      6  C          6.5880    1.0250   -0.7950 C.2     1  UNL1       -0.0440
      7  C          7.8970    1.4570   -0.5530 C.2     1  UNL1        0.0080
      8  C          6.3940   -0.0870   -1.5820 C.2     1  UNL1        0.0540
      9  C          8.9490    0.7560   -1.1130 C.2     1  UNL1        0.0510
     10  C          7.4620   -0.7930   -2.1450 C.2     1  UNL1        0.1660
     11  C          8.7500   -0.3670   -1.9090 C.2     1  UNL1        0.1650
     12  O          7.5290   -1.9100   -2.9510 O.2     1  UNL1       -0.4540
     13  O          9.5900   -1.2410   -2.5800 O.2     1  UNL1       -0.4540
     14  C          8.8630   -2.2870   -3.1790 C.3     1  UNL1        0.4680
@<TRIPOS>BOND
     1    14    12    1
     2    14    13    1
     3    12    10    1
     4    13    11    1
     5    10    11    2
     6    10     8    1
     7    11     9    1
     8     8     6    2
     9     9     7    2
    10     6     7    1
    11     6     5    1
    12     5     1    1
    13     1     2    1
    14     2     3    1
    15     2     4    2
