MODEL 1
REMARK VINA RESULT:      -8.0      0.000      0.000
REMARK SMILES CC(=O)CCc1ccc2c(c1)OCO2
REMARK SMILES IDX 4 1 2 2 1 3 3 4 5 5 6 6 7 7 11 8 8 9 10 10 9 11 12 12 14 13
REMARK SMILES IDX 13 14
REMARK H PARENT
REMARK Flexibility Score: inf
ROOT
ATOM      1  C   UNL     1       5.442   2.924   0.076  1.00  0.00     0.080 C 
ENDROOT
BRANCH   1   2
ATOM      2  C   UNL     1       6.301   3.790   0.931  1.00  0.00     0.130 C 
ATOM      3  C   UNL     1       7.249   4.774   0.342  1.00  0.00     0.087 C 
ATOM      4  O   UNL     1       6.251   3.717   2.148  1.00  0.00    -0.300 OA
ENDBRANCH   1   2
BRANCH   1   5
ATOM      5  C   UNL     1       5.130   1.609   0.763  1.00  0.00     0.043 C 
BRANCH   5   6
ATOM      6  C   UNL     1       5.978   0.515   0.256  1.00  0.00    -0.044 A 
ATOM      7  C   UNL     1       6.321  -0.579   1.060  1.00  0.00     0.008 A 
ATOM      8  C   UNL     1       6.446   0.557  -1.038  1.00  0.00     0.054 A 
ATOM      9  C   UNL     1       7.119  -1.577   0.530  1.00  0.00     0.051 A 
ATOM     10  C   UNL     1       7.251  -0.455  -1.569  1.00  0.00     0.166 A 
ATOM     11  C   UNL     1       7.591  -1.530  -0.778  1.00  0.00     0.165 A 
ATOM     12  O   UNL     1       7.834  -0.641  -2.804  1.00  0.00    -0.454 OA
ATOM     13  O   UNL     1       8.382  -2.363  -1.553  1.00  0.00    -0.454 OA
ATOM     14  C   UNL     1       8.487  -1.883  -2.872  1.00  0.00     0.468 C 
ENDBRANCH   5   6
ENDBRANCH   1   5
TORSDOF 3
ENDMDL
MODEL 2
REMARK VINA RESULT:      -7.9      0.996      1.992
REMARK SMILES CC(=O)CCc1ccc2c(c1)OCO2
REMARK SMILES IDX 4 1 2 2 1 3 3 4 5 5 6 6 7 7 11 8 8 9 10 10 9 11 12 12 14 13
REMARK SMILES IDX 13 14
REMARK H PARENT
REMARK Flexibility Score: inf
ROOT
ATOM      1  C   UNL     1       5.408   2.956   0.077  1.00  0.00     0.080 C 
ENDROOT
BRANCH   1   2
ATOM      2  C   UNL     1       6.279   3.810   0.933  1.00  0.00     0.130 C 
ATOM      3  C   UNL     1       7.248   4.773   0.345  1.00  0.00     0.087 C 
ATOM      4  O   UNL     1       6.222   3.742   2.150  1.00  0.00    -0.300 OA
ENDBRANCH   1   2
BRANCH   1   5
ATOM      5  C   UNL     1       5.116   1.626   0.743  1.00  0.00     0.043 C 
BRANCH   5   6
ATOM      6  C   UNL     1       5.967   0.548   0.208  1.00  0.00    -0.044 A 
ATOM      7  C   UNL     1       6.368   0.529  -1.132  1.00  0.00     0.008 A 
ATOM      8  C   UNL     1       6.385  -0.467   1.039  1.00  0.00     0.054 A 
ATOM      9  C   UNL     1       7.168  -0.508  -1.578  1.00  0.00     0.051 A 
ATOM     10  C   UNL     1       7.194  -1.512   0.583  1.00  0.00     0.166 A 
ATOM     11  C   UNL     1       7.588  -1.533  -0.736  1.00  0.00     0.165 A 
ATOM     12  O   UNL     1       7.733  -2.621   1.201  1.00  0.00    -0.454 OA
ATOM     13  O   UNL     1       8.370  -2.665  -0.903  1.00  0.00    -0.454 OA
ATOM     14  C   UNL     1       8.563  -3.335   0.320  1.00  0.00     0.468 C 
ENDBRANCH   5   6
ENDBRANCH   1   5
TORSDOF 3
ENDMDL
MODEL 3
REMARK VINA RESULT:      -7.6      1.879      2.623
REMARK SMILES CC(=O)CCc1ccc2c(c1)OCO2
REMARK SMILES IDX 4 1 2 2 1 3 3 4 5 5 6 6 7 7 11 8 8 9 10 10 9 11 12 12 14 13
REMARK SMILES IDX 13 14
REMARK H PARENT
REMARK Flexibility Score: inf
ROOT
ATOM      1  C   UNL     1       5.560   1.918   1.272  1.00  0.00     0.080 C 
ENDROOT
BRANCH   1   2
ATOM      2  C   UNL     1       5.117   0.704   2.013  1.00  0.00     0.130 C 
ATOM      3  C   UNL     1       6.016  -0.467   2.201  1.00  0.00     0.087 C 
ATOM      4  O   UNL     1       3.996   0.634   2.489  1.00  0.00    -0.300 OA
ENDBRANCH   1   2
BRANCH   1   5
ATOM      5  C   UNL     1       5.425   1.729  -0.226  1.00  0.00     0.043 C 
BRANCH   5   6
ATOM      6  C   UNL     1       6.588   1.025  -0.795  1.00  0.00    -0.044 A 
ATOM      7  C   UNL     1       7.897   1.457  -0.553  1.00  0.00     0.008 A 
ATOM      8  C   UNL     1       6.394  -0.087  -1.582  1.00  0.00     0.054 A 
ATOM      9  C   UNL     1       8.949   0.756  -1.113  1.00  0.00     0.051 A 
ATOM     10  C   UNL     1       7.462  -0.793  -2.145  1.00  0.00     0.166 A 
ATOM     11  C   UNL     1       8.750  -0.367  -1.909  1.00  0.00     0.165 A 
ATOM     12  O   UNL     1       7.529  -1.910  -2.951  1.00  0.00    -0.454 OA
ATOM     13  O   UNL     1       9.590  -1.241  -2.580  1.00  0.00    -0.454 OA
ATOM     14  C   UNL     1       8.863  -2.287  -3.179  1.00  0.00     0.468 C 
ENDBRANCH   5   6
ENDBRANCH   1   5
TORSDOF 3
ENDMDL
MODEL 4
REMARK VINA RESULT:      -7.5      1.957      3.006
REMARK SMILES CC(=O)CCc1ccc2c(c1)OCO2
REMARK SMILES IDX 4 1 2 2 1 3 3 4 5 5 6 6 7 7 11 8 8 9 10 10 9 11 12 12 14 13
REMARK SMILES IDX 13 14
REMARK H PARENT
REMARK Flexibility Score: inf
ROOT
ATOM      1  C   UNL     1       5.756   1.378  -0.338  1.00  0.00     0.080 C 
ENDROOT
BRANCH   1   2
ATOM      2  C   UNL     1       5.122   1.308   1.009  1.00  0.00     0.130 C 
ATOM      3  C   UNL     1       5.410   0.194   1.950  1.00  0.00     0.087 C 
ATOM      4  O   UNL     1       4.342   2.171   1.380  1.00  0.00    -0.300 OA
ENDBRANCH   1   2
BRANCH   1   5
ATOM      5  C   UNL     1       7.248   1.126  -0.258  1.00  0.00     0.043 C 
BRANCH   5   6
ATOM      6  C   UNL     1       7.617  -0.165  -0.865  1.00  0.00    -0.044 A 
ATOM      7  C   UNL     1       7.692  -0.328  -2.253  1.00  0.00     0.008 A 
ATOM      8  C   UNL     1       7.900  -1.243  -0.056  1.00  0.00     0.054 A 
ATOM      9  C   UNL     1       8.045  -1.563  -2.765  1.00  0.00     0.051 A 
ATOM     10  C   UNL     1       8.257  -2.490  -0.580  1.00  0.00     0.166 A 
ATOM     11  C   UNL     1       8.329  -2.651  -1.945  1.00  0.00     0.165 A 
ATOM     12  O   UNL     1       8.579  -3.696   0.004  1.00  0.00    -0.454 OA
ATOM     13  O   UNL     1       8.699  -3.967  -2.174  1.00  0.00    -0.454 OA
ATOM     14  C   UNL     1       8.956  -4.640  -0.965  1.00  0.00     0.468 C 
ENDBRANCH   5   6
ENDBRANCH   1   5
TORSDOF 3
ENDMDL
MODEL 5
REMARK VINA RESULT:      -7.5      1.122      1.522
REMARK SMILES CC(=O)CCc1ccc2c(c1)OCO2
REMARK SMILES IDX 4 1 2 2 1 3 3 4 5 5 6 6 7 7 11 8 8 9 10 10 9 11 12 12 14 13
REMARK SMILES IDX 13 14
REMARK H PARENT
REMARK Flexibility Score: inf
ROOT
ATOM      1  C   UNL     1       5.427   2.910   0.363  1.00  0.00     0.080 C 
ENDROOT
BRANCH   1   2
ATOM      2  C   UNL     1       6.243   3.900   1.120  1.00  0.00     0.130 C 
ATOM      3  C   UNL     1       7.236   4.775   0.441  1.00  0.00     0.087 C 
ATOM      4  O   UNL     1       6.119   4.022   2.328  1.00  0.00    -0.300 OA
ENDBRANCH   1   2
BRANCH   1   5
ATOM      5  C   UNL     1       5.745   1.492   0.793  1.00  0.00     0.043 C 
BRANCH   5   6
ATOM      6  C   UNL     1       6.755   0.870  -0.082  1.00  0.00    -0.044 A 
ATOM      7  C   UNL     1       8.021   1.440  -0.260  1.00  0.00     0.008 A 
ATOM      8  C   UNL     1       6.458  -0.300  -0.743  1.00  0.00     0.054 A 
ATOM      9  C   UNL     1       8.929   0.811  -1.093  1.00  0.00     0.051 A 
ATOM     10  C   UNL     1       7.379  -0.933  -1.583  1.00  0.00     0.166 A 
ATOM     11  C   UNL     1       8.625  -0.372  -1.760  1.00  0.00     0.165 A 
ATOM     12  O   UNL     1       7.325  -2.084  -2.340  1.00  0.00    -0.454 OA
ATOM     13  O   UNL     1       9.317  -1.200  -2.630  1.00  0.00    -0.454 OA
ATOM     14  C   UNL     1       8.562  -2.344  -2.951  1.00  0.00     0.468 C 
ENDBRANCH   5   6
ENDBRANCH   1   5
TORSDOF 3
ENDMDL
