@<TRIPOS>MOLECULE
/home/cewinharhar/GITHUB/reincatalyze/data/processed/docking_pred/2023-May-22-1902_sub9_nm5_bs15_s42_ex16_mel10_mts1000_k50_ec02_g099_lra9e-4_lrc1e-3/41d0b72e0d67d5e9a3b384f9954b5fa92cfe5642_ligand_9.pdbqt
 14 15 0 0 0
SMALL
GASTEIGER

@<TRIPOS>ATOM
      1  C          5.7560    1.3780   -0.3380 C.3     1  UNL1        0.0800
      2  C          5.1220    1.3080    1.0090 C.2     1  UNL1        0.1300
      3  C          5.4100    0.1940    1.9500 C.3     1  UNL1        0.0870
      4  O          4.3420    2.1710    1.3800 O.2     1  UNL1       -0.3000
      5  C          7.2480    1.1260   -0.2580 C.3     1  UNL1        0.0430
      6  C          7.6170   -0.1650   -0.8650 C.2     1  UNL1       -0.0440
      7  C          7.6920   -0.3280   -2.2530 C.2     1  UNL1        0.0080
      8  C          7.9000   -1.2430   -0.0560 C.2     1  UNL1        0.0540
      9  C          8.0450   -1.5630   -2.7650 C.2     1  UNL1        0.0510
     10  C          8.2570   -2.4900   -0.5800 C.2     1  UNL1        0.1660
     11  C          8.3290   -2.6510   -1.9450 C.2     1  UNL1        0.1650
     12  O          8.5790   -3.6960    0.0040 O.2     1  UNL1       -0.4540
     13  O          8.6990   -3.9670   -2.1740 O.2     1  UNL1       -0.4540
     14  C          8.9560   -4.6400   -0.9650 C.3     1  UNL1        0.4680
@<TRIPOS>BOND
     1     9     7    1
     2     9    11    2
     3     7     6    2
     4    13    11    1
     5    13    14    1
     6    11    10    1
     7    14    12    1
     8     6     5    1
     9     6     8    1
    10    10     8    2
    11    10    12    1
    12     1     5    1
    13     1     2    1
    14     2     4    2
    15     2     3    1
