@<TRIPOS>MOLECULE
/home/cewinharhar/GITHUB/reincatalyze/data/processed/docking_pred/2023-May-22-1902_sub9_nm5_bs15_s42_ex16_mel10_mts1000_k50_ec02_g099_lra9e-4_lrc1e-3/41d0b72e0d67d5e9a3b384f9954b5fa92cfe5642_ligand_9.pdbqt
 14 15 0 0 0
SMALL
GASTEIGER

@<TRIPOS>ATOM
      1  C          5.4420    2.9240    0.0760 C.3     1  UNL1        0.0800
      2  C          6.3010    3.7900    0.9310 C.2     1  UNL1        0.1300
      3  C          7.2490    4.7740    0.3420 C.3     1  UNL1        0.0870
      4  O          6.2510    3.7170    2.1480 O.2     1  UNL1       -0.3000
      5  C          5.1300    1.6090    0.7630 C.3     1  UNL1        0.0430
      6  C          5.9780    0.5150    0.2560 C.2     1  UNL1       -0.0440
      7  C          6.3210   -0.5790    1.0600 C.2     1  UNL1        0.0080
      8  C          6.4460    0.5570   -1.0380 C.2     1  UNL1        0.0540
      9  C          7.1190   -1.5770    0.5300 C.2     1  UNL1        0.0510
     10  C          7.2510   -0.4550   -1.5690 C.2     1  UNL1        0.1660
     11  C          7.5910   -1.5300   -0.7780 C.2     1  UNL1        0.1650
     12  O          7.8340   -0.6410   -2.8040 O.2     1  UNL1       -0.4540
     13  O          8.3820   -2.3630   -1.5530 O.2     1  UNL1       -0.4540
     14  C          8.4870   -1.8830   -2.8720 C.3     1  UNL1        0.4680
@<TRIPOS>BOND
     1    14    12    1
     2    14    13    1
     3    12    10    1
     4    10     8    1
     5    10    11    2
     6    13    11    1
     7     8     6    2
     8    11     9    1
     9     1     5    1
    10     1     2    1
    11     6     5    1
    12     6     7    1
    13     3     2    1
    14     9     7    2
    15     2     4    2
