@<TRIPOS>MOLECULE
/home/cewinharhar/GITHUB/reincatalyze/data/processed/docking_pred/2023-May-22-1902_sub9_nm5_bs15_s42_ex16_mel10_mts1000_k50_ec02_g099_lra9e-4_lrc1e-3/42234a6127519c7502e2f6bf4b16ee47cf11c698_ligand_9.pdbqt
 14 15 0 0 0
SMALL
GASTEIGER

@<TRIPOS>ATOM
      1  C          5.7430    1.3140   -0.3700 C.3     1  UNL1        0.0800
      2  C          5.1310    1.3030    0.9890 C.2     1  UNL1        0.1300
      3  C          5.3260    0.1620    1.9230 C.3     1  UNL1        0.0870
      4  O          4.4480    2.2370    1.3760 O.2     1  UNL1       -0.3000
      5  C          7.2390    1.0810   -0.3020 C.3     1  UNL1        0.0430
      6  C          7.6180   -0.2140   -0.8950 C.2     1  UNL1       -0.0440
      7  C          7.6960   -0.3900   -2.2810 C.2     1  UNL1        0.0080
      8  C          7.9060   -1.2810   -0.0760 C.2     1  UNL1        0.0540
      9  C          8.0580   -1.6270   -2.7810 C.2     1  UNL1        0.0510
     10  C          8.2720   -2.5310   -0.5860 C.2     1  UNL1        0.1660
     11  C          8.3480   -2.7050   -1.9500 C.2     1  UNL1        0.1650
     12  O          8.6010   -3.7290    0.0100 O.2     1  UNL1       -0.4540
     13  O          8.7280   -4.0210   -2.1660 O.2     1  UNL1       -0.4540
     14  C          8.9870   -4.6800   -0.9490 C.3     1  UNL1        0.4680
@<TRIPOS>BOND
     1     9     7    1
     2     9    11    2
     3     7     6    2
     4    13    11    1
     5    13    14    1
     6    11    10    1
     7    14    12    1
     8     6     5    1
     9     6     8    1
    10    10     8    2
    11    10    12    1
    12     1     5    1
    13     1     2    1
    14     2     4    2
    15     2     3    1
