MODEL 1
REMARK VINA RESULT:      -7.8      0.000      0.000
REMARK SMILES CC(=O)CCc1ccc2c(c1)OCO2
REMARK SMILES IDX 4 1 2 2 1 3 3 4 5 5 6 6 7 7 11 8 8 9 10 10 9 11 12 12 14 13
REMARK SMILES IDX 13 14
REMARK H PARENT
REMARK Flexibility Score: inf
ROOT
ATOM      1  C   UNL     1       5.482   2.894   0.210  1.00  0.00     0.080 C 
ENDROOT
BRANCH   1   2
ATOM      2  C   UNL     1       6.290   3.872   0.991  1.00  0.00     0.130 C 
ATOM      3  C   UNL     1       7.272   4.775   0.334  1.00  0.00     0.087 C 
ATOM      4  O   UNL     1       6.168   3.959   2.203  1.00  0.00    -0.300 OA
ENDBRANCH   1   2
BRANCH   1   5
ATOM      5  C   UNL     1       5.334   1.582   0.956  1.00  0.00     0.043 C 
BRANCH   5   6
ATOM      6  C   UNL     1       6.112   0.503   0.322  1.00  0.00    -0.044 A 
ATOM      7  C   UNL     1       6.401   0.514  -1.047  1.00  0.00     0.008 A 
ATOM      8  C   UNL     1       6.572  -0.545   1.086  1.00  0.00     0.054 A 
ATOM      9  C   UNL     1       7.136  -0.526  -1.587  1.00  0.00     0.051 A 
ATOM     10  C   UNL     1       7.315  -1.594   0.536  1.00  0.00     0.166 A 
ATOM     11  C   UNL     1       7.599  -1.584  -0.811  1.00  0.00     0.165 A 
ATOM     12  O   UNL     1       7.876  -2.732   1.076  1.00  0.00    -0.454 OA
ATOM     13  O   UNL     1       8.337  -2.728  -1.073  1.00  0.00    -0.454 OA
ATOM     14  C   UNL     1       8.613  -3.437   0.111  1.00  0.00     0.468 C 
ENDBRANCH   5   6
ENDBRANCH   1   5
TORSDOF 3
ENDMDL
MODEL 2
REMARK VINA RESULT:      -7.7      2.397      3.037
REMARK SMILES CC(=O)CCc1ccc2c(c1)OCO2
REMARK SMILES IDX 4 1 2 2 1 3 3 4 5 5 6 6 7 7 11 8 8 9 10 10 9 11 12 12 14 13
REMARK SMILES IDX 13 14
REMARK H PARENT
REMARK Flexibility Score: inf
ROOT
ATOM      1  C   UNL     1       5.530   1.925   1.274  1.00  0.00     0.080 C 
ENDROOT
BRANCH   1   2
ATOM      2  C   UNL     1       5.085   0.707   2.008  1.00  0.00     0.130 C 
ATOM      3  C   UNL     1       5.975  -0.473   2.174  1.00  0.00     0.087 C 
ATOM      4  O   UNL     1       3.969   0.643   2.498  1.00  0.00    -0.300 OA
ENDBRANCH   1   2
BRANCH   1   5
ATOM      5  C   UNL     1       5.401   1.741  -0.225  1.00  0.00     0.043 C 
BRANCH   5   6
ATOM      6  C   UNL     1       6.567   1.039  -0.791  1.00  0.00    -0.044 A 
ATOM      7  C   UNL     1       7.874   1.475  -0.549  1.00  0.00     0.008 A 
ATOM      8  C   UNL     1       6.377  -0.075  -1.577  1.00  0.00     0.054 A 
ATOM      9  C   UNL     1       8.929   0.776  -1.106  1.00  0.00     0.051 A 
ATOM     10  C   UNL     1       7.447  -0.779  -2.138  1.00  0.00     0.166 A 
ATOM     11  C   UNL     1       8.734  -0.349  -1.900  1.00  0.00     0.165 A 
ATOM     12  O   UNL     1       7.518  -1.897  -2.941  1.00  0.00    -0.454 OA
ATOM     13  O   UNL     1       9.577  -1.222  -2.569  1.00  0.00    -0.454 OA
ATOM     14  C   UNL     1       8.853  -2.271  -3.167  1.00  0.00     0.468 C 
ENDBRANCH   5   6
ENDBRANCH   1   5
TORSDOF 3
ENDMDL
MODEL 3
REMARK VINA RESULT:      -7.6      1.644      1.932
REMARK SMILES CC(=O)CCc1ccc2c(c1)OCO2
REMARK SMILES IDX 4 1 2 2 1 3 3 4 5 5 6 6 7 7 11 8 8 9 10 10 9 11 12 12 14 13
REMARK SMILES IDX 13 14
REMARK H PARENT
REMARK Flexibility Score: inf
ROOT
ATOM      1  C   UNL     1       5.443   2.912   0.084  1.00  0.00     0.080 C 
ENDROOT
BRANCH   1   2
ATOM      2  C   UNL     1       6.224   3.838   0.951  1.00  0.00     0.130 C 
ATOM      3  C   UNL     1       7.232   4.774   0.384  1.00  0.00     0.087 C 
ATOM      4  O   UNL     1       6.058   3.855   2.160  1.00  0.00    -0.300 OA
ENDBRANCH   1   2
BRANCH   1   5
ATOM      5  C   UNL     1       5.658   1.467   0.489  1.00  0.00     0.043 C 
BRANCH   5   6
ATOM      6  C   UNL     1       6.727   0.831  -0.302  1.00  0.00    -0.044 A 
ATOM      7  C   UNL     1       7.996   1.410  -0.419  1.00  0.00     0.008 A 
ATOM      8  C   UNL     1       6.483  -0.361  -0.945  1.00  0.00     0.054 A 
ATOM      9  C   UNL     1       8.960   0.767  -1.174  1.00  0.00     0.051 A 
ATOM     10  C   UNL     1       7.461  -1.008  -1.706  1.00  0.00     0.166 A 
ATOM     11  C   UNL     1       8.709  -0.438  -1.822  1.00  0.00     0.165 A 
ATOM     12  O   UNL     1       7.465  -2.181  -2.430  1.00  0.00    -0.454 OA
ATOM     13  O   UNL     1       9.462  -1.283  -2.622  1.00  0.00    -0.454 OA
ATOM     14  C   UNL     1       8.741  -2.445  -2.955  1.00  0.00     0.468 C 
ENDBRANCH   5   6
ENDBRANCH   1   5
TORSDOF 3
ENDMDL
MODEL 4
REMARK VINA RESULT:      -7.6      1.005      1.989
REMARK SMILES CC(=O)CCc1ccc2c(c1)OCO2
REMARK SMILES IDX 4 1 2 2 1 3 3 4 5 5 6 6 7 7 11 8 8 9 10 10 9 11 12 12 14 13
REMARK SMILES IDX 13 14
REMARK H PARENT
REMARK Flexibility Score: inf
ROOT
ATOM      1  C   UNL     1       5.529   2.838   0.439  1.00  0.00     0.080 C 
ENDROOT
BRANCH   1   2
ATOM      2  C   UNL     1       6.365   3.860   1.128  1.00  0.00     0.130 C 
ATOM      3  C   UNL     1       7.261   4.775   0.372  1.00  0.00     0.087 C 
ATOM      4  O   UNL     1       6.338   3.976   2.343  1.00  0.00    -0.300 OA
ENDBRANCH   1   2
BRANCH   1   5
ATOM      5  C   UNL     1       5.477   1.545   1.229  1.00  0.00     0.043 C 
BRANCH   5   6
ATOM      6  C   UNL     1       6.229   0.467   0.563  1.00  0.00    -0.044 A 
ATOM      7  C   UNL     1       6.561  -0.717   1.232  1.00  0.00     0.008 A 
ATOM      8  C   UNL     1       6.619   0.616  -0.749  1.00  0.00     0.054 A 
ATOM      9  C   UNL     1       7.268  -1.694   0.556  1.00  0.00     0.051 A 
ATOM     10  C   UNL     1       7.333  -0.375  -1.428  1.00  0.00     0.166 A 
ATOM     11  C   UNL     1       7.661  -1.540  -0.770  1.00  0.00     0.165 A 
ATOM     12  O   UNL     1       7.828  -0.464  -2.712  1.00  0.00    -0.454 OA
ATOM     13  O   UNL     1       8.356  -2.328  -1.673  1.00  0.00    -0.454 OA
ATOM     14  C   UNL     1       8.406  -1.723  -2.943  1.00  0.00     0.468 C 
ENDBRANCH   5   6
ENDBRANCH   1   5
TORSDOF 3
ENDMDL
MODEL 5
REMARK VINA RESULT:      -7.5      1.810      2.399
REMARK SMILES CC(=O)CCc1ccc2c(c1)OCO2
REMARK SMILES IDX 4 1 2 2 1 3 3 4 5 5 6 6 7 7 11 8 8 9 10 10 9 11 12 12 14 13
REMARK SMILES IDX 13 14
REMARK H PARENT
REMARK Flexibility Score: inf
ROOT
ATOM      1  C   UNL     1       5.743   1.314  -0.370  1.00  0.00     0.080 C 
ENDROOT
BRANCH   1   2
ATOM      2  C   UNL     1       5.131   1.303   0.989  1.00  0.00     0.130 C 
ATOM      3  C   UNL     1       5.326   0.162   1.923  1.00  0.00     0.087 C 
ATOM      4  O   UNL     1       4.448   2.237   1.376  1.00  0.00    -0.300 OA
ENDBRANCH   1   2
BRANCH   1   5
ATOM      5  C   UNL     1       7.239   1.081  -0.302  1.00  0.00     0.043 C 
BRANCH   5   6
ATOM      6  C   UNL     1       7.618  -0.214  -0.895  1.00  0.00    -0.044 A 
ATOM      7  C   UNL     1       7.696  -0.390  -2.281  1.00  0.00     0.008 A 
ATOM      8  C   UNL     1       7.906  -1.281  -0.076  1.00  0.00     0.054 A 
ATOM      9  C   UNL     1       8.058  -1.627  -2.781  1.00  0.00     0.051 A 
ATOM     10  C   UNL     1       8.272  -2.531  -0.586  1.00  0.00     0.166 A 
ATOM     11  C   UNL     1       8.348  -2.705  -1.950  1.00  0.00     0.165 A 
ATOM     12  O   UNL     1       8.601  -3.729   0.010  1.00  0.00    -0.454 OA
ATOM     13  O   UNL     1       8.728  -4.021  -2.166  1.00  0.00    -0.454 OA
ATOM     14  C   UNL     1       8.987  -4.680  -0.949  1.00  0.00     0.468 C 
ENDBRANCH   5   6
ENDBRANCH   1   5
TORSDOF 3
ENDMDL
