@<TRIPOS>MOLECULE
/home/cewinharhar/GITHUB/reincatalyze/data/processed/docking_pred/2023-May-22-1902_sub9_nm5_bs15_s42_ex16_mel10_mts1000_k50_ec02_g099_lra9e-4_lrc1e-3/42234a6127519c7502e2f6bf4b16ee47cf11c698_ligand_9.pdbqt
 14 15 0 0 0
SMALL
GASTEIGER

@<TRIPOS>ATOM
      1  C          5.5290    2.8380    0.4390 C.3     1  UNL1        0.0800
      2  C          6.3650    3.8600    1.1280 C.2     1  UNL1        0.1300
      3  C          7.2610    4.7750    0.3720 C.3     1  UNL1        0.0870
      4  O          6.3380    3.9760    2.3430 O.2     1  UNL1       -0.3000
      5  C          5.4770    1.5450    1.2290 C.3     1  UNL1        0.0430
      6  C          6.2290    0.4670    0.5630 C.2     1  UNL1       -0.0440
      7  C          6.5610   -0.7170    1.2320 C.2     1  UNL1        0.0080
      8  C          6.6190    0.6160   -0.7490 C.2     1  UNL1        0.0540
      9  C          7.2680   -1.6940    0.5560 C.2     1  UNL1        0.0510
     10  C          7.3330   -0.3750   -1.4280 C.2     1  UNL1        0.1660
     11  C          7.6610   -1.5400   -0.7700 C.2     1  UNL1        0.1650
     12  O          7.8280   -0.4640   -2.7120 O.2     1  UNL1       -0.4540
     13  O          8.3560   -2.3280   -1.6730 O.2     1  UNL1       -0.4540
     14  C          8.4060   -1.7230   -2.9430 C.3     1  UNL1        0.4680
@<TRIPOS>BOND
     1    14    12    1
     2    14    13    1
     3    12    10    1
     4    13    11    1
     5    10    11    2
     6    10     8    1
     7    11     9    1
     8     8     6    2
     9     3     2    1
    10     1     2    1
    11     1     5    1
    12     9     7    2
    13     6     5    1
    14     6     7    1
    15     2     4    2
