@<TRIPOS>MOLECULE
/home/cewinharhar/GITHUB/reincatalyze/data/processed/docking_pred/2023-May-22-1902_sub9_nm5_bs15_s42_ex16_mel10_mts1000_k50_ec02_g099_lra9e-4_lrc1e-3/42234a6127519c7502e2f6bf4b16ee47cf11c698_ligand_9.pdbqt
 14 15 0 0 0
SMALL
GASTEIGER

@<TRIPOS>ATOM
      1  C          5.4430    2.9120    0.0840 C.3     1  UNL1        0.0800
      2  C          6.2240    3.8380    0.9510 C.2     1  UNL1        0.1300
      3  C          7.2320    4.7740    0.3840 C.3     1  UNL1        0.0870
      4  O          6.0580    3.8550    2.1600 O.2     1  UNL1       -0.3000
      5  C          5.6580    1.4670    0.4890 C.3     1  UNL1        0.0430
      6  C          6.7270    0.8310   -0.3020 C.2     1  UNL1       -0.0440
      7  C          7.9960    1.4100   -0.4190 C.2     1  UNL1        0.0080
      8  C          6.4830   -0.3610   -0.9450 C.2     1  UNL1        0.0540
      9  C          8.9600    0.7670   -1.1740 C.2     1  UNL1        0.0510
     10  C          7.4610   -1.0080   -1.7060 C.2     1  UNL1        0.1660
     11  C          8.7090   -0.4380   -1.8220 C.2     1  UNL1        0.1650
     12  O          7.4650   -2.1810   -2.4300 O.2     1  UNL1       -0.4540
     13  O          9.4620   -1.2830   -2.6220 O.2     1  UNL1       -0.4540
     14  C          8.7410   -2.4450   -2.9550 C.3     1  UNL1        0.4680
@<TRIPOS>BOND
     1    14    13    1
     2    14    12    1
     3    13    11    1
     4    12    10    1
     5    11    10    2
     6    11     9    1
     7    10     8    1
     8     9     7    2
     9     8     6    2
    10     7     6    1
    11     6     5    1
    12     1     5    1
    13     1     2    1
    14     3     2    1
    15     2     4    2
