@<TRIPOS>MOLECULE
/home/cewinharhar/GITHUB/reincatalyze/data/processed/docking_pred/2023-May-22-1902_sub9_nm5_bs15_s42_ex16_mel10_mts1000_k50_ec02_g099_lra9e-4_lrc1e-3/4295960a5818388fac6ce93a10a8a6662c8ec52f_ligand_9.pdbqt
 14 15 0 0 0
SMALL
GASTEIGER

@<TRIPOS>ATOM
      1  C          5.4030    1.3680    0.5280 C.3     1  UNL1        0.0800
      2  C          5.1390    0.4600    1.6790 C.2     1  UNL1        0.1300
      3  C          5.8500   -0.8380    1.8290 C.3     1  UNL1        0.0870
      4  O          4.3250    0.7580    2.5380 O.2     1  UNL1       -0.3000
      5  C          6.4680    2.3920    0.8660 C.3     1  UNL1        0.0430
      6  C          7.8200    1.8080    0.8250 C.2     1  UNL1       -0.0440
      7  C          8.3630    1.3000   -0.3610 C.2     1  UNL1        0.0080
      8  C          8.5780    1.7590    1.9730 C.2     1  UNL1        0.0540
      9  C          9.6380    0.7650   -0.3400 C.2     1  UNL1        0.0510
     10  C          9.8670    1.2180    1.9890 C.2     1  UNL1        0.1660
     11  C         10.4010    0.7170    0.8230 C.2     1  UNL1        0.1650
     12  O         10.8060    1.0560    2.9850 O.2     1  UNL1       -0.4540
     13  O         11.6710    0.2530    1.1310 O.2     1  UNL1       -0.4540
     14  C         12.0020    0.5300    2.4700 C.3     1  UNL1        0.4680
@<TRIPOS>BOND
     1     7     9    1
     2     7     6    2
     3     9    11    2
     4     1     5    1
     5     1     2    1
     6    11    13    1
     7    11    10    1
     8     6     5    1
     9     6     8    1
    10    13    14    1
    11     2     3    1
    12     2     4    2
    13     8    10    2
    14    10    12    1
    15    14    12    1
