@<TRIPOS>MOLECULE
/home/cewinharhar/GITHUB/reincatalyze/data/processed/docking_pred/2023-May-22-1902_sub9_nm5_bs15_s42_ex16_mel10_mts1000_k50_ec02_g099_lra9e-4_lrc1e-3/4295960a5818388fac6ce93a10a8a6662c8ec52f_ligand_9.pdbqt
 14 15 0 0 0
SMALL
GASTEIGER

@<TRIPOS>ATOM
      1  C          5.7450    3.2170    0.1940 C.3     1  UNL1        0.0800
      2  C          6.5740    3.7630    1.3040 C.2     1  UNL1        0.1300
      3  C          8.0420    3.5350    1.3680 C.3     1  UNL1        0.0870
      4  O          6.0670    4.4170    2.2010 O.2     1  UNL1       -0.3000
      5  C          5.0700    1.9210    0.5960 C.3     1  UNL1        0.0430
      6  C          5.8800    0.7460    0.2290 C.2     1  UNL1       -0.0440
      7  C          6.1960   -0.2480    1.1630 C.2     1  UNL1        0.0080
      8  C          6.3420    0.6110   -1.0600 C.2     1  UNL1        0.0540
      9  C          6.9590   -1.3290    0.7620 C.2     1  UNL1        0.0510
     10  C          7.1130   -0.4840   -1.4620 C.2     1  UNL1        0.1660
     11  C          7.4250   -1.4620   -0.5430 C.2     1  UNL1        0.1650
     12  O          7.6830   -0.8410   -2.6650 O.2     1  UNL1       -0.4540
     13  O          8.1860   -2.4090   -1.2090 O.2     1  UNL1       -0.4540
     14  C          8.2970   -2.1010   -2.5780 C.3     1  UNL1        0.4680
@<TRIPOS>BOND
     1    12    14    1
     2    12    10    1
     3    14    13    1
     4    10     8    1
     5    10    11    2
     6    13    11    1
     7     8     6    2
     8    11     9    1
     9     1     5    1
    10     1     2    1
    11     6     5    1
    12     6     7    1
    13     9     7    2
    14     2     3    1
    15     2     4    2
