@<TRIPOS>MOLECULE
/home/cewinharhar/GITHUB/reincatalyze/data/processed/docking_pred/2023-May-22-1902_sub9_nm5_bs15_s42_ex16_mel10_mts1000_k50_ec02_g099_lra9e-4_lrc1e-3/437598aa9d4ddbb457dda5082e5f4820e6dbe55d_ligand_9.pdbqt
 14 15 0 0 0
SMALL
GASTEIGER

@<TRIPOS>ATOM
      1  C          6.4620    1.0710    1.0970 C.3     1  UNL1        0.0800
      2  C          5.1770    1.8040    0.9220 C.2     1  UNL1        0.1300
      3  C          4.9020    2.6200   -0.2910 C.3     1  UNL1        0.0870
      4  O          4.3070    1.7560    1.7760 O.2     1  UNL1       -0.3000
      5  C          7.3520    1.2230   -0.1210 C.3     1  UNL1        0.0430
      6  C          7.6700   -0.0800   -0.7320 C.2     1  UNL1       -0.0440
      7  C          7.6600   -0.2600   -2.1200 C.2     1  UNL1        0.0080
      8  C          7.9880   -1.1510    0.0720 C.2     1  UNL1        0.0540
      9  C          7.9680   -1.5060   -2.6360 C.2     1  UNL1        0.0510
     10  C          8.2990   -2.4080   -0.4560 C.2     1  UNL1        0.1660
     11  C          8.2880   -2.5860   -1.8210 C.2     1  UNL1        0.1650
     12  O          8.6420   -3.6110    0.1230 O.2     1  UNL1       -0.4540
     13  O          8.6300   -3.9090   -2.0550 O.2     1  UNL1       -0.4540
     14  C          8.9500   -4.5710   -0.8540 C.3     1  UNL1        0.4680
@<TRIPOS>BOND
     1     9     7    1
     2     9    11    2
     3     7     6    2
     4    13    11    1
     5    13    14    1
     6    11    10    1
     7    14    12    1
     8     6     5    1
     9     6     8    1
    10    10     8    2
    11    10    12    1
    12     3     2    1
    13     5     1    1
    14     2     1    1
    15     2     4    2
