@<TRIPOS>MOLECULE
/home/cewinharhar/GITHUB/reincatalyze/data/processed/docking_pred/2023-May-22-1902_sub9_nm5_bs15_s42_ex16_mel10_mts1000_k50_ec02_g099_lra9e-4_lrc1e-3/437598aa9d4ddbb457dda5082e5f4820e6dbe55d_ligand_9.pdbqt
 14 15 0 0 0
SMALL
GASTEIGER

@<TRIPOS>ATOM
      1  C          5.7250    1.2880   -0.3720 C.3     1  UNL1        0.0800
      2  C          5.1630    1.3080    1.0070 C.2     1  UNL1        0.1300
      3  C          5.3700    0.1780    1.9510 C.3     1  UNL1        0.0870
      4  O          4.5120    2.2610    1.4050 O.2     1  UNL1       -0.3000
      5  C          7.2270    1.0830   -0.3520 C.3     1  UNL1        0.0430
      6  C          7.6080   -0.2180   -0.9300 C.2     1  UNL1       -0.0440
      7  C          7.6940   -0.4080   -2.3140 C.2     1  UNL1        0.0080
      8  C          7.8920   -1.2770   -0.0980 C.2     1  UNL1        0.0540
      9  C          8.0580   -1.6510   -2.7990 C.2     1  UNL1        0.0510
     10  C          8.2600   -2.5320   -0.5940 C.2     1  UNL1        0.1660
     11  C          8.3440   -2.7200   -1.9550 C.2     1  UNL1        0.1650
     12  O          8.5850   -3.7240    0.0170 O.2     1  UNL1       -0.4540
     13  O          8.7240   -4.0380   -2.1550 O.2     1  UNL1       -0.4540
     14  C          8.9760   -4.6850   -0.9310 C.3     1  UNL1        0.4680
@<TRIPOS>BOND
     1     9     7    1
     2     9    11    2
     3     7     6    2
     4    13    11    1
     5    13    14    1
     6    11    10    1
     7    14    12    1
     8     6     5    1
     9     6     8    1
    10    10     8    2
    11    10    12    1
    12     1     5    1
    13     1     2    1
    14     2     4    2
    15     2     3    1
