MODEL 1
REMARK VINA RESULT:      -7.8      0.000      0.000
REMARK SMILES CC(=O)CCc1ccc2c(c1)OCO2
REMARK SMILES IDX 4 1 2 2 1 3 3 4 5 5 6 6 7 7 11 8 8 9 10 10 9 11 12 12 14 13
REMARK SMILES IDX 13 14
REMARK H PARENT
REMARK Flexibility Score: inf
ROOT
ATOM      1  C   UNL     1       5.370   2.987   0.172  1.00  0.00     0.080 C 
ENDROOT
BRANCH   1   2
ATOM      2  C   UNL     1       6.273   3.851   0.983  1.00  0.00     0.130 C 
ATOM      3  C   UNL     1       7.250   4.774   0.346  1.00  0.00     0.087 C 
ATOM      4  O   UNL     1       6.236   3.826   2.203  1.00  0.00    -0.300 OA
ENDBRANCH   1   2
BRANCH   1   5
ATOM      5  C   UNL     1       5.128   1.654   0.852  1.00  0.00     0.043 C 
BRANCH   5   6
ATOM      6  C   UNL     1       5.979   0.591   0.289  1.00  0.00    -0.044 A 
ATOM      7  C   UNL     1       6.387   0.611  -1.050  1.00  0.00     0.008 A 
ATOM      8  C   UNL     1       6.389  -0.450   1.090  1.00  0.00     0.054 A 
ATOM      9  C   UNL     1       7.187  -0.414  -1.523  1.00  0.00     0.051 A 
ATOM     10  C   UNL     1       7.198  -1.483   0.607  1.00  0.00     0.166 A 
ATOM     11  C   UNL     1       7.600  -1.465  -0.710  1.00  0.00     0.165 A 
ATOM     12  O   UNL     1       7.731  -2.612   1.194  1.00  0.00    -0.454 OA
ATOM     13  O   UNL     1       8.380  -2.594  -0.907  1.00  0.00    -0.454 OA
ATOM     14  C   UNL     1       8.564  -3.301   0.297  1.00  0.00     0.468 C 
ENDBRANCH   5   6
ENDBRANCH   1   5
TORSDOF 3
ENDMDL
MODEL 2
REMARK VINA RESULT:      -7.7      0.995      1.977
REMARK SMILES CC(=O)CCc1ccc2c(c1)OCO2
REMARK SMILES IDX 4 1 2 2 1 3 3 4 5 5 6 6 7 7 11 8 8 9 10 10 9 11 12 12 14 13
REMARK SMILES IDX 13 14
REMARK H PARENT
REMARK Flexibility Score: inf
ROOT
ATOM      1  C   UNL     1       5.505   2.819   0.324  1.00  0.00     0.080 C 
ENDROOT
BRANCH   1   2
ATOM      2  C   UNL     1       6.394   3.732   1.095  1.00  0.00     0.130 C 
ATOM      3  C   UNL     1       7.216   4.774   0.423  1.00  0.00     0.087 C 
ATOM      4  O   UNL     1       6.475   3.649   2.310  1.00  0.00    -0.300 OA
ENDBRANCH   1   2
BRANCH   1   5
ATOM      5  C   UNL     1       5.298   1.506   1.053  1.00  0.00     0.043 C 
BRANCH   5   6
ATOM      6  C   UNL     1       6.117   0.425   0.475  1.00  0.00    -0.044 A 
ATOM      7  C   UNL     1       6.541  -0.664   1.245  1.00  0.00     0.008 A 
ATOM      8  C   UNL     1       6.476   0.477  -0.853  1.00  0.00     0.054 A 
ATOM      9  C   UNL     1       7.307  -1.649   0.648  1.00  0.00     0.051 A 
ATOM     10  C   UNL     1       7.249  -0.522  -1.451  1.00  0.00     0.166 A 
ATOM     11  C   UNL     1       7.668  -1.594  -0.695  1.00  0.00     0.165 A 
ATOM     12  O   UNL     1       7.731  -0.697  -2.731  1.00  0.00    -0.454 OA
ATOM     13  O   UNL     1       8.406  -2.414  -1.535  1.00  0.00    -0.454 OA
ATOM     14  C   UNL     1       8.394  -1.929  -2.856  1.00  0.00     0.468 C 
ENDBRANCH   5   6
ENDBRANCH   1   5
TORSDOF 3
ENDMDL
MODEL 3
REMARK VINA RESULT:      -7.6      2.414      3.039
REMARK SMILES CC(=O)CCc1ccc2c(c1)OCO2
REMARK SMILES IDX 4 1 2 2 1 3 3 4 5 5 6 6 7 7 11 8 8 9 10 10 9 11 12 12 14 13
REMARK SMILES IDX 13 14
REMARK H PARENT
REMARK Flexibility Score: inf
ROOT
ATOM      1  C   UNL     1       5.503   1.929   1.255  1.00  0.00     0.080 C 
ENDROOT
BRANCH   1   2
ATOM      2  C   UNL     1       5.071   0.713   1.999  1.00  0.00     0.130 C 
ATOM      3  C   UNL     1       5.970  -0.460   2.167  1.00  0.00     0.087 C 
ATOM      4  O   UNL     1       3.958   0.644   2.494  1.00  0.00    -0.300 OA
ENDBRANCH   1   2
BRANCH   1   5
ATOM      5  C   UNL     1       5.380   1.732  -0.242  1.00  0.00     0.043 C 
BRANCH   5   6
ATOM      6  C   UNL     1       6.549   1.029  -0.799  1.00  0.00    -0.044 A 
ATOM      7  C   UNL     1       7.855   1.460  -0.539  1.00  0.00     0.008 A 
ATOM      8  C   UNL     1       6.365  -0.080  -1.593  1.00  0.00     0.054 A 
ATOM      9  C   UNL     1       8.914   0.760  -1.088  1.00  0.00     0.051 A 
ATOM     10  C   UNL     1       7.439  -0.784  -2.146  1.00  0.00     0.166 A 
ATOM     11  C   UNL     1       8.724  -0.360  -1.891  1.00  0.00     0.165 A 
ATOM     12  O   UNL     1       7.516  -1.898  -2.955  1.00  0.00    -0.454 OA
ATOM     13  O   UNL     1       9.572  -1.232  -2.556  1.00  0.00    -0.454 OA
ATOM     14  C   UNL     1       8.852  -2.275  -3.168  1.00  0.00     0.468 C 
ENDBRANCH   5   6
ENDBRANCH   1   5
TORSDOF 3
ENDMDL
MODEL 4
REMARK VINA RESULT:      -7.5      1.791      2.478
REMARK SMILES CC(=O)CCc1ccc2c(c1)OCO2
REMARK SMILES IDX 4 1 2 2 1 3 3 4 5 5 6 6 7 7 11 8 8 9 10 10 9 11 12 12 14 13
REMARK SMILES IDX 13 14
REMARK H PARENT
REMARK Flexibility Score: inf
ROOT
ATOM      1  C   UNL     1       5.725   1.288  -0.372  1.00  0.00     0.080 C 
ENDROOT
BRANCH   1   2
ATOM      2  C   UNL     1       5.163   1.308   1.007  1.00  0.00     0.130 C 
ATOM      3  C   UNL     1       5.370   0.178   1.951  1.00  0.00     0.087 C 
ATOM      4  O   UNL     1       4.512   2.261   1.405  1.00  0.00    -0.300 OA
ENDBRANCH   1   2
BRANCH   1   5
ATOM      5  C   UNL     1       7.227   1.083  -0.352  1.00  0.00     0.043 C 
BRANCH   5   6
ATOM      6  C   UNL     1       7.608  -0.218  -0.930  1.00  0.00    -0.044 A 
ATOM      7  C   UNL     1       7.694  -0.408  -2.314  1.00  0.00     0.008 A 
ATOM      8  C   UNL     1       7.892  -1.277  -0.098  1.00  0.00     0.054 A 
ATOM      9  C   UNL     1       8.058  -1.651  -2.799  1.00  0.00     0.051 A 
ATOM     10  C   UNL     1       8.260  -2.532  -0.594  1.00  0.00     0.166 A 
ATOM     11  C   UNL     1       8.344  -2.720  -1.955  1.00  0.00     0.165 A 
ATOM     12  O   UNL     1       8.585  -3.724   0.017  1.00  0.00    -0.454 OA
ATOM     13  O   UNL     1       8.724  -4.038  -2.155  1.00  0.00    -0.454 OA
ATOM     14  C   UNL     1       8.976  -4.685  -0.931  1.00  0.00     0.468 C 
ENDBRANCH   5   6
ENDBRANCH   1   5
TORSDOF 3
ENDMDL
MODEL 5
REMARK VINA RESULT:      -7.5      1.670      2.176
REMARK SMILES CC(=O)CCc1ccc2c(c1)OCO2
REMARK SMILES IDX 4 1 2 2 1 3 3 4 5 5 6 6 7 7 11 8 8 9 10 10 9 11 12 12 14 13
REMARK SMILES IDX 13 14
REMARK H PARENT
REMARK Flexibility Score: inf
ROOT
ATOM      1  C   UNL     1       6.462   1.071   1.097  1.00  0.00     0.080 C 
ENDROOT
BRANCH   1   2
ATOM      2  C   UNL     1       5.177   1.804   0.922  1.00  0.00     0.130 C 
ATOM      3  C   UNL     1       4.902   2.620  -0.291  1.00  0.00     0.087 C 
ATOM      4  O   UNL     1       4.307   1.756   1.776  1.00  0.00    -0.300 OA
ENDBRANCH   1   2
BRANCH   1   5
ATOM      5  C   UNL     1       7.352   1.223  -0.121  1.00  0.00     0.043 C 
BRANCH   5   6
ATOM      6  C   UNL     1       7.670  -0.080  -0.732  1.00  0.00    -0.044 A 
ATOM      7  C   UNL     1       7.660  -0.260  -2.120  1.00  0.00     0.008 A 
ATOM      8  C   UNL     1       7.988  -1.151   0.072  1.00  0.00     0.054 A 
ATOM      9  C   UNL     1       7.968  -1.506  -2.636  1.00  0.00     0.051 A 
ATOM     10  C   UNL     1       8.299  -2.408  -0.456  1.00  0.00     0.166 A 
ATOM     11  C   UNL     1       8.288  -2.586  -1.821  1.00  0.00     0.165 A 
ATOM     12  O   UNL     1       8.642  -3.611   0.123  1.00  0.00    -0.454 OA
ATOM     13  O   UNL     1       8.630  -3.909  -2.055  1.00  0.00    -0.454 OA
ATOM     14  C   UNL     1       8.950  -4.571  -0.854  1.00  0.00     0.468 C 
ENDBRANCH   5   6
ENDBRANCH   1   5
TORSDOF 3
ENDMDL
