@<TRIPOS>MOLECULE
/home/cewinharhar/GITHUB/reincatalyze/data/processed/docking_pred/2023-May-22-1902_sub9_nm5_bs15_s42_ex16_mel10_mts1000_k50_ec02_g099_lra9e-4_lrc1e-3/437598aa9d4ddbb457dda5082e5f4820e6dbe55d_ligand_9.pdbqt
 14 15 0 0 0
SMALL
GASTEIGER

@<TRIPOS>ATOM
      1  C          5.5050    2.8190    0.3240 C.3     1  UNL1        0.0800
      2  C          6.3940    3.7320    1.0950 C.2     1  UNL1        0.1300
      3  C          7.2160    4.7740    0.4230 C.3     1  UNL1        0.0870
      4  O          6.4750    3.6490    2.3100 O.2     1  UNL1       -0.3000
      5  C          5.2980    1.5060    1.0530 C.3     1  UNL1        0.0430
      6  C          6.1170    0.4250    0.4750 C.2     1  UNL1       -0.0440
      7  C          6.5410   -0.6640    1.2450 C.2     1  UNL1        0.0080
      8  C          6.4760    0.4770   -0.8530 C.2     1  UNL1        0.0540
      9  C          7.3070   -1.6490    0.6480 C.2     1  UNL1        0.0510
     10  C          7.2490   -0.5220   -1.4510 C.2     1  UNL1        0.1660
     11  C          7.6680   -1.5940   -0.6950 C.2     1  UNL1        0.1650
     12  O          7.7310   -0.6970   -2.7310 O.2     1  UNL1       -0.4540
     13  O          8.4060   -2.4140   -1.5350 O.2     1  UNL1       -0.4540
     14  C          8.3940   -1.9290   -2.8560 C.3     1  UNL1        0.4680
@<TRIPOS>BOND
     1    14    12    1
     2    14    13    1
     3    12    10    1
     4    13    11    1
     5    10     8    1
     6    10    11    2
     7     8     6    2
     8    11     9    1
     9     1     5    1
    10     1     2    1
    11     3     2    1
    12     6     5    1
    13     6     7    1
    14     9     7    2
    15     2     4    2
