@<TRIPOS>MOLECULE
/home/cewinharhar/GITHUB/reincatalyze/data/processed/docking_pred/2023-May-22-1902_sub9_nm5_bs15_s42_ex16_mel10_mts1000_k50_ec02_g099_lra9e-4_lrc1e-3/44bf36be1ccee3462d679cf400989bbed31f99fd_ligand_9.pdbqt
 14 15 0 0 0
SMALL
GASTEIGER

@<TRIPOS>ATOM
      1  C          5.4200    2.9810    0.1030 C.3     1  UNL1        0.0800
      2  C          6.2450    3.8970    0.9400 C.2     1  UNL1        0.1300
      3  C          7.2870    4.7740    0.3420 C.3     1  UNL1        0.0870
      4  O          6.0880    3.9520    2.1490 O.2     1  UNL1       -0.3000
      5  C          5.0980    1.6980    0.8440 C.3     1  UNL1        0.0430
      6  C          5.9380    0.5780    0.3850 C.2     1  UNL1       -0.0440
      7  C          6.3530   -0.4330    1.2600 C.2     1  UNL1        0.0080
      8  C          6.3280    0.5120   -0.9330 C.2     1  UNL1        0.0540
      9  C          7.1400   -1.4610    0.7730 C.2     1  UNL1        0.0510
     10  C          7.1240   -0.5290   -1.4210 C.2     1  UNL1        0.1660
     11  C          7.5330   -1.5240   -0.5600 C.2     1  UNL1        0.1650
     12  O          7.6370   -0.8150   -2.6680 O.2     1  UNL1       -0.4540
     13  O          8.2960   -2.4090   -1.3050 O.2     1  UNL1       -0.4540
     14  C          8.3120   -2.0470   -2.6650 C.3     1  UNL1        0.4680
@<TRIPOS>BOND
     1    12    14    1
     2    12    10    1
     3    14    13    1
     4    10     8    1
     5    10    11    2
     6    13    11    1
     7     8     6    2
     8    11     9    1
     9     1     5    1
    10     1     2    1
    11     3     2    1
    12     6     5    1
    13     6     7    1
    14     9     7    2
    15     2     4    2
