@<TRIPOS>MOLECULE
/home/cewinharhar/GITHUB/reincatalyze/data/processed/docking_pred/2023-May-22-1902_sub9_nm5_bs15_s42_ex16_mel10_mts1000_k50_ec02_g099_lra9e-4_lrc1e-3/44bf36be1ccee3462d679cf400989bbed31f99fd_ligand_9.pdbqt
 14 15 0 0 0
SMALL
GASTEIGER

@<TRIPOS>ATOM
      1  C          5.8050    1.3900   -0.3110 C.3     1  UNL1        0.0800
      2  C          5.1560    1.3090    1.0280 C.2     1  UNL1        0.1300
      3  C          5.3710    0.1460    1.9300 C.3     1  UNL1        0.0870
      4  O          4.4250    2.2010    1.4240 O.2     1  UNL1       -0.3000
      5  C          7.2930    1.1170   -0.2200 C.3     1  UNL1        0.0430
      6  C          7.6500   -0.1770   -0.8300 C.2     1  UNL1       -0.0440
      7  C          7.7120   -0.3390   -2.2190 C.2     1  UNL1        0.0080
      8  C          7.9330   -1.2560   -0.0250 C.2     1  UNL1        0.0540
      9  C          8.0530   -1.5760   -2.7350 C.2     1  UNL1        0.0510
     10  C          8.2780   -2.5040   -0.5510 C.2     1  UNL1        0.1660
     11  C          8.3380   -2.6660   -1.9170 C.2     1  UNL1        0.1650
     12  O          8.5990   -3.7130    0.0300 O.2     1  UNL1       -0.4540
     13  O          8.6990   -3.9840   -2.1500 O.2     1  UNL1       -0.4540
     14  C          8.9630   -4.6590   -0.9430 C.3     1  UNL1        0.4680
@<TRIPOS>BOND
     1     9     7    1
     2     9    11    2
     3     7     6    2
     4    13    11    1
     5    13    14    1
     6    11    10    1
     7    14    12    1
     8     6     5    1
     9     6     8    1
    10    10     8    2
    11    10    12    1
    12     1     5    1
    13     1     2    1
    14     2     4    2
    15     2     3    1
