@<TRIPOS>MOLECULE
/home/cewinharhar/GITHUB/reincatalyze/data/processed/docking_pred/2023-May-22-1902_sub9_nm5_bs15_s42_ex16_mel10_mts1000_k50_ec02_g099_lra9e-4_lrc1e-3/44bf36be1ccee3462d679cf400989bbed31f99fd_ligand_9.pdbqt
 14 15 0 0 0
SMALL
GASTEIGER

@<TRIPOS>ATOM
      1  C          6.3650    2.5520    1.5370 C.3     1  UNL1        0.0800
      2  C          6.4660    4.0380    1.5380 C.2     1  UNL1        0.1300
      3  C          7.1510    4.7750    0.4420 C.3     1  UNL1        0.0870
      4  O          5.9860    4.6990    2.4450 O.2     1  UNL1       -0.3000
      5  C          5.8390    2.0360    0.2130 C.3     1  UNL1        0.0430
      6  C          6.8280    1.1870   -0.4740 C.2     1  UNL1       -0.0440
      7  C          8.1920    1.5010   -0.4730 C.2     1  UNL1        0.0080
      8  C          6.4110    0.0530   -1.1350 C.2     1  UNL1        0.0540
      9  C          9.0730    0.6650   -1.1340 C.2     1  UNL1        0.0510
     10  C          7.3070   -0.7880   -1.8020 C.2     1  UNL1        0.1660
     11  C          8.6490   -0.4790   -1.8010 C.2     1  UNL1        0.1650
     12  O          7.1440   -1.9540   -2.5200 O.2     1  UNL1       -0.4540
     13  O          9.2890   -1.4720   -2.5260 O.2     1  UNL1       -0.4540
     14  C          8.3840   -2.4750   -2.9240 C.3     1  UNL1        0.4680
@<TRIPOS>BOND
     1    14    13    1
     2    14    12    1
     3    13    11    1
     4    12    10    1
     5    10    11    2
     6    10     8    1
     7    11     9    1
     8     8     6    2
     9     9     7    2
    10     6     7    1
    11     6     5    1
    12     5     1    1
    13     3     2    1
    14     1     2    1
    15     2     4    2
