MODEL 1
REMARK VINA RESULT:      -7.9      0.000      0.000
REMARK SMILES CC(=O)CCc1ccc2c(c1)OCO2
REMARK SMILES IDX 4 1 2 2 1 3 3 4 5 5 6 6 7 7 11 8 8 9 10 10 9 11 12 12 14 13
REMARK SMILES IDX 13 14
REMARK H PARENT
REMARK Flexibility Score: inf
ROOT
ATOM      1  C   UNL     1       5.420   2.981   0.103  1.00  0.00     0.080 C 
ENDROOT
BRANCH   1   2
ATOM      2  C   UNL     1       6.245   3.897   0.940  1.00  0.00     0.130 C 
ATOM      3  C   UNL     1       7.287   4.774   0.342  1.00  0.00     0.087 C 
ATOM      4  O   UNL     1       6.088   3.952   2.149  1.00  0.00    -0.300 OA
ENDBRANCH   1   2
BRANCH   1   5
ATOM      5  C   UNL     1       5.098   1.698   0.844  1.00  0.00     0.043 C 
BRANCH   5   6
ATOM      6  C   UNL     1       5.938   0.578   0.385  1.00  0.00    -0.044 A 
ATOM      7  C   UNL     1       6.353  -0.433   1.260  1.00  0.00     0.008 A 
ATOM      8  C   UNL     1       6.328   0.512  -0.933  1.00  0.00     0.054 A 
ATOM      9  C   UNL     1       7.140  -1.461   0.773  1.00  0.00     0.051 A 
ATOM     10  C   UNL     1       7.124  -0.529  -1.421  1.00  0.00     0.166 A 
ATOM     11  C   UNL     1       7.533  -1.524  -0.560  1.00  0.00     0.165 A 
ATOM     12  O   UNL     1       7.637  -0.815  -2.668  1.00  0.00    -0.454 OA
ATOM     13  O   UNL     1       8.296  -2.409  -1.305  1.00  0.00    -0.454 OA
ATOM     14  C   UNL     1       8.312  -2.047  -2.665  1.00  0.00     0.468 C 
ENDBRANCH   5   6
ENDBRANCH   1   5
TORSDOF 3
ENDMDL
MODEL 2
REMARK VINA RESULT:      -7.7      1.912      2.680
REMARK SMILES CC(=O)CCc1ccc2c(c1)OCO2
REMARK SMILES IDX 4 1 2 2 1 3 3 4 5 5 6 6 7 7 11 8 8 9 10 10 9 11 12 12 14 13
REMARK SMILES IDX 13 14
REMARK H PARENT
REMARK Flexibility Score: inf
ROOT
ATOM      1  C   UNL     1       5.501   1.901   1.272  1.00  0.00     0.080 C 
ENDROOT
BRANCH   1   2
ATOM      2  C   UNL     1       5.056   0.684   2.007  1.00  0.00     0.130 C 
ATOM      3  C   UNL     1       5.933  -0.508   2.147  1.00  0.00     0.087 C 
ATOM      4  O   UNL     1       3.949   0.631   2.518  1.00  0.00    -0.300 OA
ENDBRANCH   1   2
BRANCH   1   5
ATOM      5  C   UNL     1       5.379   1.715  -0.227  1.00  0.00     0.043 C 
BRANCH   5   6
ATOM      6  C   UNL     1       6.551   1.021  -0.789  1.00  0.00    -0.044 A 
ATOM      7  C   UNL     1       7.855   1.463  -0.538  1.00  0.00     0.008 A 
ATOM      8  C   UNL     1       6.371  -0.092  -1.579  1.00  0.00     0.054 A 
ATOM      9  C   UNL     1       8.916   0.771  -1.092  1.00  0.00     0.051 A 
ATOM     10  C   UNL     1       7.447  -0.789  -2.136  1.00  0.00     0.166 A 
ATOM     11  C   UNL     1       8.731  -0.353  -1.891  1.00  0.00     0.165 A 
ATOM     12  O   UNL     1       7.529  -1.904  -2.942  1.00  0.00    -0.454 OA
ATOM     13  O   UNL     1       9.582  -1.220  -2.558  1.00  0.00    -0.454 OA
ATOM     14  C   UNL     1       8.867  -2.270  -3.163  1.00  0.00     0.468 C 
ENDBRANCH   5   6
ENDBRANCH   1   5
TORSDOF 3
ENDMDL
MODEL 3
REMARK VINA RESULT:      -7.5      1.945      3.042
REMARK SMILES CC(=O)CCc1ccc2c(c1)OCO2
REMARK SMILES IDX 4 1 2 2 1 3 3 4 5 5 6 6 7 7 11 8 8 9 10 10 9 11 12 12 14 13
REMARK SMILES IDX 13 14
REMARK H PARENT
REMARK Flexibility Score: inf
ROOT
ATOM      1  C   UNL     1       5.805   1.390  -0.311  1.00  0.00     0.080 C 
ENDROOT
BRANCH   1   2
ATOM      2  C   UNL     1       5.156   1.309   1.028  1.00  0.00     0.130 C 
ATOM      3  C   UNL     1       5.371   0.146   1.930  1.00  0.00     0.087 C 
ATOM      4  O   UNL     1       4.425   2.201   1.424  1.00  0.00    -0.300 OA
ENDBRANCH   1   2
BRANCH   1   5
ATOM      5  C   UNL     1       7.293   1.117  -0.220  1.00  0.00     0.043 C 
BRANCH   5   6
ATOM      6  C   UNL     1       7.650  -0.177  -0.830  1.00  0.00    -0.044 A 
ATOM      7  C   UNL     1       7.712  -0.339  -2.219  1.00  0.00     0.008 A 
ATOM      8  C   UNL     1       7.933  -1.256  -0.025  1.00  0.00     0.054 A 
ATOM      9  C   UNL     1       8.053  -1.576  -2.735  1.00  0.00     0.051 A 
ATOM     10  C   UNL     1       8.278  -2.504  -0.551  1.00  0.00     0.166 A 
ATOM     11  C   UNL     1       8.338  -2.666  -1.917  1.00  0.00     0.165 A 
ATOM     12  O   UNL     1       8.599  -3.713   0.030  1.00  0.00    -0.454 OA
ATOM     13  O   UNL     1       8.699  -3.984  -2.150  1.00  0.00    -0.454 OA
ATOM     14  C   UNL     1       8.963  -4.659  -0.943  1.00  0.00     0.468 C 
ENDBRANCH   5   6
ENDBRANCH   1   5
TORSDOF 3
ENDMDL
MODEL 4
REMARK VINA RESULT:      -7.5      1.612      2.746
REMARK SMILES CC(=O)CCc1ccc2c(c1)OCO2
REMARK SMILES IDX 4 1 2 2 1 3 3 4 5 5 6 6 7 7 11 8 8 9 10 10 9 11 12 12 14 13
REMARK SMILES IDX 13 14
REMARK H PARENT
REMARK Flexibility Score: inf
ROOT
ATOM      1  C   UNL     1       5.720   1.224  -0.392  1.00  0.00     0.080 C 
ENDROOT
BRANCH   1   2
ATOM      2  C   UNL     1       5.350   2.288   0.581  1.00  0.00     0.130 C 
ATOM      3  C   UNL     1       6.112   3.562   0.673  1.00  0.00     0.087 C 
ATOM      4  O   UNL     1       4.403   2.144   1.337  1.00  0.00    -0.300 OA
ENDBRANCH   1   2
BRANCH   1   5
ATOM      5  C   UNL     1       7.223   1.149  -0.581  1.00  0.00     0.043 C 
BRANCH   5   6
ATOM      6  C   UNL     1       7.645  -0.169  -1.088  1.00  0.00    -0.044 A 
ATOM      7  C   UNL     1       7.848  -0.398  -2.454  1.00  0.00     0.008 A 
ATOM      8  C   UNL     1       7.850  -1.206  -0.206  1.00  0.00     0.054 A 
ATOM      9  C   UNL     1       8.245  -1.655  -2.871  1.00  0.00     0.051 A 
ATOM     10  C   UNL     1       8.252  -2.475  -0.634  1.00  0.00     0.166 A 
ATOM     11  C   UNL     1       8.451  -2.701  -1.977  1.00  0.00     0.165 A 
ATOM     12  O   UNL     1       8.516  -3.651   0.035  1.00  0.00    -0.454 OA
ATOM     13  O   UNL     1       8.839  -4.026  -2.107  1.00  0.00    -0.454 OA
ATOM     14  C   UNL     1       8.981  -4.640  -0.849  1.00  0.00     0.468 C 
ENDBRANCH   5   6
ENDBRANCH   1   5
TORSDOF 3
ENDMDL
MODEL 5
REMARK VINA RESULT:      -7.4      1.335      1.664
REMARK SMILES CC(=O)CCc1ccc2c(c1)OCO2
REMARK SMILES IDX 4 1 2 2 1 3 3 4 5 5 6 6 7 7 11 8 8 9 10 10 9 11 12 12 14 13
REMARK SMILES IDX 13 14
REMARK H PARENT
REMARK Flexibility Score: inf
ROOT
ATOM      1  C   UNL     1       6.365   2.552   1.537  1.00  0.00     0.080 C 
ENDROOT
BRANCH   1   2
ATOM      2  C   UNL     1       6.466   4.038   1.538  1.00  0.00     0.130 C 
ATOM      3  C   UNL     1       7.151   4.775   0.442  1.00  0.00     0.087 C 
ATOM      4  O   UNL     1       5.986   4.699   2.445  1.00  0.00    -0.300 OA
ENDBRANCH   1   2
BRANCH   1   5
ATOM      5  C   UNL     1       5.839   2.036   0.213  1.00  0.00     0.043 C 
BRANCH   5   6
ATOM      6  C   UNL     1       6.828   1.187  -0.474  1.00  0.00    -0.044 A 
ATOM      7  C   UNL     1       8.192   1.501  -0.473  1.00  0.00     0.008 A 
ATOM      8  C   UNL     1       6.411   0.053  -1.135  1.00  0.00     0.054 A 
ATOM      9  C   UNL     1       9.073   0.665  -1.134  1.00  0.00     0.051 A 
ATOM     10  C   UNL     1       7.307  -0.788  -1.802  1.00  0.00     0.166 A 
ATOM     11  C   UNL     1       8.649  -0.479  -1.801  1.00  0.00     0.165 A 
ATOM     12  O   UNL     1       7.144  -1.954  -2.520  1.00  0.00    -0.454 OA
ATOM     13  O   UNL     1       9.289  -1.472  -2.526  1.00  0.00    -0.454 OA
ATOM     14  C   UNL     1       8.384  -2.475  -2.924  1.00  0.00     0.468 C 
ENDBRANCH   5   6
ENDBRANCH   1   5
TORSDOF 3
ENDMDL
