MODEL 1
REMARK VINA RESULT:      -7.8      0.000      0.000
REMARK SMILES CC(=O)CCc1ccc2c(c1)OCO2
REMARK SMILES IDX 4 1 2 2 1 3 3 4 5 5 6 6 7 7 11 8 8 9 10 10 9 11 12 12 14 13
REMARK SMILES IDX 13 14
REMARK H PARENT
REMARK Flexibility Score: inf
ROOT
ATOM      1  C   UNL     1       5.433   2.813   0.272  1.00  0.00     0.080 C 
ENDROOT
BRANCH   1   2
ATOM      2  C   UNL     1       6.343   3.699   1.049  1.00  0.00     0.130 C 
ATOM      3  C   UNL     1       7.135   4.774   0.393  1.00  0.00     0.087 C 
ATOM      4  O   UNL     1       6.466   3.567   2.256  1.00  0.00    -0.300 OA
ENDBRANCH   1   2
BRANCH   1   5
ATOM      5  C   UNL     1       5.224   1.486   0.975  1.00  0.00     0.043 C 
BRANCH   5   6
ATOM      6  C   UNL     1       6.082   0.428   0.413  1.00  0.00    -0.044 A 
ATOM      7  C   UNL     1       6.484  -0.673   1.177  1.00  0.00     0.008 A 
ATOM      8  C   UNL     1       6.502   0.513  -0.895  1.00  0.00     0.054 A 
ATOM      9  C   UNL     1       7.289  -1.636   0.596  1.00  0.00     0.051 A 
ATOM     10  C   UNL     1       7.315  -0.463  -1.479  1.00  0.00     0.166 A 
ATOM     11  C   UNL     1       7.712  -1.546  -0.727  1.00  0.00     0.165 A 
ATOM     12  O   UNL     1       7.858  -0.604  -2.738  1.00  0.00    -0.454 OA
ATOM     13  O   UNL     1       8.498  -2.338  -1.549  1.00  0.00    -0.454 OA
ATOM     14  C   UNL     1       8.542  -1.825  -2.859  1.00  0.00     0.468 C 
ENDBRANCH   5   6
ENDBRANCH   1   5
TORSDOF 3
ENDMDL
MODEL 2
REMARK VINA RESULT:      -7.8      0.993      1.978
REMARK SMILES CC(=O)CCc1ccc2c(c1)OCO2
REMARK SMILES IDX 4 1 2 2 1 3 3 4 5 5 6 6 7 7 11 8 8 9 10 10 9 11 12 12 14 13
REMARK SMILES IDX 13 14
REMARK H PARENT
REMARK Flexibility Score: inf
ROOT
ATOM      1  C   UNL     1       5.422   2.926   0.123  1.00  0.00     0.080 C 
ENDROOT
BRANCH   1   2
ATOM      2  C   UNL     1       6.256   3.850   0.941  1.00  0.00     0.130 C 
ATOM      3  C   UNL     1       7.238   4.775   0.315  1.00  0.00     0.087 C 
ATOM      4  O   UNL     1       6.157   3.874   2.157  1.00  0.00    -0.300 OA
ENDBRANCH   1   2
BRANCH   1   5
ATOM      5  C   UNL     1       5.207   1.604   0.834  1.00  0.00     0.043 C 
BRANCH   5   6
ATOM      6  C   UNL     1       6.031   0.530   0.252  1.00  0.00    -0.044 A 
ATOM      7  C   UNL     1       6.408   0.544  -1.096  1.00  0.00     0.008 A 
ATOM      8  C   UNL     1       6.447  -0.516   1.044  1.00  0.00     0.054 A 
ATOM      9  C   UNL     1       7.183  -0.491  -1.587  1.00  0.00     0.051 A 
ATOM     10  C   UNL     1       7.231  -1.560   0.543  1.00  0.00     0.166 A 
ATOM     11  C   UNL     1       7.602  -1.547  -0.784  1.00  0.00     0.165 A 
ATOM     12  O   UNL     1       7.763  -2.695   1.117  1.00  0.00    -0.454 OA
ATOM     13  O   UNL     1       8.362  -2.686  -0.998  1.00  0.00    -0.454 OA
ATOM     14  C   UNL     1       8.566  -3.394   0.201  1.00  0.00     0.468 C 
ENDBRANCH   5   6
ENDBRANCH   1   5
TORSDOF 3
ENDMDL
MODEL 3
REMARK VINA RESULT:      -7.6      1.886      2.611
REMARK SMILES CC(=O)CCc1ccc2c(c1)OCO2
REMARK SMILES IDX 4 1 2 2 1 3 3 4 5 5 6 6 7 7 11 8 8 9 10 10 9 11 12 12 14 13
REMARK SMILES IDX 13 14
REMARK H PARENT
REMARK Flexibility Score: inf
ROOT
ATOM      1  C   UNL     1       5.501   1.926   1.257  1.00  0.00     0.080 C 
ENDROOT
BRANCH   1   2
ATOM      2  C   UNL     1       5.048   0.714   1.995  1.00  0.00     0.130 C 
ATOM      3  C   UNL     1       5.918  -0.483   2.140  1.00  0.00     0.087 C 
ATOM      4  O   UNL     1       3.941   0.670   2.507  1.00  0.00    -0.300 OA
ENDBRANCH   1   2
BRANCH   1   5
ATOM      5  C   UNL     1       5.381   1.733  -0.242  1.00  0.00     0.043 C 
BRANCH   5   6
ATOM      6  C   UNL     1       6.552   1.032  -0.799  1.00  0.00    -0.044 A 
ATOM      7  C   UNL     1       7.857   1.467  -0.541  1.00  0.00     0.008 A 
ATOM      8  C   UNL     1       6.370  -0.079  -1.590  1.00  0.00     0.054 A 
ATOM      9  C   UNL     1       8.918   0.769  -1.090  1.00  0.00     0.051 A 
ATOM     10  C   UNL     1       7.445  -0.782  -2.142  1.00  0.00     0.166 A 
ATOM     11  C   UNL     1       8.729  -0.354  -1.890  1.00  0.00     0.165 A 
ATOM     12  O   UNL     1       7.524  -1.897  -2.948  1.00  0.00    -0.454 OA
ATOM     13  O   UNL     1       9.579  -1.225  -2.553  1.00  0.00    -0.454 OA
ATOM     14  C   UNL     1       8.861  -2.271  -3.162  1.00  0.00     0.468 C 
ENDBRANCH   5   6
ENDBRANCH   1   5
TORSDOF 3
ENDMDL
MODEL 4
REMARK VINA RESULT:      -7.6      1.120      1.539
REMARK SMILES CC(=O)CCc1ccc2c(c1)OCO2
REMARK SMILES IDX 4 1 2 2 1 3 3 4 5 5 6 6 7 7 11 8 8 9 10 10 9 11 12 12 14 13
REMARK SMILES IDX 13 14
REMARK H PARENT
REMARK Flexibility Score: inf
ROOT
ATOM      1  C   UNL     1       5.371   2.782   0.108  1.00  0.00     0.080 C 
ENDROOT
BRANCH   1   2
ATOM      2  C   UNL     1       6.220   3.680   0.940  1.00  0.00     0.130 C 
ATOM      3  C   UNL     1       7.072   4.736   0.330  1.00  0.00     0.087 C 
ATOM      4  O   UNL     1       6.241   3.574   2.156  1.00  0.00    -0.300 OA
ENDBRANCH   1   2
BRANCH   1   5
ATOM      5  C   UNL     1       5.595   1.327   0.466  1.00  0.00     0.043 C 
BRANCH   5   6
ATOM      6  C   UNL     1       6.694   0.734  -0.317  1.00  0.00    -0.044 A 
ATOM      7  C   UNL     1       7.950   1.348  -0.398  1.00  0.00     0.008 A 
ATOM      8  C   UNL     1       6.494  -0.452  -0.986  1.00  0.00     0.054 A 
ATOM      9  C   UNL     1       8.944   0.745  -1.147  1.00  0.00     0.051 A 
ATOM     10  C   UNL     1       7.502  -1.057  -1.741  1.00  0.00     0.166 A 
ATOM     11  C   UNL     1       8.737  -0.453  -1.823  1.00  0.00     0.165 A 
ATOM     12  O   UNL     1       7.551  -2.216  -2.487  1.00  0.00    -0.454 OA
ATOM     13  O   UNL     1       9.527  -1.263  -2.624  1.00  0.00    -0.454 OA
ATOM     14  C   UNL     1       8.842  -2.436  -2.992  1.00  0.00     0.468 C 
ENDBRANCH   5   6
ENDBRANCH   1   5
TORSDOF 3
ENDMDL
MODEL 5
REMARK VINA RESULT:      -7.5      1.969      2.998
REMARK SMILES CC(=O)CCc1ccc2c(c1)OCO2
REMARK SMILES IDX 4 1 2 2 1 3 3 4 5 5 6 6 7 7 11 8 8 9 10 10 9 11 12 12 14 13
REMARK SMILES IDX 13 14
REMARK H PARENT
REMARK Flexibility Score: inf
ROOT
ATOM      1  C   UNL     1       5.763   1.386  -0.354  1.00  0.00     0.080 C 
ENDROOT
BRANCH   1   2
ATOM      2  C   UNL     1       5.119   1.319   0.987  1.00  0.00     0.130 C 
ATOM      3  C   UNL     1       5.402   0.208   1.935  1.00  0.00     0.087 C 
ATOM      4  O   UNL     1       4.334   2.181   1.349  1.00  0.00    -0.300 OA
ENDBRANCH   1   2
BRANCH   1   5
ATOM      5  C   UNL     1       7.254   1.124  -0.262  1.00  0.00     0.043 C 
BRANCH   5   6
ATOM      6  C   UNL     1       7.618  -0.172  -0.863  1.00  0.00    -0.044 A 
ATOM      7  C   UNL     1       7.682  -0.345  -2.250  1.00  0.00     0.008 A 
ATOM      8  C   UNL     1       7.908  -1.243  -0.049  1.00  0.00     0.054 A 
ATOM      9  C   UNL     1       8.031  -1.584  -2.756  1.00  0.00     0.051 A 
ATOM     10  C   UNL     1       8.261  -2.494  -0.565  1.00  0.00     0.166 A 
ATOM     11  C   UNL     1       8.323  -2.665  -1.930  1.00  0.00     0.165 A 
ATOM     12  O   UNL     1       8.588  -3.696   0.025  1.00  0.00    -0.454 OA
ATOM     13  O   UNL     1       8.692  -3.983  -2.152  1.00  0.00    -0.454 OA
ATOM     14  C   UNL     1       8.958  -4.647  -0.940  1.00  0.00     0.468 C 
ENDBRANCH   5   6
ENDBRANCH   1   5
TORSDOF 3
ENDMDL
