@<TRIPOS>MOLECULE
/home/cewinharhar/GITHUB/reincatalyze/data/processed/docking_pred/2023-May-22-1902_sub9_nm5_bs15_s42_ex16_mel10_mts1000_k50_ec02_g099_lra9e-4_lrc1e-3/46824fcf52dc560be674bfd6df7e039c48ea1670_ligand_9.pdbqt
 14 15 0 0 0
SMALL
GASTEIGER

@<TRIPOS>ATOM
      1  C          5.7630    1.3860   -0.3540 C.3     1  UNL1        0.0800
      2  C          5.1190    1.3190    0.9870 C.2     1  UNL1        0.1300
      3  C          5.4020    0.2080    1.9350 C.3     1  UNL1        0.0870
      4  O          4.3340    2.1810    1.3490 O.2     1  UNL1       -0.3000
      5  C          7.2540    1.1240   -0.2620 C.3     1  UNL1        0.0430
      6  C          7.6180   -0.1720   -0.8630 C.2     1  UNL1       -0.0440
      7  C          7.6820   -0.3450   -2.2500 C.2     1  UNL1        0.0080
      8  C          7.9080   -1.2430   -0.0490 C.2     1  UNL1        0.0540
      9  C          8.0310   -1.5840   -2.7560 C.2     1  UNL1        0.0510
     10  C          8.2610   -2.4940   -0.5650 C.2     1  UNL1        0.1660
     11  C          8.3230   -2.6650   -1.9300 C.2     1  UNL1        0.1650
     12  O          8.5880   -3.6960    0.0250 O.2     1  UNL1       -0.4540
     13  O          8.6920   -3.9830   -2.1520 O.2     1  UNL1       -0.4540
     14  C          8.9580   -4.6470   -0.9400 C.3     1  UNL1        0.4680
@<TRIPOS>BOND
     1     9     7    1
     2     9    11    2
     3     7     6    2
     4    13    11    1
     5    13    14    1
     6    11    10    1
     7    14    12    1
     8     6     5    1
     9     6     8    1
    10    10     8    2
    11    10    12    1
    12     1     5    1
    13     1     2    1
    14     2     4    2
    15     2     3    1
