@<TRIPOS>MOLECULE
/home/cewinharhar/GITHUB/reincatalyze/data/processed/docking_pred/2023-May-22-1902_sub9_nm5_bs15_s42_ex16_mel10_mts1000_k50_ec02_g099_lra9e-4_lrc1e-3/46824fcf52dc560be674bfd6df7e039c48ea1670_ligand_9.pdbqt
 14 15 0 0 0
SMALL
GASTEIGER

@<TRIPOS>ATOM
      1  C          5.4330    2.8130    0.2720 C.3     1  UNL1        0.0800
      2  C          6.3430    3.6990    1.0490 C.2     1  UNL1        0.1300
      3  C          7.1350    4.7740    0.3930 C.3     1  UNL1        0.0870
      4  O          6.4660    3.5670    2.2560 O.2     1  UNL1       -0.3000
      5  C          5.2240    1.4860    0.9750 C.3     1  UNL1        0.0430
      6  C          6.0820    0.4280    0.4130 C.2     1  UNL1       -0.0440
      7  C          6.4840   -0.6730    1.1770 C.2     1  UNL1        0.0080
      8  C          6.5020    0.5130   -0.8950 C.2     1  UNL1        0.0540
      9  C          7.2890   -1.6360    0.5960 C.2     1  UNL1        0.0510
     10  C          7.3150   -0.4630   -1.4790 C.2     1  UNL1        0.1660
     11  C          7.7120   -1.5460   -0.7270 C.2     1  UNL1        0.1650
     12  O          7.8580   -0.6040   -2.7380 O.2     1  UNL1       -0.4540
     13  O          8.4980   -2.3380   -1.5490 O.2     1  UNL1       -0.4540
     14  C          8.5420   -1.8250   -2.8590 C.3     1  UNL1        0.4680
@<TRIPOS>BOND
     1    14    12    1
     2    14    13    1
     3    12    10    1
     4    13    11    1
     5    10     8    1
     6    10    11    2
     7     8     6    2
     8    11     9    1
     9     1     5    1
    10     1     2    1
    11     3     2    1
    12     6     5    1
    13     6     7    1
    14     9     7    2
    15     2     4    2
