@<TRIPOS>MOLECULE
/home/cewinharhar/GITHUB/reincatalyze/data/processed/docking_pred/2023-May-22-1902_sub9_nm5_bs15_s42_ex16_mel10_mts1000_k50_ec02_g099_lra9e-4_lrc1e-3/46824fcf52dc560be674bfd6df7e039c48ea1670_ligand_9.pdbqt
 14 15 0 0 0
SMALL
GASTEIGER

@<TRIPOS>ATOM
      1  C          5.4220    2.9260    0.1230 C.3     1  UNL1        0.0800
      2  C          6.2560    3.8500    0.9410 C.2     1  UNL1        0.1300
      3  C          7.2380    4.7750    0.3150 C.3     1  UNL1        0.0870
      4  O          6.1570    3.8740    2.1570 O.2     1  UNL1       -0.3000
      5  C          5.2070    1.6040    0.8340 C.3     1  UNL1        0.0430
      6  C          6.0310    0.5300    0.2520 C.2     1  UNL1       -0.0440
      7  C          6.4080    0.5440   -1.0960 C.2     1  UNL1        0.0080
      8  C          6.4470   -0.5160    1.0440 C.2     1  UNL1        0.0540
      9  C          7.1830   -0.4910   -1.5870 C.2     1  UNL1        0.0510
     10  C          7.2310   -1.5600    0.5430 C.2     1  UNL1        0.1660
     11  C          7.6020   -1.5470   -0.7840 C.2     1  UNL1        0.1650
     12  O          7.7630   -2.6950    1.1170 O.2     1  UNL1       -0.4540
     13  O          8.3620   -2.6860   -0.9980 O.2     1  UNL1       -0.4540
     14  C          8.5660   -3.3940    0.2010 C.3     1  UNL1        0.4680
@<TRIPOS>BOND
     1     9     7    1
     2     9    11    2
     3     7     6    2
     4    13    11    1
     5    13    14    1
     6    11    10    1
     7     1     5    1
     8     1     2    1
     9    14    12    1
    10     6     5    1
    11     6     8    1
    12     3     2    1
    13    10     8    2
    14    10    12    1
    15     2     4    2
