@<TRIPOS>MOLECULE
/home/cewinharhar/GITHUB/reincatalyze/data/processed/docking_pred/2023-May-22-1902_sub9_nm5_bs15_s42_ex16_mel10_mts1000_k50_ec02_g099_lra9e-4_lrc1e-3/46824fcf52dc560be674bfd6df7e039c48ea1670_ligand_9.pdbqt
 14 15 0 0 0
SMALL
GASTEIGER

@<TRIPOS>ATOM
      1  C          5.5010    1.9260    1.2570 C.3     1  UNL1        0.0800
      2  C          5.0480    0.7140    1.9950 C.2     1  UNL1        0.1300
      3  C          5.9180   -0.4830    2.1400 C.3     1  UNL1        0.0870
      4  O          3.9410    0.6700    2.5070 O.2     1  UNL1       -0.3000
      5  C          5.3810    1.7330   -0.2420 C.3     1  UNL1        0.0430
      6  C          6.5520    1.0320   -0.7990 C.2     1  UNL1       -0.0440
      7  C          7.8570    1.4670   -0.5410 C.2     1  UNL1        0.0080
      8  C          6.3700   -0.0790   -1.5900 C.2     1  UNL1        0.0540
      9  C          8.9180    0.7690   -1.0900 C.2     1  UNL1        0.0510
     10  C          7.4450   -0.7820   -2.1420 C.2     1  UNL1        0.1660
     11  C          8.7290   -0.3540   -1.8900 C.2     1  UNL1        0.1650
     12  O          7.5240   -1.8970   -2.9480 O.2     1  UNL1       -0.4540
     13  O          9.5790   -1.2250   -2.5530 O.2     1  UNL1       -0.4540
     14  C          8.8610   -2.2710   -3.1620 C.3     1  UNL1        0.4680
@<TRIPOS>BOND
     1    14    12    1
     2    14    13    1
     3    12    10    1
     4    13    11    1
     5    10    11    2
     6    10     8    1
     7    11     9    1
     8     8     6    2
     9     9     7    2
    10     6     7    1
    11     6     5    1
    12     5     1    1
    13     1     2    1
    14     2     3    1
    15     2     4    2
