@<TRIPOS>MOLECULE
/home/cewinharhar/GITHUB/reincatalyze/data/processed/docking_pred/2023-May-22-1902_sub9_nm5_bs15_s42_ex16_mel10_mts1000_k50_ec02_g099_lra9e-4_lrc1e-3/46824fcf52dc560be674bfd6df7e039c48ea1670_ligand_9.pdbqt
 14 15 0 0 0
SMALL
GASTEIGER

@<TRIPOS>ATOM
      1  C          5.3710    2.7820    0.1080 C.3     1  UNL1        0.0800
      2  C          6.2200    3.6800    0.9400 C.2     1  UNL1        0.1300
      3  C          7.0720    4.7360    0.3300 C.3     1  UNL1        0.0870
      4  O          6.2410    3.5740    2.1560 O.2     1  UNL1       -0.3000
      5  C          5.5950    1.3270    0.4660 C.3     1  UNL1        0.0430
      6  C          6.6940    0.7340   -0.3170 C.2     1  UNL1       -0.0440
      7  C          7.9500    1.3480   -0.3980 C.2     1  UNL1        0.0080
      8  C          6.4940   -0.4520   -0.9860 C.2     1  UNL1        0.0540
      9  C          8.9440    0.7450   -1.1470 C.2     1  UNL1        0.0510
     10  C          7.5020   -1.0570   -1.7410 C.2     1  UNL1        0.1660
     11  C          8.7370   -0.4530   -1.8230 C.2     1  UNL1        0.1650
     12  O          7.5510   -2.2160   -2.4870 O.2     1  UNL1       -0.4540
     13  O          9.5270   -1.2630   -2.6240 O.2     1  UNL1       -0.4540
     14  C          8.8420   -2.4360   -2.9920 C.3     1  UNL1        0.4680
@<TRIPOS>BOND
     1    14    13    1
     2    14    12    1
     3    13    11    1
     4    12    10    1
     5    11    10    2
     6    11     9    1
     7    10     8    1
     8     9     7    2
     9     8     6    2
    10     7     6    1
    11     6     5    1
    12     1     5    1
    13     1     2    1
    14     3     2    1
    15     2     4    2
