@<TRIPOS>MOLECULE
/home/cewinharhar/GITHUB/reincatalyze/data/processed/docking_pred/2023-May-22-1902_sub9_nm5_bs15_s42_ex16_mel10_mts1000_k50_ec02_g099_lra9e-4_lrc1e-3/46861e00ed193d15618049a480e2ca269f83ce14_ligand_9.pdbqt
 14 15 0 0 0
SMALL
GASTEIGER

@<TRIPOS>ATOM
      1  C          5.3860    2.9770    0.1170 C.3     1  UNL1        0.0800
      2  C          6.3160    3.7740    0.9650 C.2     1  UNL1        0.1300
      3  C          7.2570    4.7630    0.3750 C.3     1  UNL1        0.0870
      4  O          6.3310    3.6370    2.1780 O.2     1  UNL1       -0.3000
      5  C          5.0770    1.6350    0.7510 C.3     1  UNL1        0.0430
      6  C          5.9430    0.5670    0.2210 C.2     1  UNL1       -0.0440
      7  C          6.3680    0.5620   -1.1120 C.2     1  UNL1        0.0080
      8  C          6.3530   -0.4530    1.0500 C.2     1  UNL1        0.0540
      9  C          7.1810   -0.4660   -1.5530 C.2     1  UNL1        0.0510
     10  C          7.1760   -1.4890    0.5990 C.2     1  UNL1        0.1660
     11  C          7.5930   -1.4960   -0.7130 C.2     1  UNL1        0.1650
     12  O          7.7110   -2.6000    1.2160 O.2     1  UNL1       -0.4540
     13  O          8.3850   -2.6220   -0.8760 O.2     1  UNL1       -0.4540
     14  C          8.5600   -3.3010    0.3440 C.3     1  UNL1        0.4680
@<TRIPOS>BOND
     1     9     7    1
     2     9    11    2
     3     7     6    2
     4    13    11    1
     5    13    14    1
     6    11    10    1
     7     1     5    1
     8     1     2    1
     9     6     5    1
    10     6     8    1
    11    14    12    1
    12     3     2    1
    13    10     8    2
    14    10    12    1
    15     2     4    2
