@<TRIPOS>MOLECULE
/home/cewinharhar/GITHUB/reincatalyze/data/processed/docking_pred/2023-May-22-1902_sub9_nm5_bs15_s42_ex16_mel10_mts1000_k50_ec02_g099_lra9e-4_lrc1e-3/46861e00ed193d15618049a480e2ca269f83ce14_ligand_9.pdbqt
 14 15 0 0 0
SMALL
GASTEIGER

@<TRIPOS>ATOM
      1  C          5.4410    2.9100    0.1950 C.3     1  UNL1        0.0800
      2  C          6.2470    3.8790    0.9890 C.2     1  UNL1        0.1300
      3  C          7.2470    4.7730    0.3470 C.3     1  UNL1        0.0870
      4  O          6.1070    3.9680    2.1980 O.2     1  UNL1       -0.3000
      5  C          5.7150    1.4830    0.6270 C.3     1  UNL1        0.0430
      6  C          6.7580    0.8520   -0.2010 C.2     1  UNL1       -0.0440
      7  C          8.0300    1.4210   -0.3370 C.2     1  UNL1        0.0080
      8  C          6.4870   -0.3260   -0.8590 C.2     1  UNL1        0.0540
      9  C          8.9690    0.7830   -1.1270 C.2     1  UNL1        0.0510
     10  C          7.4410   -0.9670   -1.6560 C.2     1  UNL1        0.1660
     11  C          8.6920   -0.4070   -1.7910 C.2     1  UNL1        0.1650
     12  O          7.4160   -2.1260   -2.4020 O.2     1  UNL1       -0.4540
     13  O          9.4170   -1.2440   -2.6250 O.2     1  UNL1       -0.4540
     14  C          8.6760   -2.3930   -2.9620 C.3     1  UNL1        0.4680
@<TRIPOS>BOND
     1    14    13    1
     2    14    12    1
     3    13    11    1
     4    12    10    1
     5    11    10    2
     6    11     9    1
     7    10     8    1
     8     9     7    2
     9     8     6    2
    10     7     6    1
    11     6     5    1
    12     1     5    1
    13     1     2    1
    14     3     2    1
    15     2     4    2
