MODEL 1
REMARK VINA RESULT:      -7.8      0.000      0.000
REMARK SMILES CC(=O)CCc1ccc2c(c1)OCO2
REMARK SMILES IDX 4 1 2 2 1 3 3 4 5 5 6 6 7 7 11 8 8 9 10 10 9 11 12 12 14 13
REMARK SMILES IDX 13 14
REMARK H PARENT
REMARK Flexibility Score: inf
ROOT
ATOM      1  C   UNL     1       5.320   2.941   0.243  1.00  0.00     0.080 C 
ENDROOT
BRANCH   1   2
ATOM      2  C   UNL     1       6.339   3.693   1.027  1.00  0.00     0.130 C 
ATOM      3  C   UNL     1       7.169   4.761   0.409  1.00  0.00     0.087 C 
ATOM      4  O   UNL     1       6.524   3.450   2.209  1.00  0.00    -0.300 OA
ENDBRANCH   1   2
BRANCH   1   5
ATOM      5  C   UNL     1       5.045   1.582   0.855  1.00  0.00     0.043 C 
BRANCH   5   6
ATOM      6  C   UNL     1       5.929   0.543   0.297  1.00  0.00    -0.044 A 
ATOM      7  C   UNL     1       6.360   0.585  -1.034  1.00  0.00     0.008 A 
ATOM      8  C   UNL     1       6.348  -0.497   1.095  1.00  0.00     0.054 A 
ATOM      9  C   UNL     1       7.190  -0.418  -1.502  1.00  0.00     0.051 A 
ATOM     10  C   UNL     1       7.187  -1.508   0.617  1.00  0.00     0.166 A 
ATOM     11  C   UNL     1       7.611  -1.468  -0.693  1.00  0.00     0.165 A 
ATOM     12  O   UNL     1       7.733  -2.631   1.202  1.00  0.00    -0.454 OA
ATOM     13  O   UNL     1       8.418  -2.578  -0.887  1.00  0.00    -0.454 OA
ATOM     14  C   UNL     1       8.596  -3.293   0.313  1.00  0.00     0.468 C 
ENDBRANCH   5   6
ENDBRANCH   1   5
TORSDOF 3
ENDMDL
MODEL 2
REMARK VINA RESULT:      -7.7      1.017      2.004
REMARK SMILES CC(=O)CCc1ccc2c(c1)OCO2
REMARK SMILES IDX 4 1 2 2 1 3 3 4 5 5 6 6 7 7 11 8 8 9 10 10 9 11 12 12 14 13
REMARK SMILES IDX 13 14
REMARK H PARENT
REMARK Flexibility Score: inf
ROOT
ATOM      1  C   UNL     1       5.460   2.893   0.342  1.00  0.00     0.080 C 
ENDROOT
BRANCH   1   2
ATOM      2  C   UNL     1       6.283   3.891   1.082  1.00  0.00     0.130 C 
ATOM      3  C   UNL     1       7.254   4.775   0.383  1.00  0.00     0.087 C 
ATOM      4  O   UNL     1       6.183   4.012   2.292  1.00  0.00    -0.300 OA
ENDBRANCH   1   2
BRANCH   1   5
ATOM      5  C   UNL     1       5.324   1.603   1.126  1.00  0.00     0.043 C 
BRANCH   5   6
ATOM      6  C   UNL     1       6.100   0.509   0.516  1.00  0.00    -0.044 A 
ATOM      7  C   UNL     1       6.486  -0.616   1.254  1.00  0.00     0.008 A 
ATOM      8  C   UNL     1       6.457   0.583  -0.811  1.00  0.00     0.054 A 
ATOM      9  C   UNL     1       7.213  -1.613   0.628  1.00  0.00     0.051 A 
ATOM     10  C   UNL     1       7.192  -0.427  -1.440  1.00  0.00     0.166 A 
ATOM     11  C   UNL     1       7.573  -1.534  -0.714  1.00  0.00     0.165 A 
ATOM     12  O   UNL     1       7.663  -0.585  -2.726  1.00  0.00    -0.454 OA
ATOM     13  O   UNL     1       8.277  -2.357  -1.579  1.00  0.00    -0.454 OA
ATOM     14  C   UNL     1       8.280  -1.837  -2.887  1.00  0.00     0.468 C 
ENDBRANCH   5   6
ENDBRANCH   1   5
TORSDOF 3
ENDMDL
MODEL 3
REMARK VINA RESULT:      -7.6      2.393      3.019
REMARK SMILES CC(=O)CCc1ccc2c(c1)OCO2
REMARK SMILES IDX 4 1 2 2 1 3 3 4 5 5 6 6 7 7 11 8 8 9 10 10 9 11 12 12 14 13
REMARK SMILES IDX 13 14
REMARK H PARENT
REMARK Flexibility Score: inf
ROOT
ATOM      1  C   UNL     1       5.519   1.917   1.264  1.00  0.00     0.080 C 
ENDROOT
BRANCH   1   2
ATOM      2  C   UNL     1       5.070   0.703   2.002  1.00  0.00     0.130 C 
ATOM      3  C   UNL     1       5.952  -0.484   2.161  1.00  0.00     0.087 C 
ATOM      4  O   UNL     1       3.957   0.648   2.499  1.00  0.00    -0.300 OA
ENDBRANCH   1   2
BRANCH   1   5
ATOM      5  C   UNL     1       5.394   1.727  -0.235  1.00  0.00     0.043 C 
BRANCH   5   6
ATOM      6  C   UNL     1       6.562   1.026  -0.797  1.00  0.00    -0.044 A 
ATOM      7  C   UNL     1       7.868   1.462  -0.547  1.00  0.00     0.008 A 
ATOM      8  C   UNL     1       6.376  -0.087  -1.585  1.00  0.00     0.054 A 
ATOM      9  C   UNL     1       8.926   0.763  -1.100  1.00  0.00     0.051 A 
ATOM     10  C   UNL     1       7.449  -0.790  -2.141  1.00  0.00     0.166 A 
ATOM     11  C   UNL     1       8.734  -0.361  -1.897  1.00  0.00     0.165 A 
ATOM     12  O   UNL     1       7.524  -1.907  -2.946  1.00  0.00    -0.454 OA
ATOM     13  O   UNL     1       9.581  -1.233  -2.563  1.00  0.00    -0.454 OA
ATOM     14  C   UNL     1       8.860  -2.281  -3.166  1.00  0.00     0.468 C 
ENDBRANCH   5   6
ENDBRANCH   1   5
TORSDOF 3
ENDMDL
MODEL 4
REMARK VINA RESULT:      -7.5      1.777      2.463
REMARK SMILES CC(=O)CCc1ccc2c(c1)OCO2
REMARK SMILES IDX 4 1 2 2 1 3 3 4 5 5 6 6 7 7 11 8 8 9 10 10 9 11 12 12 14 13
REMARK SMILES IDX 13 14
REMARK H PARENT
REMARK Flexibility Score: inf
ROOT
ATOM      1  C   UNL     1       5.745   1.334  -0.339  1.00  0.00     0.080 C 
ENDROOT
BRANCH   1   2
ATOM      2  C   UNL     1       5.160   1.305   1.030  1.00  0.00     0.130 C 
ATOM      3  C   UNL     1       5.383   0.158   1.951  1.00  0.00     0.087 C 
ATOM      4  O   UNL     1       4.477   2.230   1.439  1.00  0.00    -0.300 OA
ENDBRANCH   1   2
BRANCH   1   5
ATOM      5  C   UNL     1       7.243   1.108  -0.303  1.00  0.00     0.043 C 
BRANCH   5   6
ATOM      6  C   UNL     1       7.616  -0.186  -0.903  1.00  0.00    -0.044 A 
ATOM      7  C   UNL     1       7.692  -0.356  -2.290  1.00  0.00     0.008 A 
ATOM      8  C   UNL     1       7.900  -1.258  -0.089  1.00  0.00     0.054 A 
ATOM      9  C   UNL     1       8.047  -1.593  -2.796  1.00  0.00     0.051 A 
ATOM     10  C   UNL     1       8.260  -2.507  -0.605  1.00  0.00     0.166 A 
ATOM     11  C   UNL     1       8.334  -2.676  -1.969  1.00  0.00     0.165 A 
ATOM     12  O   UNL     1       8.585  -3.710  -0.014  1.00  0.00    -0.454 OA
ATOM     13  O   UNL     1       8.707  -3.992  -2.191  1.00  0.00    -0.454 OA
ATOM     14  C   UNL     1       8.965  -4.658  -0.978  1.00  0.00     0.468 C 
ENDBRANCH   5   6
ENDBRANCH   1   5
TORSDOF 3
ENDMDL
MODEL 5
REMARK VINA RESULT:      -7.4      1.665      2.223
REMARK SMILES CC(=O)CCc1ccc2c(c1)OCO2
REMARK SMILES IDX 4 1 2 2 1 3 3 4 5 5 6 6 7 7 11 8 8 9 10 10 9 11 12 12 14 13
REMARK SMILES IDX 13 14
REMARK H PARENT
REMARK Flexibility Score: inf
ROOT
ATOM      1  C   UNL     1       6.429   0.979   1.049  1.00  0.00     0.080 C 
ENDROOT
BRANCH   1   2
ATOM      2  C   UNL     1       5.178   1.769   0.876  1.00  0.00     0.130 C 
ATOM      3  C   UNL     1       4.910   2.545  -0.365  1.00  0.00     0.087 C 
ATOM      4  O   UNL     1       4.332   1.804   1.754  1.00  0.00    -0.300 OA
ENDBRANCH   1   2
BRANCH   1   5
ATOM      5  C   UNL     1       7.350   1.137  -0.144  1.00  0.00     0.043 C 
BRANCH   5   6
ATOM      6  C   UNL     1       7.644  -0.158  -0.783  1.00  0.00    -0.044 A 
ATOM      7  C   UNL     1       7.584  -0.320  -2.172  1.00  0.00     0.008 A 
ATOM      8  C   UNL     1       7.988  -1.240  -0.006  1.00  0.00     0.054 A 
ATOM      9  C   UNL     1       7.871  -1.559  -2.716  1.00  0.00     0.051 A 
ATOM     10  C   UNL     1       8.278  -2.490  -0.560  1.00  0.00     0.166 A 
ATOM     11  C   UNL     1       8.218  -2.651  -1.927  1.00  0.00     0.165 A 
ATOM     12  O   UNL     1       8.638  -3.702  -0.010  1.00  0.00    -0.454 OA
ATOM     13  O   UNL     1       8.548  -3.971  -2.190  1.00  0.00    -0.454 OA
ATOM     14  C   UNL     1       8.910  -4.649  -1.010  1.00  0.00     0.468 C 
ENDBRANCH   5   6
ENDBRANCH   1   5
TORSDOF 3
ENDMDL
