@<TRIPOS>MOLECULE
/home/cewinharhar/GITHUB/reincatalyze/data/processed/docking_pred/2023-May-22-1902_sub9_nm5_bs15_s42_ex16_mel10_mts1000_k50_ec02_g099_lra9e-4_lrc1e-3/46aa5159a95d0d08c04f597503a56ad94e9ef6ed_ligand_9.pdbqt
 14 15 0 0 0
SMALL
GASTEIGER

@<TRIPOS>ATOM
      1  C          5.3200    2.9410    0.2430 C.3     1  UNL1        0.0800
      2  C          6.3390    3.6930    1.0270 C.2     1  UNL1        0.1300
      3  C          7.1690    4.7610    0.4090 C.3     1  UNL1        0.0870
      4  O          6.5240    3.4500    2.2090 O.2     1  UNL1       -0.3000
      5  C          5.0450    1.5820    0.8550 C.3     1  UNL1        0.0430
      6  C          5.9290    0.5430    0.2970 C.2     1  UNL1       -0.0440
      7  C          6.3600    0.5850   -1.0340 C.2     1  UNL1        0.0080
      8  C          6.3480   -0.4970    1.0950 C.2     1  UNL1        0.0540
      9  C          7.1900   -0.4180   -1.5020 C.2     1  UNL1        0.0510
     10  C          7.1870   -1.5080    0.6170 C.2     1  UNL1        0.1660
     11  C          7.6110   -1.4680   -0.6930 C.2     1  UNL1        0.1650
     12  O          7.7330   -2.6310    1.2020 O.2     1  UNL1       -0.4540
     13  O          8.4180   -2.5780   -0.8870 O.2     1  UNL1       -0.4540
     14  C          8.5960   -3.2930    0.3130 C.3     1  UNL1        0.4680
@<TRIPOS>BOND
     1     9     7    1
     2     9    11    2
     3     7     6    2
     4    13    11    1
     5    13    14    1
     6    11    10    1
     7     1     5    1
     8     1     2    1
     9     6     5    1
    10     6     8    1
    11    14    12    1
    12     3     2    1
    13    10     8    2
    14    10    12    1
    15     2     4    2
