@<TRIPOS>MOLECULE
/home/cewinharhar/GITHUB/reincatalyze/data/processed/docking_pred/2023-May-22-1902_sub9_nm5_bs15_s42_ex16_mel10_mts1000_k50_ec02_g099_lra9e-4_lrc1e-3/49b3117837231080fe644fe44c00424f4b8d2b91_ligand_9.pdbqt
 14 15 0 0 0
SMALL
GASTEIGER

@<TRIPOS>ATOM
      1  C          5.3180    3.0300    0.2430 C.3     1  UNL1        0.0800
      2  C          6.3480    3.7410    1.0510 C.2     1  UNL1        0.1300
      3  C          7.2370    4.7710    0.4510 C.3     1  UNL1        0.0870
      4  O          6.4930    3.4960    2.2380 O.2     1  UNL1       -0.3000
      5  C          5.0010    1.6690    0.8310 C.3     1  UNL1        0.0430
      6  C          5.8870    0.6210    0.2940 C.2     1  UNL1       -0.0440
      7  C          6.3230    0.6410   -1.0360 C.2     1  UNL1        0.0080
      8  C          6.3040   -0.4040    1.1110 C.2     1  UNL1        0.0540
      9  C          7.1550   -0.3690   -1.4840 C.2     1  UNL1        0.0510
     10  C          7.1450   -1.4230    0.6540 C.2     1  UNL1        0.1660
     11  C          7.5740   -1.4050   -0.6550 C.2     1  UNL1        0.1650
     12  O          7.6910   -2.5350    1.2590 O.2     1  UNL1       -0.4540
     13  O          8.3830   -2.5170   -0.8270 O.2     1  UNL1       -0.4540
     14  C          8.5570   -3.2110    0.3850 C.3     1  UNL1        0.4680
@<TRIPOS>BOND
     1     9     7    1
     2     9    11    2
     3     7     6    2
     4    13    11    1
     5    13    14    1
     6    11    10    1
     7     1     5    1
     8     1     2    1
     9     6     5    1
    10     6     8    1
    11    14    12    1
    12     3     2    1
    13    10     8    2
    14    10    12    1
    15     2     4    2
