MODEL 1
REMARK VINA RESULT:      -8.0      0.000      0.000
REMARK SMILES CC(=O)CCc1ccc2c(c1)OCO2
REMARK SMILES IDX 4 1 2 2 1 3 3 4 5 5 6 6 7 7 11 8 8 9 10 10 9 11 12 12 14 13
REMARK SMILES IDX 13 14
REMARK H PARENT
REMARK Flexibility Score: inf
ROOT
ATOM      1  C   UNL     1       6.011   1.636   1.148  1.00  0.00     0.080 C 
ENDROOT
BRANCH   1   2
ATOM      2  C   UNL     1       5.435   0.541   1.977  1.00  0.00     0.130 C 
ATOM      3  C   UNL     1       6.218  -0.678   2.313  1.00  0.00     0.087 C 
ATOM      4  O   UNL     1       4.295   0.614   2.407  1.00  0.00    -0.300 OA
ENDBRANCH   1   2
BRANCH   1   5
ATOM      5  C   UNL     1       5.731   1.417  -0.326  1.00  0.00     0.043 C 
BRANCH   5   6
ATOM      6  C   UNL     1       6.801   0.641  -0.976  1.00  0.00    -0.044 A 
ATOM      7  C   UNL     1       8.146   1.013  -0.868  1.00  0.00     0.008 A 
ATOM      8  C   UNL     1       6.483  -0.481  -1.708  1.00  0.00     0.054 A 
ATOM      9  C   UNL     1       9.108   0.245  -1.499  1.00  0.00     0.051 A 
ATOM     10  C   UNL     1       7.459  -1.254  -2.344  1.00  0.00     0.166 A 
ATOM     11  C   UNL     1       8.783  -0.887  -2.239  1.00  0.00     0.165 A 
ATOM     12  O   UNL     1       7.399  -2.393  -3.118  1.00  0.00    -0.454 OA
ATOM     13  O   UNL     1       9.515  -1.820  -2.956  1.00  0.00    -0.454 OA
ATOM     14  C   UNL     1       8.686  -2.843  -3.454  1.00  0.00     0.468 C 
ENDBRANCH   5   6
ENDBRANCH   1   5
TORSDOF 3
ENDMDL
MODEL 2
REMARK VINA RESULT:      -7.8      1.604      2.193
REMARK SMILES CC(=O)CCc1ccc2c(c1)OCO2
REMARK SMILES IDX 4 1 2 2 1 3 3 4 5 5 6 6 7 7 11 8 8 9 10 10 9 11 12 12 14 13
REMARK SMILES IDX 13 14
REMARK H PARENT
REMARK Flexibility Score: inf
ROOT
ATOM      1  C   UNL     1       5.537   2.843   0.039  1.00  0.00     0.080 C 
ENDROOT
BRANCH   1   2
ATOM      2  C   UNL     1       6.255   3.833   0.888  1.00  0.00     0.130 C 
ATOM      3  C   UNL     1       7.254   4.775   0.314  1.00  0.00     0.087 C 
ATOM      4  O   UNL     1       6.044   3.901   2.088  1.00  0.00    -0.300 OA
ENDBRANCH   1   2
BRANCH   1   5
ATOM      5  C   UNL     1       5.820   1.423   0.489  1.00  0.00     0.043 C 
BRANCH   5   6
ATOM      6  C   UNL     1       6.823   0.768  -0.368  1.00  0.00    -0.044 A 
ATOM      7  C   UNL     1       8.133   1.250  -0.464  1.00  0.00     0.008 A 
ATOM      8  C   UNL     1       6.475  -0.348  -1.095  1.00  0.00     0.054 A 
ATOM      9  C   UNL     1       9.032   0.593  -1.284  1.00  0.00     0.051 A 
ATOM     10  C   UNL     1       7.387  -1.009  -1.922  1.00  0.00     0.166 A 
ATOM     11  C   UNL     1       8.677  -0.534  -2.018  1.00  0.00     0.165 A 
ATOM     12  O   UNL     1       7.287  -2.119  -2.734  1.00  0.00    -0.454 OA
ATOM     13  O   UNL     1       9.348  -1.372  -2.894  1.00  0.00    -0.454 OA
ATOM     14  C   UNL     1       8.530  -2.443  -3.301  1.00  0.00     0.468 C 
ENDBRANCH   5   6
ENDBRANCH   1   5
TORSDOF 3
ENDMDL
MODEL 3
REMARK VINA RESULT:      -7.7      1.961      2.756
REMARK SMILES CC(=O)CCc1ccc2c(c1)OCO2
REMARK SMILES IDX 4 1 2 2 1 3 3 4 5 5 6 6 7 7 11 8 8 9 10 10 9 11 12 12 14 13
REMARK SMILES IDX 13 14
REMARK H PARENT
REMARK Flexibility Score: inf
ROOT
ATOM      1  C   UNL     1       5.409   2.957   0.161  1.00  0.00     0.080 C 
ENDROOT
BRANCH   1   2
ATOM      2  C   UNL     1       6.283   3.852   0.970  1.00  0.00     0.130 C 
ATOM      3  C   UNL     1       7.260   4.775   0.333  1.00  0.00     0.087 C 
ATOM      4  O   UNL     1       6.222   3.852   2.189  1.00  0.00    -0.300 OA
ENDBRANCH   1   2
BRANCH   1   5
ATOM      5  C   UNL     1       5.141   1.651   0.881  1.00  0.00     0.043 C 
BRANCH   5   6
ATOM      6  C   UNL     1       5.980   0.557   0.361  1.00  0.00    -0.044 A 
ATOM      7  C   UNL     1       6.351  -0.528   1.164  1.00  0.00     0.008 A 
ATOM      8  C   UNL     1       6.411   0.591  -0.946  1.00  0.00     0.054 A 
ATOM      9  C   UNL     1       7.139  -1.526   0.620  1.00  0.00     0.051 A 
ATOM     10  C   UNL     1       7.208  -0.421  -1.491  1.00  0.00     0.166 A 
ATOM     11  C   UNL     1       7.575  -1.488  -0.701  1.00  0.00     0.165 A 
ATOM     12  O   UNL     1       7.757  -0.614  -2.740  1.00  0.00    -0.454 OA
ATOM     13  O   UNL     1       8.349  -2.323  -1.491  1.00  0.00    -0.454 OA
ATOM     14  C   UNL     1       8.415  -1.853  -2.816  1.00  0.00     0.468 C 
ENDBRANCH   5   6
ENDBRANCH   1   5
TORSDOF 3
ENDMDL
MODEL 4
REMARK VINA RESULT:      -7.6      2.419      3.121
REMARK SMILES CC(=O)CCc1ccc2c(c1)OCO2
REMARK SMILES IDX 4 1 2 2 1 3 3 4 5 5 6 6 7 7 11 8 8 9 10 10 9 11 12 12 14 13
REMARK SMILES IDX 13 14
REMARK H PARENT
REMARK Flexibility Score: inf
ROOT
ATOM      1  C   UNL     1       5.318   3.030   0.243  1.00  0.00     0.080 C 
ENDROOT
BRANCH   1   2
ATOM      2  C   UNL     1       6.348   3.741   1.051  1.00  0.00     0.130 C 
ATOM      3  C   UNL     1       7.237   4.771   0.451  1.00  0.00     0.087 C 
ATOM      4  O   UNL     1       6.493   3.496   2.238  1.00  0.00    -0.300 OA
ENDBRANCH   1   2
BRANCH   1   5
ATOM      5  C   UNL     1       5.001   1.669   0.831  1.00  0.00     0.043 C 
BRANCH   5   6
ATOM      6  C   UNL     1       5.887   0.621   0.294  1.00  0.00    -0.044 A 
ATOM      7  C   UNL     1       6.323   0.641  -1.036  1.00  0.00     0.008 A 
ATOM      8  C   UNL     1       6.304  -0.404   1.111  1.00  0.00     0.054 A 
ATOM      9  C   UNL     1       7.155  -0.369  -1.484  1.00  0.00     0.051 A 
ATOM     10  C   UNL     1       7.145  -1.423   0.654  1.00  0.00     0.166 A 
ATOM     11  C   UNL     1       7.574  -1.405  -0.655  1.00  0.00     0.165 A 
ATOM     12  O   UNL     1       7.691  -2.535   1.259  1.00  0.00    -0.454 OA
ATOM     13  O   UNL     1       8.383  -2.517  -0.827  1.00  0.00    -0.454 OA
ATOM     14  C   UNL     1       8.557  -3.211   0.385  1.00  0.00     0.468 C 
ENDBRANCH   5   6
ENDBRANCH   1   5
TORSDOF 3
ENDMDL
MODEL 5
REMARK VINA RESULT:      -7.4      1.349      1.920
REMARK SMILES CC(=O)CCc1ccc2c(c1)OCO2
REMARK SMILES IDX 4 1 2 2 1 3 3 4 5 5 6 6 7 7 11 8 8 9 10 10 9 11 12 12 14 13
REMARK SMILES IDX 13 14
REMARK H PARENT
REMARK Flexibility Score: inf
ROOT
ATOM      1  C   UNL     1       6.367   1.790   1.203  1.00  0.00     0.080 C 
ENDROOT
BRANCH   1   2
ATOM      2  C   UNL     1       5.856   3.064   0.625  1.00  0.00     0.130 C 
ATOM      3  C   UNL     1       6.692   4.294   0.587  1.00  0.00     0.087 C 
ATOM      4  O   UNL     1       4.729   3.136   0.164  1.00  0.00    -0.300 OA
ENDBRANCH   1   2
BRANCH   1   5
ATOM      5  C   UNL     1       5.889   0.593   0.404  1.00  0.00     0.043 C 
BRANCH   5   6
ATOM      6  C   UNL     1       6.930   0.098  -0.514  1.00  0.00    -0.044 A 
ATOM      7  C   UNL     1       8.099   0.828  -0.760  1.00  0.00     0.008 A 
ATOM      8  C   UNL     1       6.761  -1.111  -1.149  1.00  0.00     0.054 A 
ATOM      9  C   UNL     1       9.041   0.313  -1.631  1.00  0.00     0.051 A 
ATOM     10  C   UNL     1       7.717  -1.628  -2.028  1.00  0.00     0.166 A 
ATOM     11  C   UNL     1       8.867  -0.910  -2.271  1.00  0.00     0.165 A 
ATOM     12  O   UNL     1       7.781  -2.788  -2.771  1.00  0.00    -0.454 OA
ATOM     13  O   UNL     1       9.621  -1.651  -3.167  1.00  0.00    -0.454 OA
ATOM     14  C   UNL     1       9.012  -2.891  -3.440  1.00  0.00     0.468 C 
ENDBRANCH   5   6
ENDBRANCH   1   5
TORSDOF 3
ENDMDL
