@<TRIPOS>MOLECULE
/home/cewinharhar/GITHUB/reincatalyze/data/processed/docking_pred/2023-May-22-1902_sub9_nm5_bs15_s42_ex16_mel10_mts1000_k50_ec02_g099_lra9e-4_lrc1e-3/49b3117837231080fe644fe44c00424f4b8d2b91_ligand_9.pdbqt
 14 15 0 0 0
SMALL
GASTEIGER

@<TRIPOS>ATOM
      1  C          5.4090    2.9570    0.1610 C.3     1  UNL1        0.0800
      2  C          6.2830    3.8520    0.9700 C.2     1  UNL1        0.1300
      3  C          7.2600    4.7750    0.3330 C.3     1  UNL1        0.0870
      4  O          6.2220    3.8520    2.1890 O.2     1  UNL1       -0.3000
      5  C          5.1410    1.6510    0.8810 C.3     1  UNL1        0.0430
      6  C          5.9800    0.5570    0.3610 C.2     1  UNL1       -0.0440
      7  C          6.3510   -0.5280    1.1640 C.2     1  UNL1        0.0080
      8  C          6.4110    0.5910   -0.9460 C.2     1  UNL1        0.0540
      9  C          7.1390   -1.5260    0.6200 C.2     1  UNL1        0.0510
     10  C          7.2080   -0.4210   -1.4910 C.2     1  UNL1        0.1660
     11  C          7.5750   -1.4880   -0.7010 C.2     1  UNL1        0.1650
     12  O          7.7570   -0.6140   -2.7400 O.2     1  UNL1       -0.4540
     13  O          8.3490   -2.3230   -1.4910 O.2     1  UNL1       -0.4540
     14  C          8.4150   -1.8530   -2.8160 C.3     1  UNL1        0.4680
@<TRIPOS>BOND
     1    14    12    1
     2    14    13    1
     3    12    10    1
     4    10     8    1
     5    10    11    2
     6    13    11    1
     7     8     6    2
     8    11     9    1
     9     1     5    1
    10     1     2    1
    11     3     2    1
    12     6     5    1
    13     6     7    1
    14     9     7    2
    15     2     4    2
