@<TRIPOS>MOLECULE
/home/cewinharhar/GITHUB/reincatalyze/data/processed/docking_pred/2023-May-22-1902_sub9_nm5_bs15_s42_ex16_mel10_mts1000_k50_ec02_g099_lra9e-4_lrc1e-3/49b3117837231080fe644fe44c00424f4b8d2b91_ligand_9.pdbqt
 14 15 0 0 0
SMALL
GASTEIGER

@<TRIPOS>ATOM
      1  C          6.0110    1.6360    1.1480 C.3     1  UNL1        0.0800
      2  C          5.4350    0.5410    1.9770 C.2     1  UNL1        0.1300
      3  C          6.2180   -0.6780    2.3130 C.3     1  UNL1        0.0870
      4  O          4.2950    0.6140    2.4070 O.2     1  UNL1       -0.3000
      5  C          5.7310    1.4170   -0.3260 C.3     1  UNL1        0.0430
      6  C          6.8010    0.6410   -0.9760 C.2     1  UNL1       -0.0440
      7  C          8.1460    1.0130   -0.8680 C.2     1  UNL1        0.0080
      8  C          6.4830   -0.4810   -1.7080 C.2     1  UNL1        0.0540
      9  C          9.1080    0.2450   -1.4990 C.2     1  UNL1        0.0510
     10  C          7.4590   -1.2540   -2.3440 C.2     1  UNL1        0.1660
     11  C          8.7830   -0.8870   -2.2390 C.2     1  UNL1        0.1650
     12  O          7.3990   -2.3930   -3.1180 O.2     1  UNL1       -0.4540
     13  O          9.5150   -1.8200   -2.9560 O.2     1  UNL1       -0.4540
     14  C          8.6860   -2.8430   -3.4540 C.3     1  UNL1        0.4680
@<TRIPOS>BOND
     1    14    12    1
     2    14    13    1
     3    12    10    1
     4    13    11    1
     5    10    11    2
     6    10     8    1
     7    11     9    1
     8     8     6    2
     9     9     7    2
    10     6     7    1
    11     6     5    1
    12     5     1    1
    13     1     2    1
    14     2     3    1
    15     2     4    2
