@<TRIPOS>MOLECULE
/home/cewinharhar/GITHUB/reincatalyze/data/processed/docking_pred/2023-May-22-1902_sub9_nm5_bs15_s42_ex16_mel10_mts1000_k50_ec02_g099_lra9e-4_lrc1e-3/49b3117837231080fe644fe44c00424f4b8d2b91_ligand_9.pdbqt
 14 15 0 0 0
SMALL
GASTEIGER

@<TRIPOS>ATOM
      1  C          6.3670    1.7900    1.2030 C.3     1  UNL1        0.0800
      2  C          5.8560    3.0640    0.6250 C.2     1  UNL1        0.1300
      3  C          6.6920    4.2940    0.5870 C.3     1  UNL1        0.0870
      4  O          4.7290    3.1360    0.1640 O.2     1  UNL1       -0.3000
      5  C          5.8890    0.5930    0.4040 C.3     1  UNL1        0.0430
      6  C          6.9300    0.0980   -0.5140 C.2     1  UNL1       -0.0440
      7  C          8.0990    0.8280   -0.7600 C.2     1  UNL1        0.0080
      8  C          6.7610   -1.1110   -1.1490 C.2     1  UNL1        0.0540
      9  C          9.0410    0.3130   -1.6310 C.2     1  UNL1        0.0510
     10  C          7.7170   -1.6280   -2.0280 C.2     1  UNL1        0.1660
     11  C          8.8670   -0.9100   -2.2710 C.2     1  UNL1        0.1650
     12  O          7.7810   -2.7880   -2.7710 O.2     1  UNL1       -0.4540
     13  O          9.6210   -1.6510   -3.1670 O.2     1  UNL1       -0.4540
     14  C          9.0120   -2.8910   -3.4400 C.3     1  UNL1        0.4680
@<TRIPOS>BOND
     1    14    13    1
     2    14    12    1
     3    13    11    1
     4    12    10    1
     5    11    10    2
     6    11     9    1
     7    10     8    1
     8     9     7    2
     9     8     6    2
    10     7     6    1
    11     6     5    1
    12     4     2    2
    13     5     1    1
    14     3     2    1
    15     2     1    1
