@<TRIPOS>MOLECULE
/home/cewinharhar/GITHUB/reincatalyze/data/processed/docking_pred/2023-May-22-1902_sub9_nm5_bs15_s42_ex16_mel10_mts1000_k50_ec02_g099_lra9e-4_lrc1e-3/49b3117837231080fe644fe44c00424f4b8d2b91_ligand_9.pdbqt
 14 15 0 0 0
SMALL
GASTEIGER

@<TRIPOS>ATOM
      1  C          5.5370    2.8430    0.0390 C.3     1  UNL1        0.0800
      2  C          6.2550    3.8330    0.8880 C.2     1  UNL1        0.1300
      3  C          7.2540    4.7750    0.3140 C.3     1  UNL1        0.0870
      4  O          6.0440    3.9010    2.0880 O.2     1  UNL1       -0.3000
      5  C          5.8200    1.4230    0.4890 C.3     1  UNL1        0.0430
      6  C          6.8230    0.7680   -0.3680 C.2     1  UNL1       -0.0440
      7  C          8.1330    1.2500   -0.4640 C.2     1  UNL1        0.0080
      8  C          6.4750   -0.3480   -1.0950 C.2     1  UNL1        0.0540
      9  C          9.0320    0.5930   -1.2840 C.2     1  UNL1        0.0510
     10  C          7.3870   -1.0090   -1.9220 C.2     1  UNL1        0.1660
     11  C          8.6770   -0.5340   -2.0180 C.2     1  UNL1        0.1650
     12  O          7.2870   -2.1190   -2.7340 O.2     1  UNL1       -0.4540
     13  O          9.3480   -1.3720   -2.8940 O.2     1  UNL1       -0.4540
     14  C          8.5300   -2.4430   -3.3010 C.3     1  UNL1        0.4680
@<TRIPOS>BOND
     1    14    13    1
     2    14    12    1
     3    13    11    1
     4    12    10    1
     5    11    10    2
     6    11     9    1
     7    10     8    1
     8     9     7    2
     9     8     6    2
    10     7     6    1
    11     6     5    1
    12     1     5    1
    13     1     2    1
    14     3     2    1
    15     2     4    2
