@<TRIPOS>MOLECULE
/home/cewinharhar/GITHUB/reincatalyze/data/processed/docking_pred/2023-May-22-1902_sub9_nm5_bs15_s42_ex16_mel10_mts1000_k50_ec02_g099_lra9e-4_lrc1e-3/4a3a178b6a4326eb13634b12f3ce9c4ec26f8538_ligand_9.pdbqt
 14 15 0 0 0
SMALL
GASTEIGER

@<TRIPOS>ATOM
      1  C          5.8840    1.1820   -0.3020 C.3     1  UNL1        0.0800
      2  C          5.3400    1.0360    1.0770 C.2     1  UNL1        0.1300
      3  C          5.6890   -0.1290    1.9340 C.3     1  UNL1        0.0870
      4  O          4.5870    1.8730    1.5460 O.2     1  UNL1       -0.3000
      5  C          7.4000    1.2250   -0.2940 C.3     1  UNL1        0.0430
      6  C          7.9810    0.1120   -1.0660 C.2     1  UNL1       -0.0440
      7  C          7.3990   -0.3380   -2.2560 C.2     1  UNL1        0.0080
      8  C          9.1260   -0.5050   -0.6150 C.2     1  UNL1        0.0540
      9  C          7.9900   -1.3860   -2.9380 C.2     1  UNL1        0.0510
     10  C          9.7200   -1.5640   -1.3090 C.2     1  UNL1        0.1660
     11  C          9.1470   -2.0080   -2.4800 C.2     1  UNL1        0.1650
     12  O         10.8410   -2.3310   -1.0720 O.2     1  UNL1       -0.4540
     13  O          9.9370   -3.0490   -2.9420 O.2     1  UNL1       -0.4540
     14  C         11.0710   -3.2270   -2.1280 C.3     1  UNL1        0.4680
@<TRIPOS>BOND
     1    13    11    1
     2    13    14    1
     3     9    11    2
     4     9     7    1
     5    11    10    1
     6     7     6    2
     7    14    12    1
     8    10    12    1
     9    10     8    2
    10     6     8    1
    11     6     5    1
    12     1     5    1
    13     1     2    1
    14     2     4    2
    15     2     3    1
