@<TRIPOS>MOLECULE
/home/cewinharhar/GITHUB/reincatalyze/data/processed/docking_pred/2023-May-22-1902_sub9_nm5_bs15_s42_ex16_mel10_mts1000_k50_ec02_g099_lra9e-4_lrc1e-3/4a3a178b6a4326eb13634b12f3ce9c4ec26f8538_ligand_9.pdbqt
 14 15 0 0 0
SMALL
GASTEIGER

@<TRIPOS>ATOM
      1  C          5.7320    1.1250    0.1820 C.3     1  UNL1        0.0800
      2  C          5.4320    2.5710    0.3780 C.2     1  UNL1        0.1300
      3  C          6.5100    3.5650    0.6250 C.3     1  UNL1        0.0870
      4  O          4.2840    2.9830    0.3420 O.2     1  UNL1       -0.3000
      5  C          6.0740    0.8240   -1.2640 C.3     1  UNL1        0.0430
      6  C          7.3870    0.1660   -1.3890 C.2     1  UNL1       -0.0440
      7  C          8.5500    0.7450   -0.8690 C.2     1  UNL1        0.0080
      8  C          7.4820   -1.0490   -2.0280 C.2     1  UNL1        0.0540
      9  C          9.7540    0.0800   -1.0160 C.2     1  UNL1        0.0510
     10  C          8.7010   -1.7180   -2.1730 C.2     1  UNL1        0.1660
     11  C          9.8460   -1.1480   -1.6640 C.2     1  UNL1        0.1650
     12  O          9.0520   -2.9160   -2.7590 O.2     1  UNL1       -0.4540
     13  O         10.8880   -2.0180   -1.9490 O.2     1  UNL1       -0.4540
     14  C         10.4150   -3.1930   -2.5620 C.3     1  UNL1        0.4680
@<TRIPOS>BOND
     1    12    14    1
     2    12    10    1
     3    14    13    1
     4    10     8    1
     5    10    11    2
     6     8     6    2
     7    13    11    1
     8    11     9    1
     9     6     5    1
    10     6     7    1
    11     5     1    1
    12     9     7    2
    13     1     2    1
    14     4     2    2
    15     2     3    1
