MODEL 1
REMARK VINA RESULT:      -8.2      0.000      0.000
REMARK SMILES CC(=O)CCc1ccc2c(c1)OCO2
REMARK SMILES IDX 4 1 2 2 1 3 3 4 5 5 6 6 7 7 11 8 8 9 10 10 9 11 12 12 14 13
REMARK SMILES IDX 13 14
REMARK H PARENT
REMARK Flexibility Score: inf
ROOT
ATOM      1  C   UNL     1       5.844   1.594   0.870  1.00  0.00     0.080 C 
ENDROOT
BRANCH   1   2
ATOM      2  C   UNL     1       5.388   0.591   1.872  1.00  0.00     0.130 C 
ATOM      3  C   UNL     1       6.234  -0.570   2.257  1.00  0.00     0.087 C 
ATOM      4  O   UNL     1       4.297   0.694   2.410  1.00  0.00    -0.300 OA
ENDBRANCH   1   2
BRANCH   1   5
ATOM      5  C   UNL     1       5.754   1.044  -0.539  1.00  0.00     0.043 C 
BRANCH   5   6
ATOM      6  C   UNL     1       7.007   0.385  -0.950  1.00  0.00    -0.044 A 
ATOM      7  C   UNL     1       8.252   0.996  -0.762  1.00  0.00     0.008 A 
ATOM      8  C   UNL     1       6.964  -0.861  -1.532  1.00  0.00     0.054 A 
ATOM      9  C   UNL     1       9.395   0.330  -1.166  1.00  0.00     0.051 A 
ATOM     10  C   UNL     1       8.122  -1.531  -1.938  1.00  0.00     0.166 A 
ATOM     11  C   UNL     1       9.347  -0.930  -1.754  1.00  0.00     0.165 A 
ATOM     12  O   UNL     1       8.339  -2.756  -2.532  1.00  0.00    -0.454 OA
ATOM     13  O   UNL     1      10.302  -1.808  -2.243  1.00  0.00    -0.454 OA
ATOM     14  C   UNL     1       9.713  -3.017  -2.662  1.00  0.00     0.468 C 
ENDBRANCH   5   6
ENDBRANCH   1   5
TORSDOF 3
ENDMDL
MODEL 2
REMARK VINA RESULT:      -7.8      2.115      2.543
REMARK SMILES CC(=O)CCc1ccc2c(c1)OCO2
REMARK SMILES IDX 4 1 2 2 1 3 3 4 5 5 6 6 7 7 11 8 8 9 10 10 9 11 12 12 14 13
REMARK SMILES IDX 13 14
REMARK H PARENT
REMARK Flexibility Score: inf
ROOT
ATOM      1  C   UNL     1       5.654   1.254  -0.444  1.00  0.00     0.080 C 
ENDROOT
BRANCH   1   2
ATOM      2  C   UNL     1       5.317   2.336   0.524  1.00  0.00     0.130 C 
ATOM      3  C   UNL     1       6.142   3.569   0.635  1.00  0.00     0.087 C 
ATOM      4  O   UNL     1       4.347   2.240   1.258  1.00  0.00    -0.300 OA
ENDBRANCH   1   2
BRANCH   1   5
ATOM      5  C   UNL     1       6.295   0.072   0.254  1.00  0.00     0.043 C 
BRANCH   5   6
ATOM      6  C   UNL     1       7.735  -0.024  -0.044  1.00  0.00    -0.044 A 
ATOM      7  C   UNL     1       8.371   0.892  -0.889  1.00  0.00     0.008 A 
ATOM      8  C   UNL     1       8.483  -1.033   0.519  1.00  0.00     0.054 A 
ATOM      9  C   UNL     1       9.725   0.753  -1.132  1.00  0.00     0.051 A 
ATOM     10  C   UNL     1       9.852  -1.169   0.271  1.00  0.00     0.166 A 
ATOM     11  C   UNL     1      10.478  -0.269  -0.562  1.00  0.00     0.165 A 
ATOM     12  O   UNL     1      10.800  -2.072   0.702  1.00  0.00    -0.454 OA
ATOM     13  O   UNL     1      11.812  -0.641  -0.624  1.00  0.00    -0.454 OA
ATOM     14  C   UNL     1      12.078  -1.725   0.234  1.00  0.00     0.468 C 
ENDBRANCH   5   6
ENDBRANCH   1   5
TORSDOF 3
ENDMDL
MODEL 3
REMARK VINA RESULT:      -7.8      1.338      1.701
REMARK SMILES CC(=O)CCc1ccc2c(c1)OCO2
REMARK SMILES IDX 4 1 2 2 1 3 3 4 5 5 6 6 7 7 11 8 8 9 10 10 9 11 12 12 14 13
REMARK SMILES IDX 13 14
REMARK H PARENT
REMARK Flexibility Score: inf
ROOT
ATOM      1  C   UNL     1       5.732   1.125   0.182  1.00  0.00     0.080 C 
ENDROOT
BRANCH   1   2
ATOM      2  C   UNL     1       5.432   2.571   0.378  1.00  0.00     0.130 C 
ATOM      3  C   UNL     1       6.510   3.565   0.625  1.00  0.00     0.087 C 
ATOM      4  O   UNL     1       4.284   2.983   0.342  1.00  0.00    -0.300 OA
ENDBRANCH   1   2
BRANCH   1   5
ATOM      5  C   UNL     1       6.074   0.824  -1.264  1.00  0.00     0.043 C 
BRANCH   5   6
ATOM      6  C   UNL     1       7.387   0.166  -1.389  1.00  0.00    -0.044 A 
ATOM      7  C   UNL     1       8.550   0.745  -0.869  1.00  0.00     0.008 A 
ATOM      8  C   UNL     1       7.482  -1.049  -2.028  1.00  0.00     0.054 A 
ATOM      9  C   UNL     1       9.754   0.080  -1.016  1.00  0.00     0.051 A 
ATOM     10  C   UNL     1       8.701  -1.718  -2.173  1.00  0.00     0.166 A 
ATOM     11  C   UNL     1       9.846  -1.148  -1.664  1.00  0.00     0.165 A 
ATOM     12  O   UNL     1       9.052  -2.916  -2.759  1.00  0.00    -0.454 OA
ATOM     13  O   UNL     1      10.888  -2.018  -1.949  1.00  0.00    -0.454 OA
ATOM     14  C   UNL     1      10.415  -3.193  -2.562  1.00  0.00     0.468 C 
ENDBRANCH   5   6
ENDBRANCH   1   5
TORSDOF 3
ENDMDL
MODEL 4
REMARK VINA RESULT:      -7.7      1.252      1.854
REMARK SMILES CC(=O)CCc1ccc2c(c1)OCO2
REMARK SMILES IDX 4 1 2 2 1 3 3 4 5 5 6 6 7 7 11 8 8 9 10 10 9 11 12 12 14 13
REMARK SMILES IDX 13 14
REMARK H PARENT
REMARK Flexibility Score: inf
ROOT
ATOM      1  C   UNL     1       5.577   2.331  -0.429  1.00  0.00     0.080 C 
ENDROOT
BRANCH   1   2
ATOM      2  C   UNL     1       6.078   3.190   0.680  1.00  0.00     0.130 C 
ATOM      3  C   UNL     1       6.835   4.443   0.417  1.00  0.00     0.087 C 
ATOM      4  O   UNL     1       5.880   2.887   1.846  1.00  0.00    -0.300 OA
ENDBRANCH   1   2
BRANCH   1   5
ATOM      5  C   UNL     1       5.712   0.860  -0.089  1.00  0.00     0.043 C 
BRANCH   5   6
ATOM      6  C   UNL     1       6.939   0.277  -0.662  1.00  0.00    -0.044 A 
ATOM      7  C   UNL     1       8.148   0.981  -0.673  1.00  0.00     0.008 A 
ATOM      8  C   UNL     1       6.906  -0.989  -1.200  1.00  0.00     0.054 A 
ATOM      9  C   UNL     1       9.267   0.383  -1.223  1.00  0.00     0.051 A 
ATOM     10  C   UNL     1       8.040  -1.590  -1.754  1.00  0.00     0.166 A 
ATOM     11  C   UNL     1       9.230  -0.898  -1.767  1.00  0.00     0.165 A 
ATOM     12  O   UNL     1       8.261  -2.817  -2.342  1.00  0.00    -0.454 OA
ATOM     13  O   UNL     1      10.168  -1.724  -2.367  1.00  0.00    -0.454 OA
ATOM     14  C   UNL     1       9.618  -2.984  -2.665  1.00  0.00     0.468 C 
ENDBRANCH   5   6
ENDBRANCH   1   5
TORSDOF 3
ENDMDL
MODEL 5
REMARK VINA RESULT:      -7.6      1.100      1.794
REMARK SMILES CC(=O)CCc1ccc2c(c1)OCO2
REMARK SMILES IDX 4 1 2 2 1 3 3 4 5 5 6 6 7 7 11 8 8 9 10 10 9 11 12 12 14 13
REMARK SMILES IDX 13 14
REMARK H PARENT
REMARK Flexibility Score: inf
ROOT
ATOM      1  C   UNL     1       5.884   1.182  -0.302  1.00  0.00     0.080 C 
ENDROOT
BRANCH   1   2
ATOM      2  C   UNL     1       5.340   1.036   1.077  1.00  0.00     0.130 C 
ATOM      3  C   UNL     1       5.689  -0.129   1.934  1.00  0.00     0.087 C 
ATOM      4  O   UNL     1       4.587   1.873   1.546  1.00  0.00    -0.300 OA
ENDBRANCH   1   2
BRANCH   1   5
ATOM      5  C   UNL     1       7.400   1.225  -0.294  1.00  0.00     0.043 C 
BRANCH   5   6
ATOM      6  C   UNL     1       7.981   0.112  -1.066  1.00  0.00    -0.044 A 
ATOM      7  C   UNL     1       7.399  -0.338  -2.256  1.00  0.00     0.008 A 
ATOM      8  C   UNL     1       9.126  -0.505  -0.615  1.00  0.00     0.054 A 
ATOM      9  C   UNL     1       7.990  -1.386  -2.938  1.00  0.00     0.051 A 
ATOM     10  C   UNL     1       9.720  -1.564  -1.309  1.00  0.00     0.166 A 
ATOM     11  C   UNL     1       9.147  -2.008  -2.480  1.00  0.00     0.165 A 
ATOM     12  O   UNL     1      10.841  -2.331  -1.072  1.00  0.00    -0.454 OA
ATOM     13  O   UNL     1       9.937  -3.049  -2.942  1.00  0.00    -0.454 OA
ATOM     14  C   UNL     1      11.071  -3.227  -2.128  1.00  0.00     0.468 C 
ENDBRANCH   5   6
ENDBRANCH   1   5
TORSDOF 3
ENDMDL
