@<TRIPOS>MOLECULE
/home/cewinharhar/GITHUB/reincatalyze/data/processed/docking_pred/2023-May-22-1902_sub9_nm5_bs15_s42_ex16_mel10_mts1000_k50_ec02_g099_lra9e-4_lrc1e-3/4a3a178b6a4326eb13634b12f3ce9c4ec26f8538_ligand_9.pdbqt
 14 15 0 0 0
SMALL
GASTEIGER

@<TRIPOS>ATOM
      1  C          5.8440    1.5940    0.8700 C.3     1  UNL1        0.0800
      2  C          5.3880    0.5910    1.8720 C.2     1  UNL1        0.1300
      3  C          6.2340   -0.5700    2.2570 C.3     1  UNL1        0.0870
      4  O          4.2970    0.6940    2.4100 O.2     1  UNL1       -0.3000
      5  C          5.7540    1.0440   -0.5390 C.3     1  UNL1        0.0430
      6  C          7.0070    0.3850   -0.9500 C.2     1  UNL1       -0.0440
      7  C          8.2520    0.9960   -0.7620 C.2     1  UNL1        0.0080
      8  C          6.9640   -0.8610   -1.5320 C.2     1  UNL1        0.0540
      9  C          9.3950    0.3300   -1.1660 C.2     1  UNL1        0.0510
     10  C          8.1220   -1.5310   -1.9380 C.2     1  UNL1        0.1660
     11  C          9.3470   -0.9300   -1.7540 C.2     1  UNL1        0.1650
     12  O          8.3390   -2.7560   -2.5320 O.2     1  UNL1       -0.4540
     13  O         10.3020   -1.8080   -2.2430 O.2     1  UNL1       -0.4540
     14  C          9.7130   -3.0170   -2.6620 C.3     1  UNL1        0.4680
@<TRIPOS>BOND
     1    14    12    1
     2    14    13    1
     3    12    10    1
     4    13    11    1
     5    10    11    2
     6    10     8    1
     7    11     9    1
     8     8     6    2
     9     9     7    2
    10     6     7    1
    11     6     5    1
    12     5     1    1
    13     1     2    1
    14     2     3    1
    15     2     4    2
