@<TRIPOS>MOLECULE
/home/cewinharhar/GITHUB/reincatalyze/data/processed/docking_pred/2023-May-22-1902_sub9_nm5_bs15_s42_ex16_mel10_mts1000_k50_ec02_g099_lra9e-4_lrc1e-3/4a3a178b6a4326eb13634b12f3ce9c4ec26f8538_ligand_9.pdbqt
 14 15 0 0 0
SMALL
GASTEIGER

@<TRIPOS>ATOM
      1  C          5.6540    1.2540   -0.4440 C.3     1  UNL1        0.0800
      2  C          5.3170    2.3360    0.5240 C.2     1  UNL1        0.1300
      3  C          6.1420    3.5690    0.6350 C.3     1  UNL1        0.0870
      4  O          4.3470    2.2400    1.2580 O.2     1  UNL1       -0.3000
      5  C          6.2950    0.0720    0.2540 C.3     1  UNL1        0.0430
      6  C          7.7350   -0.0240   -0.0440 C.2     1  UNL1       -0.0440
      7  C          8.3710    0.8920   -0.8890 C.2     1  UNL1        0.0080
      8  C          8.4830   -1.0330    0.5190 C.2     1  UNL1        0.0540
      9  C          9.7250    0.7530   -1.1320 C.2     1  UNL1        0.0510
     10  C          9.8520   -1.1690    0.2710 C.2     1  UNL1        0.1660
     11  C         10.4780   -0.2690   -0.5620 C.2     1  UNL1        0.1650
     12  O         10.8000   -2.0720    0.7020 O.2     1  UNL1       -0.4540
     13  O         11.8120   -0.6410   -0.6240 O.2     1  UNL1       -0.4540
     14  C         12.0780   -1.7250    0.2340 C.3     1  UNL1        0.4680
@<TRIPOS>BOND
     1     9     7    1
     2     9    11    2
     3     7     6    2
     4    13    11    1
     5    13    14    1
     6    11    10    1
     7     1     5    1
     8     1     2    1
     9     6     5    1
    10     6     8    1
    11    14    12    1
    12    10     8    2
    13    10    12    1
    14     2     3    1
    15     2     4    2
