@<TRIPOS>MOLECULE
/home/cewinharhar/GITHUB/reincatalyze/data/processed/docking_pred/2023-May-22-1902_sub9_nm5_bs15_s42_ex16_mel10_mts1000_k50_ec02_g099_lra9e-4_lrc1e-3/4a3a178b6a4326eb13634b12f3ce9c4ec26f8538_ligand_9.pdbqt
 14 15 0 0 0
SMALL
GASTEIGER

@<TRIPOS>ATOM
      1  C          5.5770    2.3310   -0.4290 C.3     1  UNL1        0.0800
      2  C          6.0780    3.1900    0.6800 C.2     1  UNL1        0.1300
      3  C          6.8350    4.4430    0.4170 C.3     1  UNL1        0.0870
      4  O          5.8800    2.8870    1.8460 O.2     1  UNL1       -0.3000
      5  C          5.7120    0.8600   -0.0890 C.3     1  UNL1        0.0430
      6  C          6.9390    0.2770   -0.6620 C.2     1  UNL1       -0.0440
      7  C          8.1480    0.9810   -0.6730 C.2     1  UNL1        0.0080
      8  C          6.9060   -0.9890   -1.2000 C.2     1  UNL1        0.0540
      9  C          9.2670    0.3830   -1.2230 C.2     1  UNL1        0.0510
     10  C          8.0400   -1.5900   -1.7540 C.2     1  UNL1        0.1660
     11  C          9.2300   -0.8980   -1.7670 C.2     1  UNL1        0.1650
     12  O          8.2610   -2.8170   -2.3420 O.2     1  UNL1       -0.4540
     13  O         10.1680   -1.7240   -2.3670 O.2     1  UNL1       -0.4540
     14  C          9.6180   -2.9840   -2.6650 C.3     1  UNL1        0.4680
@<TRIPOS>BOND
     1    14    13    1
     2    14    12    1
     3    13    11    1
     4    12    10    1
     5    11    10    2
     6    11     9    1
     7    10     8    1
     8     9     7    2
     9     8     6    2
    10     7     6    1
    11     6     5    1
    12     1     5    1
    13     1     2    1
    14     3     2    1
    15     2     4    2
