@<TRIPOS>MOLECULE
/home/cewinharhar/GITHUB/reincatalyze/data/processed/docking_pred/2023-May-22-1902_sub9_nm5_bs15_s42_ex16_mel10_mts1000_k50_ec02_g099_lra9e-4_lrc1e-3/4c3a486d5bbb1ad3c8ce5b6da142191fd088767a_ligand_9.pdbqt
 14 15 0 0 0
SMALL
GASTEIGER

@<TRIPOS>ATOM
      1  C          6.2000    2.4960    1.4730 C.3     1  UNL1        0.0800
      2  C          6.4700    3.9520    1.6390 C.2     1  UNL1        0.1300
      3  C          7.0550    4.7670    0.5410 C.3     1  UNL1        0.0870
      4  O          6.2170    4.5210    2.6880 O.2     1  UNL1       -0.3000
      5  C          5.8380    2.1630    0.0390 C.3     1  UNL1        0.0430
      6  C          6.8320    1.2700   -0.5820 C.2     1  UNL1       -0.0440
      7  C          8.2040    1.5380   -0.5110 C.2     1  UNL1        0.0080
      8  C          6.4130    0.1400   -1.2470 C.2     1  UNL1        0.0540
      9  C          9.0910    0.6630   -1.1120 C.2     1  UNL1        0.0510
     10  C          7.3130   -0.7420   -1.8530 C.2     1  UNL1        0.1660
     11  C          8.6630   -0.4780   -1.7850 C.2     1  UNL1        0.1650
     12  O          7.1490   -1.9120   -2.5630 O.2     1  UNL1       -0.4540
     13  O          9.3060   -1.5030   -2.4600 O.2     1  UNL1       -0.4540
     14  C          8.3900   -2.4810   -2.8910 C.3     1  UNL1        0.4680
@<TRIPOS>BOND
     1    14    12    1
     2    14    13    1
     3    12    10    1
     4    13    11    1
     5    10    11    2
     6    10     8    1
     7    11     9    1
     8     8     6    2
     9     9     7    2
    10     6     7    1
    11     6     5    1
    12     5     1    1
    13     3     2    1
    14     1     2    1
    15     2     4    2
