MODEL 1
REMARK VINA RESULT:      -7.8      0.000      0.000
REMARK SMILES CC(=O)CCc1ccc2c(c1)OCO2
REMARK SMILES IDX 4 1 2 2 1 3 3 4 5 5 6 6 7 7 11 8 8 9 10 10 9 11 12 12 14 13
REMARK SMILES IDX 13 14
REMARK H PARENT
REMARK Flexibility Score: inf
ROOT
ATOM      1  C   UNL     1       5.438   2.881   0.177  1.00  0.00     0.080 C 
ENDROOT
BRANCH   1   2
ATOM      2  C   UNL     1       6.260   3.789   1.025  1.00  0.00     0.130 C 
ATOM      3  C   UNL     1       7.201   4.775   0.430  1.00  0.00     0.087 C 
ATOM      4  O   UNL     1       6.183   3.748   2.243  1.00  0.00    -0.300 OA
ENDBRANCH   1   2
BRANCH   1   5
ATOM      5  C   UNL     1       5.179   1.561   0.874  1.00  0.00     0.043 C 
BRANCH   5   6
ATOM      6  C   UNL     1       6.041   0.487   0.350  1.00  0.00    -0.044 A 
ATOM      7  C   UNL     1       6.475  -0.567   1.162  1.00  0.00     0.008 A 
ATOM      8  C   UNL     1       6.433   0.509  -0.969  1.00  0.00     0.054 A 
ATOM      9  C   UNL     1       7.283  -1.547   0.615  1.00  0.00     0.051 A 
ATOM     10  C   UNL     1       7.249  -0.484  -1.518  1.00  0.00     0.166 A 
ATOM     11  C   UNL     1       7.678  -1.521  -0.719  1.00  0.00     0.165 A 
ATOM     12  O   UNL     1       7.768  -0.683  -2.780  1.00  0.00    -0.454 OA
ATOM     13  O   UNL     1       8.459  -2.344  -1.516  1.00  0.00    -0.454 OA
ATOM     14  C   UNL     1       8.468  -1.899  -2.851  1.00  0.00     0.468 C 
ENDBRANCH   5   6
ENDBRANCH   1   5
TORSDOF 3
ENDMDL
MODEL 2
REMARK VINA RESULT:      -7.6      1.875      2.597
REMARK SMILES CC(=O)CCc1ccc2c(c1)OCO2
REMARK SMILES IDX 4 1 2 2 1 3 3 4 5 5 6 6 7 7 11 8 8 9 10 10 9 11 12 12 14 13
REMARK SMILES IDX 13 14
REMARK H PARENT
REMARK Flexibility Score: inf
ROOT
ATOM      1  C   UNL     1       5.499   1.926   1.252  1.00  0.00     0.080 C 
ENDROOT
BRANCH   1   2
ATOM      2  C   UNL     1       5.050   0.715   1.994  1.00  0.00     0.130 C 
ATOM      3  C   UNL     1       5.924  -0.480   2.140  1.00  0.00     0.087 C 
ATOM      4  O   UNL     1       3.944   0.668   2.506  1.00  0.00    -0.300 OA
ENDBRANCH   1   2
BRANCH   1   5
ATOM      5  C   UNL     1       5.380   1.730  -0.247  1.00  0.00     0.043 C 
BRANCH   5   6
ATOM      6  C   UNL     1       6.552   1.030  -0.801  1.00  0.00    -0.044 A 
ATOM      7  C   UNL     1       7.856   1.465  -0.541  1.00  0.00     0.008 A 
ATOM      8  C   UNL     1       6.372  -0.081  -1.594  1.00  0.00     0.054 A 
ATOM      9  C   UNL     1       8.918   0.768  -1.088  1.00  0.00     0.051 A 
ATOM     10  C   UNL     1       7.449  -0.783  -2.144  1.00  0.00     0.166 A 
ATOM     11  C   UNL     1       8.732  -0.354  -1.889  1.00  0.00     0.165 A 
ATOM     12  O   UNL     1       7.530  -1.898  -2.951  1.00  0.00    -0.454 OA
ATOM     13  O   UNL     1       9.584  -1.225  -2.551  1.00  0.00    -0.454 OA
ATOM     14  C   UNL     1       8.867  -2.271  -3.162  1.00  0.00     0.468 C 
ENDBRANCH   5   6
ENDBRANCH   1   5
TORSDOF 3
ENDMDL
MODEL 3
REMARK VINA RESULT:      -7.5      1.096      2.076
REMARK SMILES CC(=O)CCc1ccc2c(c1)OCO2
REMARK SMILES IDX 4 1 2 2 1 3 3 4 5 5 6 6 7 7 11 8 8 9 10 10 9 11 12 12 14 13
REMARK SMILES IDX 13 14
REMARK H PARENT
REMARK Flexibility Score: inf
ROOT
ATOM      1  C   UNL     1       5.296   3.082   0.184  1.00  0.00     0.080 C 
ENDROOT
BRANCH   1   2
ATOM      2  C   UNL     1       6.317   3.792   1.003  1.00  0.00     0.130 C 
ATOM      3  C   UNL     1       7.256   4.775   0.400  1.00  0.00     0.087 C 
ATOM      4  O   UNL     1       6.412   3.585   2.202  1.00  0.00    -0.300 OA
ENDBRANCH   1   2
BRANCH   1   5
ATOM      5  C   UNL     1       4.918   1.752   0.805  1.00  0.00     0.043 C 
BRANCH   5   6
ATOM      6  C   UNL     1       5.796   0.663   0.341  1.00  0.00    -0.044 A 
ATOM      7  C   UNL     1       6.247   0.599  -0.983  1.00  0.00     0.008 A 
ATOM      8  C   UNL     1       6.190  -0.318   1.222  1.00  0.00     0.054 A 
ATOM      9  C   UNL     1       7.069  -0.446  -1.362  1.00  0.00     0.051 A 
ATOM     10  C   UNL     1       7.023  -1.372   0.834  1.00  0.00     0.166 A 
ATOM     11  C   UNL     1       7.466  -1.437  -0.469  1.00  0.00     0.165 A 
ATOM     12  O   UNL     1       7.547  -2.454   1.510  1.00  0.00    -0.454 OA
ATOM     13  O   UNL     1       8.261  -2.568  -0.566  1.00  0.00    -0.454 OA
ATOM     14  C   UNL     1       8.413  -3.192   0.687  1.00  0.00     0.468 C 
ENDBRANCH   5   6
ENDBRANCH   1   5
TORSDOF 3
ENDMDL
MODEL 4
REMARK VINA RESULT:      -7.3      1.925      3.000
REMARK SMILES CC(=O)CCc1ccc2c(c1)OCO2
REMARK SMILES IDX 4 1 2 2 1 3 3 4 5 5 6 6 7 7 11 8 8 9 10 10 9 11 12 12 14 13
REMARK SMILES IDX 13 14
REMARK H PARENT
REMARK Flexibility Score: inf
ROOT
ATOM      1  C   UNL     1       5.724   1.310  -0.321  1.00  0.00     0.080 C 
ENDROOT
BRANCH   1   2
ATOM      2  C   UNL     1       5.188   1.300   1.069  1.00  0.00     0.130 C 
ATOM      3  C   UNL     1       5.308   0.103   1.943  1.00  0.00     0.087 C 
ATOM      4  O   UNL     1       4.631   2.282   1.532  1.00  0.00    -0.300 OA
ENDBRANCH   1   2
BRANCH   1   5
ATOM      5  C   UNL     1       7.228   1.120  -0.332  1.00  0.00     0.043 C 
BRANCH   5   6
ATOM      6  C   UNL     1       7.612  -0.168  -0.937  1.00  0.00    -0.044 A 
ATOM      7  C   UNL     1       7.689  -0.332  -2.324  1.00  0.00     0.008 A 
ATOM      8  C   UNL     1       7.908  -1.240  -0.126  1.00  0.00     0.054 A 
ATOM      9  C   UNL     1       8.056  -1.564  -2.835  1.00  0.00     0.051 A 
ATOM     10  C   UNL     1       8.279  -2.484  -0.647  1.00  0.00     0.166 A 
ATOM     11  C   UNL     1       8.353  -2.647  -2.013  1.00  0.00     0.165 A 
ATOM     12  O   UNL     1       8.615  -3.685  -0.061  1.00  0.00    -0.454 OA
ATOM     13  O   UNL     1       8.738  -3.959  -2.239  1.00  0.00    -0.454 OA
ATOM     14  C   UNL     1       9.003  -4.627  -1.028  1.00  0.00     0.468 C 
ENDBRANCH   5   6
ENDBRANCH   1   5
TORSDOF 3
ENDMDL
MODEL 5
REMARK VINA RESULT:      -7.2      1.354      1.622
REMARK SMILES CC(=O)CCc1ccc2c(c1)OCO2
REMARK SMILES IDX 4 1 2 2 1 3 3 4 5 5 6 6 7 7 11 8 8 9 10 10 9 11 12 12 14 13
REMARK SMILES IDX 13 14
REMARK H PARENT
REMARK Flexibility Score: inf
ROOT
ATOM      1  C   UNL     1       6.200   2.496   1.473  1.00  0.00     0.080 C 
ENDROOT
BRANCH   1   2
ATOM      2  C   UNL     1       6.470   3.952   1.639  1.00  0.00     0.130 C 
ATOM      3  C   UNL     1       7.055   4.767   0.541  1.00  0.00     0.087 C 
ATOM      4  O   UNL     1       6.217   4.521   2.688  1.00  0.00    -0.300 OA
ENDBRANCH   1   2
BRANCH   1   5
ATOM      5  C   UNL     1       5.838   2.163   0.039  1.00  0.00     0.043 C 
BRANCH   5   6
ATOM      6  C   UNL     1       6.832   1.270  -0.582  1.00  0.00    -0.044 A 
ATOM      7  C   UNL     1       8.204   1.538  -0.511  1.00  0.00     0.008 A 
ATOM      8  C   UNL     1       6.413   0.140  -1.247  1.00  0.00     0.054 A 
ATOM      9  C   UNL     1       9.091   0.663  -1.112  1.00  0.00     0.051 A 
ATOM     10  C   UNL     1       7.313  -0.742  -1.853  1.00  0.00     0.166 A 
ATOM     11  C   UNL     1       8.663  -0.478  -1.785  1.00  0.00     0.165 A 
ATOM     12  O   UNL     1       7.149  -1.912  -2.563  1.00  0.00    -0.454 OA
ATOM     13  O   UNL     1       9.306  -1.503  -2.460  1.00  0.00    -0.454 OA
ATOM     14  C   UNL     1       8.390  -2.481  -2.891  1.00  0.00     0.468 C 
ENDBRANCH   5   6
ENDBRANCH   1   5
TORSDOF 3
ENDMDL
