@<TRIPOS>MOLECULE
/home/cewinharhar/GITHUB/reincatalyze/data/processed/docking_pred/2023-May-22-1902_sub9_nm5_bs15_s42_ex16_mel10_mts1000_k50_ec02_g099_lra9e-4_lrc1e-3/4c3a486d5bbb1ad3c8ce5b6da142191fd088767a_ligand_9.pdbqt
 14 15 0 0 0
SMALL
GASTEIGER

@<TRIPOS>ATOM
      1  C          5.2960    3.0820    0.1840 C.3     1  UNL1        0.0800
      2  C          6.3170    3.7920    1.0030 C.2     1  UNL1        0.1300
      3  C          7.2560    4.7750    0.4000 C.3     1  UNL1        0.0870
      4  O          6.4120    3.5850    2.2020 O.2     1  UNL1       -0.3000
      5  C          4.9180    1.7520    0.8050 C.3     1  UNL1        0.0430
      6  C          5.7960    0.6630    0.3410 C.2     1  UNL1       -0.0440
      7  C          6.2470    0.5990   -0.9830 C.2     1  UNL1        0.0080
      8  C          6.1900   -0.3180    1.2220 C.2     1  UNL1        0.0540
      9  C          7.0690   -0.4460   -1.3620 C.2     1  UNL1        0.0510
     10  C          7.0230   -1.3720    0.8340 C.2     1  UNL1        0.1660
     11  C          7.4660   -1.4370   -0.4690 C.2     1  UNL1        0.1650
     12  O          7.5470   -2.4540    1.5100 O.2     1  UNL1       -0.4540
     13  O          8.2610   -2.5680   -0.5660 O.2     1  UNL1       -0.4540
     14  C          8.4130   -3.1920    0.6870 C.3     1  UNL1        0.4680
@<TRIPOS>BOND
     1     9     7    1
     2     9    11    2
     3     7     6    2
     4    13    11    1
     5    13    14    1
     6    11    10    1
     7     1     5    1
     8     1     2    1
     9     6     5    1
    10     6     8    1
    11     3     2    1
    12    14    12    1
    13    10     8    2
    14    10    12    1
    15     2     4    2
