@<TRIPOS>MOLECULE
/home/cewinharhar/GITHUB/reincatalyze/data/processed/docking_pred/2023-May-22-1902_sub9_nm5_bs15_s42_ex16_mel10_mts1000_k50_ec02_g099_lra9e-4_lrc1e-3/4c3a486d5bbb1ad3c8ce5b6da142191fd088767a_ligand_9.pdbqt
 14 15 0 0 0
SMALL
GASTEIGER

@<TRIPOS>ATOM
      1  C          5.7240    1.3100   -0.3210 C.3     1  UNL1        0.0800
      2  C          5.1880    1.3000    1.0690 C.2     1  UNL1        0.1300
      3  C          5.3080    0.1030    1.9430 C.3     1  UNL1        0.0870
      4  O          4.6310    2.2820    1.5320 O.2     1  UNL1       -0.3000
      5  C          7.2280    1.1200   -0.3320 C.3     1  UNL1        0.0430
      6  C          7.6120   -0.1680   -0.9370 C.2     1  UNL1       -0.0440
      7  C          7.6890   -0.3320   -2.3240 C.2     1  UNL1        0.0080
      8  C          7.9080   -1.2400   -0.1260 C.2     1  UNL1        0.0540
      9  C          8.0560   -1.5640   -2.8350 C.2     1  UNL1        0.0510
     10  C          8.2790   -2.4840   -0.6470 C.2     1  UNL1        0.1660
     11  C          8.3530   -2.6470   -2.0130 C.2     1  UNL1        0.1650
     12  O          8.6150   -3.6850   -0.0610 O.2     1  UNL1       -0.4540
     13  O          8.7380   -3.9590   -2.2390 O.2     1  UNL1       -0.4540
     14  C          9.0030   -4.6270   -1.0280 C.3     1  UNL1        0.4680
@<TRIPOS>BOND
     1     9     7    1
     2     9    11    2
     3     7     6    2
     4    13    11    1
     5    13    14    1
     6    11    10    1
     7    14    12    1
     8     6     5    1
     9     6     8    1
    10    10     8    2
    11    10    12    1
    12     5     1    1
    13     1     2    1
    14     2     4    2
    15     2     3    1
