@<TRIPOS>MOLECULE
/home/cewinharhar/GITHUB/reincatalyze/data/processed/docking_pred/2023-May-22-1902_sub9_nm5_bs15_s42_ex16_mel10_mts1000_k50_ec02_g099_lra9e-4_lrc1e-3/4c41b041102a8d5d821093d1e21668bd2b50a839_ligand_9.pdbqt
 14 15 0 0 0
SMALL
GASTEIGER

@<TRIPOS>ATOM
      1  C          5.3850    1.1020    1.1230 C.3     1  UNL1        0.0800
      2  C          5.3620    2.4900    0.5820 C.2     1  UNL1        0.1300
      3  C          6.5710    3.3560    0.6030 C.3     1  UNL1        0.0870
      4  O          4.3420    2.9590    0.1030 O.2     1  UNL1       -0.3000
      5  C          6.8050    0.6320    1.3720 C.3     1  UNL1        0.0430
      6  C          7.2260   -0.3820    0.3890 C.2     1  UNL1       -0.0440
      7  C          7.1260   -0.1530   -0.9880 C.2     1  UNL1        0.0080
      8  C          7.7320   -1.5850    0.8240 C.2     1  UNL1        0.0540
      9  C          7.5380   -1.1410   -1.8640 C.2     1  UNL1        0.0510
     10  C          8.1480   -2.5810   -0.0660 C.2     1  UNL1        0.1660
     11  C          8.0490   -2.3570   -1.4210 C.2     1  UNL1        0.1650
     12  O          8.6760   -3.8410    0.1150 O.2     1  UNL1       -0.4540
     13  O          8.5260   -3.4950   -2.0510 O.2     1  UNL1       -0.4540
     14  C          9.0180   -4.4250   -1.1160 C.3     1  UNL1        0.4680
@<TRIPOS>BOND
     1    13    11    1
     2    13    14    1
     3     9    11    2
     4     9     7    1
     5    11    10    1
     6    14    12    1
     7     7     6    2
     8    10    12    1
     9    10     8    2
    10     4     2    2
    11     6     8    1
    12     6     5    1
    13     2     3    1
    14     2     1    1
    15     1     5    1
