@<TRIPOS>MOLECULE
/home/cewinharhar/GITHUB/reincatalyze/data/processed/docking_pred/2023-May-22-1902_sub9_nm5_bs15_s42_ex16_mel10_mts1000_k50_ec02_g099_lra9e-4_lrc1e-3/4c41b041102a8d5d821093d1e21668bd2b50a839_ligand_9.pdbqt
 14 15 0 0 0
SMALL
GASTEIGER

@<TRIPOS>ATOM
      1  C          5.3990    2.9530    0.4010 C.3     1  UNL1        0.0800
      2  C          6.2560    3.9510    1.0990 C.2     1  UNL1        0.1300
      3  C          7.2930    4.7330    0.3740 C.3     1  UNL1        0.0870
      4  O          6.1300    4.1580    2.2950 O.2     1  UNL1       -0.3000
      5  C          5.2840    1.6700    1.2010 C.3     1  UNL1        0.0430
      6  C          6.1840    0.6220    0.6860 C.2     1  UNL1       -0.0440
      7  C          6.9770   -0.1490    1.5440 C.2     1  UNL1        0.0080
      8  C          6.2510    0.3860   -0.6680 C.2     1  UNL1        0.0540
      9  C          7.8010   -1.1190    1.0040 C.2     1  UNL1        0.0510
     10  C          7.0860   -0.5960   -1.2090 C.2     1  UNL1        0.1660
     11  C          7.8670   -1.3550   -0.3660 C.2     1  UNL1        0.1650
     12  O          7.3290   -1.0160   -2.4990 O.2     1  UNL1       -0.4540
     13  O          8.5810   -2.2350   -1.1650 O.2     1  UNL1       -0.4540
     14  C          8.2020   -2.1160   -2.5160 C.3     1  UNL1        0.4680
@<TRIPOS>BOND
     1    14    12    1
     2    14    13    1
     3    12    10    1
     4    10     8    1
     5    10    11    2
     6    13    11    1
     7     8     6    2
     8    11     9    1
     9     3     2    1
    10     1     2    1
    11     1     5    1
    12     6     5    1
    13     6     7    1
    14     9     7    2
    15     2     4    2
