@<TRIPOS>MOLECULE
/home/cewinharhar/GITHUB/reincatalyze/data/processed/docking_pred/2023-May-22-1902_sub9_nm5_bs15_s42_ex16_mel10_mts1000_k50_ec02_g099_lra9e-4_lrc1e-3/4d620996829bdf69d2437cdb6940cc233521eaf3_ligand_9.pdbqt
 14 15 0 0 0
SMALL
GASTEIGER

@<TRIPOS>ATOM
      1  C          5.4420    2.9020    0.1300 C.3     1  UNL1        0.0800
      2  C          6.2820    3.8210    0.9470 C.2     1  UNL1        0.1300
      3  C          7.2360    4.7730    0.3180 C.3     1  UNL1        0.0870
      4  O          6.2120    3.8180    2.1650 O.2     1  UNL1       -0.3000
      5  C          5.2250    1.5790    0.8380 C.3     1  UNL1        0.0430
      6  C          6.0720    0.5120    0.2750 C.2     1  UNL1       -0.0440
      7  C          6.4250   -0.6160    1.0250 C.2     1  UNL1        0.0080
      8  C          6.5320    0.6170   -1.0180 C.2     1  UNL1        0.0540
      9  C          7.2220   -1.5850    0.4430 C.2     1  UNL1        0.0510
     10  C          7.3370   -0.3660   -1.6010 C.2     1  UNL1        0.1660
     11  C          7.6850   -1.4760   -0.8640 C.2     1  UNL1        0.1650
     12  O          7.9120   -0.4910   -2.8480 O.2     1  UNL1       -0.4540
     13  O          8.4740   -2.2690   -1.6820 O.2     1  UNL1       -0.4540
     14  C          8.5690   -1.7260   -2.9780 C.3     1  UNL1        0.4680
@<TRIPOS>BOND
     1    14    12    1
     2    14    13    1
     3    12    10    1
     4    13    11    1
     5    10     8    1
     6    10    11    2
     7     8     6    2
     8    11     9    1
     9     1     5    1
    10     1     2    1
    11     6     5    1
    12     6     7    1
    13     3     2    1
    14     9     7    2
    15     2     4    2
