MODEL 1
REMARK VINA RESULT:      -7.9      0.000      0.000
REMARK SMILES CC(=O)CCc1ccc2c(c1)OCO2
REMARK SMILES IDX 4 1 2 2 1 3 3 4 5 5 6 6 7 7 11 8 8 9 10 10 9 11 12 12 14 13
REMARK SMILES IDX 13 14
REMARK H PARENT
REMARK Flexibility Score: inf
ROOT
ATOM      1  C   UNL     1       5.442   2.902   0.130  1.00  0.00     0.080 C 
ENDROOT
BRANCH   1   2
ATOM      2  C   UNL     1       6.282   3.821   0.947  1.00  0.00     0.130 C 
ATOM      3  C   UNL     1       7.236   4.773   0.318  1.00  0.00     0.087 C 
ATOM      4  O   UNL     1       6.212   3.818   2.165  1.00  0.00    -0.300 OA
ENDBRANCH   1   2
BRANCH   1   5
ATOM      5  C   UNL     1       5.225   1.579   0.838  1.00  0.00     0.043 C 
BRANCH   5   6
ATOM      6  C   UNL     1       6.072   0.512   0.275  1.00  0.00    -0.044 A 
ATOM      7  C   UNL     1       6.425  -0.616   1.025  1.00  0.00     0.008 A 
ATOM      8  C   UNL     1       6.532   0.617  -1.018  1.00  0.00     0.054 A 
ATOM      9  C   UNL     1       7.222  -1.585   0.443  1.00  0.00     0.051 A 
ATOM     10  C   UNL     1       7.337  -0.366  -1.601  1.00  0.00     0.166 A 
ATOM     11  C   UNL     1       7.685  -1.476  -0.864  1.00  0.00     0.165 A 
ATOM     12  O   UNL     1       7.912  -0.491  -2.848  1.00  0.00    -0.454 OA
ATOM     13  O   UNL     1       8.474  -2.269  -1.682  1.00  0.00    -0.454 OA
ATOM     14  C   UNL     1       8.569  -1.726  -2.978  1.00  0.00     0.468 C 
ENDBRANCH   5   6
ENDBRANCH   1   5
TORSDOF 3
ENDMDL
MODEL 2
REMARK VINA RESULT:      -7.7      1.050      2.042
REMARK SMILES CC(=O)CCc1ccc2c(c1)OCO2
REMARK SMILES IDX 4 1 2 2 1 3 3 4 5 5 6 6 7 7 11 8 8 9 10 10 9 11 12 12 14 13
REMARK SMILES IDX 13 14
REMARK H PARENT
REMARK Flexibility Score: inf
ROOT
ATOM      1  C   UNL     1       5.376   3.021   0.085  1.00  0.00     0.080 C 
ENDROOT
BRANCH   1   2
ATOM      2  C   UNL     1       6.355   3.715   0.967  1.00  0.00     0.130 C 
ATOM      3  C   UNL     1       7.260   4.775   0.448  1.00  0.00     0.087 C 
ATOM      4  O   UNL     1       6.444   3.430   2.151  1.00  0.00    -0.300 OA
ENDBRANCH   1   2
BRANCH   1   5
ATOM      5  C   UNL     1       4.999   1.663   0.642  1.00  0.00     0.043 C 
BRANCH   5   6
ATOM      6  C   UNL     1       5.892   0.601   0.145  1.00  0.00    -0.044 A 
ATOM      7  C   UNL     1       6.377   0.606  -1.167  1.00  0.00     0.008 A 
ATOM      8  C   UNL     1       6.265  -0.424   0.984  1.00  0.00     0.054 A 
ATOM      9  C   UNL     1       7.213  -0.417  -1.578  1.00  0.00     0.051 A 
ATOM     10  C   UNL     1       7.111  -1.455   0.565  1.00  0.00     0.166 A 
ATOM     11  C   UNL     1       7.588  -1.452  -0.727  1.00  0.00     0.165 A 
ATOM     12  O   UNL     1       7.620  -2.569   1.198  1.00  0.00    -0.454 OA
ATOM     13  O   UNL     1       8.389  -2.575  -0.861  1.00  0.00    -0.454 OA
ATOM     14  C   UNL     1       8.510  -3.262   0.362  1.00  0.00     0.468 C 
ENDBRANCH   5   6
ENDBRANCH   1   5
TORSDOF 3
ENDMDL
MODEL 3
REMARK VINA RESULT:      -7.6      1.894      2.602
REMARK SMILES CC(=O)CCc1ccc2c(c1)OCO2
REMARK SMILES IDX 4 1 2 2 1 3 3 4 5 5 6 6 7 7 11 8 8 9 10 10 9 11 12 12 14 13
REMARK SMILES IDX 13 14
REMARK H PARENT
REMARK Flexibility Score: inf
ROOT
ATOM      1  C   UNL     1       5.543   1.924   1.269  1.00  0.00     0.080 C 
ENDROOT
BRANCH   1   2
ATOM      2  C   UNL     1       5.126   0.702   2.013  1.00  0.00     0.130 C 
ATOM      3  C   UNL     1       6.040  -0.459   2.182  1.00  0.00     0.087 C 
ATOM      4  O   UNL     1       4.013   0.619   2.507  1.00  0.00    -0.300 OA
ENDBRANCH   1   2
BRANCH   1   5
ATOM      5  C   UNL     1       5.412   1.728  -0.228  1.00  0.00     0.043 C 
BRANCH   5   6
ATOM      6  C   UNL     1       6.578   1.025  -0.792  1.00  0.00    -0.044 A 
ATOM      7  C   UNL     1       7.886   1.451  -0.534  1.00  0.00     0.008 A 
ATOM      8  C   UNL     1       6.388  -0.080  -1.590  1.00  0.00     0.054 A 
ATOM      9  C   UNL     1       8.942   0.751  -1.090  1.00  0.00     0.051 A 
ATOM     10  C   UNL     1       7.459  -0.785  -2.148  1.00  0.00     0.166 A 
ATOM     11  C   UNL     1       8.746  -0.365  -1.896  1.00  0.00     0.165 A 
ATOM     12  O   UNL     1       7.530  -1.896  -2.962  1.00  0.00    -0.454 OA
ATOM     13  O   UNL     1       9.590  -1.237  -2.567  1.00  0.00    -0.454 OA
ATOM     14  C   UNL     1       8.865  -2.275  -3.181  1.00  0.00     0.468 C 
ENDBRANCH   5   6
ENDBRANCH   1   5
TORSDOF 3
ENDMDL
MODEL 4
REMARK VINA RESULT:      -7.5      1.979      3.018
REMARK SMILES CC(=O)CCc1ccc2c(c1)OCO2
REMARK SMILES IDX 4 1 2 2 1 3 3 4 5 5 6 6 7 7 11 8 8 9 10 10 9 11 12 12 14 13
REMARK SMILES IDX 13 14
REMARK H PARENT
REMARK Flexibility Score: inf
ROOT
ATOM      1  C   UNL     1       5.780   1.391  -0.338  1.00  0.00     0.080 C 
ENDROOT
BRANCH   1   2
ATOM      2  C   UNL     1       5.137   1.321   1.004  1.00  0.00     0.130 C 
ATOM      3  C   UNL     1       5.421   0.208   1.949  1.00  0.00     0.087 C 
ATOM      4  O   UNL     1       4.351   2.181   1.368  1.00  0.00    -0.300 OA
ENDBRANCH   1   2
BRANCH   1   5
ATOM      5  C   UNL     1       7.270   1.124  -0.248  1.00  0.00     0.043 C 
BRANCH   5   6
ATOM      6  C   UNL     1       7.631  -0.170  -0.853  1.00  0.00    -0.044 A 
ATOM      7  C   UNL     1       7.696  -0.337  -2.241  1.00  0.00     0.008 A 
ATOM      8  C   UNL     1       7.915  -1.246  -0.043  1.00  0.00     0.054 A 
ATOM      9  C   UNL     1       8.041  -1.575  -2.752  1.00  0.00     0.051 A 
ATOM     10  C   UNL     1       8.264  -2.495  -0.565  1.00  0.00     0.166 A 
ATOM     11  C   UNL     1       8.328  -2.661  -1.931  1.00  0.00     0.165 A 
ATOM     12  O   UNL     1       8.586  -3.701   0.020  1.00  0.00    -0.454 OA
ATOM     13  O   UNL     1       8.692  -3.979  -2.158  1.00  0.00    -0.454 OA
ATOM     14  C   UNL     1       8.954  -4.650  -0.949  1.00  0.00     0.468 C 
ENDBRANCH   5   6
ENDBRANCH   1   5
TORSDOF 3
ENDMDL
MODEL 5
REMARK VINA RESULT:      -7.4      1.858      2.823
REMARK SMILES CC(=O)CCc1ccc2c(c1)OCO2
REMARK SMILES IDX 4 1 2 2 1 3 3 4 5 5 6 6 7 7 11 8 8 9 10 10 9 11 12 12 14 13
REMARK SMILES IDX 13 14
REMARK H PARENT
REMARK Flexibility Score: inf
ROOT
ATOM      1  C   UNL     1       6.236   0.870   1.180  1.00  0.00     0.080 C 
ENDROOT
BRANCH   1   2
ATOM      2  C   UNL     1       5.054   1.748   0.959  1.00  0.00     0.130 C 
ATOM      3  C   UNL     1       4.921   2.585  -0.264  1.00  0.00     0.087 C 
ATOM      4  O   UNL     1       4.154   1.807   1.781  1.00  0.00    -0.300 OA
ENDBRANCH   1   2
BRANCH   1   5
ATOM      5  C   UNL     1       7.279   1.067   0.097  1.00  0.00     0.043 C 
BRANCH   5   6
ATOM      6  C   UNL     1       7.613  -0.199  -0.578  1.00  0.00    -0.044 A 
ATOM      7  C   UNL     1       7.596  -0.313  -1.973  1.00  0.00     0.008 A 
ATOM      8  C   UNL     1       7.953  -1.303   0.171  1.00  0.00     0.054 A 
ATOM      9  C   UNL     1       7.920  -1.527  -2.551  1.00  0.00     0.051 A 
ATOM     10  C   UNL     1       8.279  -2.528  -0.419  1.00  0.00     0.166 A 
ATOM     11  C   UNL     1       8.262  -2.641  -1.791  1.00  0.00     0.165 A 
ATOM     12  O   UNL     1       8.645  -3.752   0.099  1.00  0.00    -0.454 OA
ATOM     13  O   UNL     1       8.622  -3.945  -2.090  1.00  0.00    -0.454 OA
ATOM     14  C   UNL     1       8.961  -4.659  -0.926  1.00  0.00     0.468 C 
ENDBRANCH   5   6
ENDBRANCH   1   5
TORSDOF 3
ENDMDL
