@<TRIPOS>MOLECULE
/home/cewinharhar/GITHUB/reincatalyze/data/processed/docking_pred/2023-May-22-1902_sub9_nm5_bs15_s42_ex16_mel10_mts1000_k50_ec02_g099_lra9e-4_lrc1e-3/4d620996829bdf69d2437cdb6940cc233521eaf3_ligand_9.pdbqt
 14 15 0 0 0
SMALL
GASTEIGER

@<TRIPOS>ATOM
      1  C          6.2360    0.8700    1.1800 C.3     1  UNL1        0.0800
      2  C          5.0540    1.7480    0.9590 C.2     1  UNL1        0.1300
      3  C          4.9210    2.5850   -0.2640 C.3     1  UNL1        0.0870
      4  O          4.1540    1.8070    1.7810 O.2     1  UNL1       -0.3000
      5  C          7.2790    1.0670    0.0970 C.3     1  UNL1        0.0430
      6  C          7.6130   -0.1990   -0.5780 C.2     1  UNL1       -0.0440
      7  C          7.5960   -0.3130   -1.9730 C.2     1  UNL1        0.0080
      8  C          7.9530   -1.3030    0.1710 C.2     1  UNL1        0.0540
      9  C          7.9200   -1.5270   -2.5510 C.2     1  UNL1        0.0510
     10  C          8.2790   -2.5280   -0.4190 C.2     1  UNL1        0.1660
     11  C          8.2620   -2.6410   -1.7910 C.2     1  UNL1        0.1650
     12  O          8.6450   -3.7520    0.0990 O.2     1  UNL1       -0.4540
     13  O          8.6220   -3.9450   -2.0900 O.2     1  UNL1       -0.4540
     14  C          8.9610   -4.6590   -0.9260 C.3     1  UNL1        0.4680
@<TRIPOS>BOND
     1     9     7    1
     2     9    11    2
     3    13    11    1
     4    13    14    1
     5     7     6    2
     6    11    10    1
     7    14    12    1
     8     6     5    1
     9     6     8    1
    10    10    12    1
    11    10     8    2
    12     3     2    1
    13     5     1    1
    14     2     1    1
    15     2     4    2
