@<TRIPOS>MOLECULE
/home/cewinharhar/GITHUB/reincatalyze/data/processed/docking_pred/2023-May-22-1902_sub9_nm5_bs15_s42_ex16_mel10_mts1000_k50_ec02_g099_lra9e-4_lrc1e-3/4d620996829bdf69d2437cdb6940cc233521eaf3_ligand_9.pdbqt
 14 15 0 0 0
SMALL
GASTEIGER

@<TRIPOS>ATOM
      1  C          5.7800    1.3910   -0.3380 C.3     1  UNL1        0.0800
      2  C          5.1370    1.3210    1.0040 C.2     1  UNL1        0.1300
      3  C          5.4210    0.2080    1.9490 C.3     1  UNL1        0.0870
      4  O          4.3510    2.1810    1.3680 O.2     1  UNL1       -0.3000
      5  C          7.2700    1.1240   -0.2480 C.3     1  UNL1        0.0430
      6  C          7.6310   -0.1700   -0.8530 C.2     1  UNL1       -0.0440
      7  C          7.6960   -0.3370   -2.2410 C.2     1  UNL1        0.0080
      8  C          7.9150   -1.2460   -0.0430 C.2     1  UNL1        0.0540
      9  C          8.0410   -1.5750   -2.7520 C.2     1  UNL1        0.0510
     10  C          8.2640   -2.4950   -0.5650 C.2     1  UNL1        0.1660
     11  C          8.3280   -2.6610   -1.9310 C.2     1  UNL1        0.1650
     12  O          8.5860   -3.7010    0.0200 O.2     1  UNL1       -0.4540
     13  O          8.6920   -3.9790   -2.1580 O.2     1  UNL1       -0.4540
     14  C          8.9540   -4.6500   -0.9490 C.3     1  UNL1        0.4680
@<TRIPOS>BOND
     1     9     7    1
     2     9    11    2
     3     7     6    2
     4    13    11    1
     5    13    14    1
     6    11    10    1
     7    14    12    1
     8     6     5    1
     9     6     8    1
    10    10     8    2
    11    10    12    1
    12     1     5    1
    13     1     2    1
    14     2     4    2
    15     2     3    1
