@<TRIPOS>MOLECULE
/home/cewinharhar/GITHUB/reincatalyze/data/processed/docking_pred/2023-May-22-1902_sub9_nm5_bs15_s42_ex16_mel10_mts1000_k50_ec02_g099_lra9e-4_lrc1e-3/4d620996829bdf69d2437cdb6940cc233521eaf3_ligand_9.pdbqt
 14 15 0 0 0
SMALL
GASTEIGER

@<TRIPOS>ATOM
      1  C          5.3760    3.0210    0.0850 C.3     1  UNL1        0.0800
      2  C          6.3550    3.7150    0.9670 C.2     1  UNL1        0.1300
      3  C          7.2600    4.7750    0.4480 C.3     1  UNL1        0.0870
      4  O          6.4440    3.4300    2.1510 O.2     1  UNL1       -0.3000
      5  C          4.9990    1.6630    0.6420 C.3     1  UNL1        0.0430
      6  C          5.8920    0.6010    0.1450 C.2     1  UNL1       -0.0440
      7  C          6.3770    0.6060   -1.1670 C.2     1  UNL1        0.0080
      8  C          6.2650   -0.4240    0.9840 C.2     1  UNL1        0.0540
      9  C          7.2130   -0.4170   -1.5780 C.2     1  UNL1        0.0510
     10  C          7.1110   -1.4550    0.5650 C.2     1  UNL1        0.1660
     11  C          7.5880   -1.4520   -0.7270 C.2     1  UNL1        0.1650
     12  O          7.6200   -2.5690    1.1980 O.2     1  UNL1       -0.4540
     13  O          8.3890   -2.5750   -0.8610 O.2     1  UNL1       -0.4540
     14  C          8.5100   -3.2620    0.3620 C.3     1  UNL1        0.4680
@<TRIPOS>BOND
     1     9     7    1
     2     9    11    2
     3     7     6    2
     4    13    11    1
     5    13    14    1
     6    11    10    1
     7     1     5    1
     8     1     2    1
     9     6     5    1
    10     6     8    1
    11    14    12    1
    12     3     2    1
    13    10     8    2
    14    10    12    1
    15     2     4    2
