@<TRIPOS>MOLECULE
/home/cewinharhar/GITHUB/reincatalyze/data/processed/docking_pred/2023-May-22-1902_sub9_nm5_bs15_s42_ex16_mel10_mts1000_k50_ec02_g099_lra9e-4_lrc1e-3/4d620996829bdf69d2437cdb6940cc233521eaf3_ligand_9.pdbqt
 14 15 0 0 0
SMALL
GASTEIGER

@<TRIPOS>ATOM
      1  C          5.5430    1.9240    1.2690 C.3     1  UNL1        0.0800
      2  C          5.1260    0.7020    2.0130 C.2     1  UNL1        0.1300
      3  C          6.0400   -0.4590    2.1820 C.3     1  UNL1        0.0870
      4  O          4.0130    0.6190    2.5070 O.2     1  UNL1       -0.3000
      5  C          5.4120    1.7280   -0.2280 C.3     1  UNL1        0.0430
      6  C          6.5780    1.0250   -0.7920 C.2     1  UNL1       -0.0440
      7  C          7.8860    1.4510   -0.5340 C.2     1  UNL1        0.0080
      8  C          6.3880   -0.0800   -1.5900 C.2     1  UNL1        0.0540
      9  C          8.9420    0.7510   -1.0900 C.2     1  UNL1        0.0510
     10  C          7.4590   -0.7850   -2.1480 C.2     1  UNL1        0.1660
     11  C          8.7460   -0.3650   -1.8960 C.2     1  UNL1        0.1650
     12  O          7.5300   -1.8960   -2.9620 O.2     1  UNL1       -0.4540
     13  O          9.5900   -1.2370   -2.5670 O.2     1  UNL1       -0.4540
     14  C          8.8650   -2.2750   -3.1810 C.3     1  UNL1        0.4680
@<TRIPOS>BOND
     1    14    12    1
     2    14    13    1
     3    12    10    1
     4    13    11    1
     5    10    11    2
     6    10     8    1
     7    11     9    1
     8     8     6    2
     9     9     7    2
    10     6     7    1
    11     6     5    1
    12     5     1    1
    13     1     2    1
    14     2     3    1
    15     2     4    2
