MODEL 1
REMARK VINA RESULT:      -7.7      0.000      0.000
REMARK SMILES CC(=O)CCc1ccc2c(c1)OCO2
REMARK SMILES IDX 4 1 2 2 1 3 3 4 5 5 6 6 7 7 11 8 8 9 10 10 9 11 12 12 14 13
REMARK SMILES IDX 13 14
REMARK H PARENT
REMARK Flexibility Score: inf
ROOT
ATOM      1  C   UNL     1       5.391   2.872   0.324  1.00  0.00     0.080 C 
ENDROOT
BRANCH   1   2
ATOM      2  C   UNL     1       6.372   3.698   1.081  1.00  0.00     0.130 C 
ATOM      3  C   UNL     1       7.162   4.771   0.421  1.00  0.00     0.087 C 
ATOM      4  O   UNL     1       6.556   3.516   2.274  1.00  0.00    -0.300 OA
ENDBRANCH   1   2
BRANCH   1   5
ATOM      5  C   UNL     1       5.176   1.526   0.989  1.00  0.00     0.043 C 
BRANCH   5   6
ATOM      6  C   UNL     1       6.013   0.477   0.382  1.00  0.00    -0.044 A 
ATOM      7  C   UNL     1       6.367   0.512  -0.971  1.00  0.00     0.008 A 
ATOM      8  C   UNL     1       6.467  -0.567   1.157  1.00  0.00     0.054 A 
ATOM      9  C   UNL     1       7.156  -0.501  -1.485  1.00  0.00     0.051 A 
ATOM     10  C   UNL     1       7.266  -1.587   0.633  1.00  0.00     0.166 A 
ATOM     11  C   UNL     1       7.613  -1.554  -0.699  1.00  0.00     0.165 A 
ATOM     12  O   UNL     1       7.833  -2.715   1.187  1.00  0.00    -0.454 OA
ATOM     13  O   UNL     1       8.395  -2.673  -0.938  1.00  0.00    -0.454 OA
ATOM     14  C   UNL     1       8.636  -3.388   0.251  1.00  0.00     0.468 C 
ENDBRANCH   5   6
ENDBRANCH   1   5
TORSDOF 3
ENDMDL
MODEL 2
REMARK VINA RESULT:      -7.7      2.402      3.035
REMARK SMILES CC(=O)CCc1ccc2c(c1)OCO2
REMARK SMILES IDX 4 1 2 2 1 3 3 4 5 5 6 6 7 7 11 8 8 9 10 10 9 11 12 12 14 13
REMARK SMILES IDX 13 14
REMARK H PARENT
REMARK Flexibility Score: inf
ROOT
ATOM      1  C   UNL     1       5.521   1.932   1.266  1.00  0.00     0.080 C 
ENDROOT
BRANCH   1   2
ATOM      2  C   UNL     1       5.087   0.714   2.005  1.00  0.00     0.130 C 
ATOM      3  C   UNL     1       5.989  -0.457   2.179  1.00  0.00     0.087 C 
ATOM      4  O   UNL     1       3.971   0.641   2.493  1.00  0.00    -0.300 OA
ENDBRANCH   1   2
BRANCH   1   5
ATOM      5  C   UNL     1       5.395   1.740  -0.232  1.00  0.00     0.043 C 
BRANCH   5   6
ATOM      6  C   UNL     1       6.562   1.036  -0.793  1.00  0.00    -0.044 A 
ATOM      7  C   UNL     1       7.870   1.466  -0.540  1.00  0.00     0.008 A 
ATOM      8  C   UNL     1       6.373  -0.075  -1.584  1.00  0.00     0.054 A 
ATOM      9  C   UNL     1       8.926   0.764  -1.093  1.00  0.00     0.051 A 
ATOM     10  C   UNL     1       7.444  -0.781  -2.140  1.00  0.00     0.166 A 
ATOM     11  C   UNL     1       8.731  -0.358  -1.892  1.00  0.00     0.165 A 
ATOM     12  O   UNL     1       7.516  -1.897  -2.947  1.00  0.00    -0.454 OA
ATOM     13  O   UNL     1       9.575  -1.232  -2.558  1.00  0.00    -0.454 OA
ATOM     14  C   UNL     1       8.851  -2.275  -3.165  1.00  0.00     0.468 C 
ENDBRANCH   5   6
ENDBRANCH   1   5
TORSDOF 3
ENDMDL
MODEL 3
REMARK VINA RESULT:      -7.6      1.746      2.020
REMARK SMILES CC(=O)CCc1ccc2c(c1)OCO2
REMARK SMILES IDX 4 1 2 2 1 3 3 4 5 5 6 6 7 7 11 8 8 9 10 10 9 11 12 12 14 13
REMARK SMILES IDX 13 14
REMARK H PARENT
REMARK Flexibility Score: inf
ROOT
ATOM      1  C   UNL     1       5.443   2.940   0.071  1.00  0.00     0.080 C 
ENDROOT
BRANCH   1   2
ATOM      2  C   UNL     1       6.177   3.923   0.917  1.00  0.00     0.130 C 
ATOM      3  C   UNL     1       7.262   4.775   0.361  1.00  0.00     0.087 C 
ATOM      4  O   UNL     1       5.906   4.058   2.099  1.00  0.00    -0.300 OA
ENDBRANCH   1   2
BRANCH   1   5
ATOM      5  C   UNL     1       5.702   1.519   0.530  1.00  0.00     0.043 C 
BRANCH   5   6
ATOM      6  C   UNL     1       6.758   0.871  -0.269  1.00  0.00    -0.044 A 
ATOM      7  C   UNL     1       8.045   1.412  -0.360  1.00  0.00     0.008 A 
ATOM      8  C   UNL     1       6.483  -0.297  -0.944  1.00  0.00     0.054 A 
ATOM      9  C   UNL     1       8.995   0.760  -1.124  1.00  0.00     0.051 A 
ATOM     10  C   UNL     1       7.447  -0.953  -1.714  1.00  0.00     0.166 A 
ATOM     11  C   UNL     1       8.714  -0.420  -1.805  1.00  0.00     0.165 A 
ATOM     12  O   UNL     1       7.422  -2.107  -2.469  1.00  0.00    -0.454 OA
ATOM     13  O   UNL     1       9.448  -1.268  -2.621  1.00  0.00    -0.454 OA
ATOM     14  C   UNL     1       8.693  -2.397  -2.990  1.00  0.00     0.468 C 
ENDBRANCH   5   6
ENDBRANCH   1   5
TORSDOF 3
ENDMDL
MODEL 4
REMARK VINA RESULT:      -7.5      1.773      2.424
REMARK SMILES CC(=O)CCc1ccc2c(c1)OCO2
REMARK SMILES IDX 4 1 2 2 1 3 3 4 5 5 6 6 7 7 11 8 8 9 10 10 9 11 12 12 14 13
REMARK SMILES IDX 13 14
REMARK H PARENT
REMARK Flexibility Score: inf
ROOT
ATOM      1  C   UNL     1       5.744   1.320  -0.347  1.00  0.00     0.080 C 
ENDROOT
BRANCH   1   2
ATOM      2  C   UNL     1       5.186   1.325   1.035  1.00  0.00     0.130 C 
ATOM      3  C   UNL     1       5.350   0.161   1.947  1.00  0.00     0.087 C 
ATOM      4  O   UNL     1       4.575   2.292   1.461  1.00  0.00    -0.300 OA
ENDBRANCH   1   2
BRANCH   1   5
ATOM      5  C   UNL     1       7.245   1.108  -0.334  1.00  0.00     0.043 C 
BRANCH   5   6
ATOM      6  C   UNL     1       7.618  -0.193  -0.917  1.00  0.00    -0.044 A 
ATOM      7  C   UNL     1       7.694  -0.381  -2.302  1.00  0.00     0.008 A 
ATOM      8  C   UNL     1       7.902  -1.255  -0.089  1.00  0.00     0.054 A 
ATOM      9  C   UNL     1       8.050  -1.624  -2.791  1.00  0.00     0.051 A 
ATOM     10  C   UNL     1       8.263  -2.510  -0.589  1.00  0.00     0.166 A 
ATOM     11  C   UNL     1       8.336  -2.696  -1.951  1.00  0.00     0.165 A 
ATOM     12  O   UNL     1       8.587  -3.705   0.017  1.00  0.00    -0.454 OA
ATOM     13  O   UNL     1       8.710  -4.015  -2.156  1.00  0.00    -0.454 OA
ATOM     14  C   UNL     1       8.968  -4.666  -0.934  1.00  0.00     0.468 C 
ENDBRANCH   5   6
ENDBRANCH   1   5
TORSDOF 3
ENDMDL
MODEL 5
REMARK VINA RESULT:      -7.4      1.650      2.150
REMARK SMILES CC(=O)CCc1ccc2c(c1)OCO2
REMARK SMILES IDX 4 1 2 2 1 3 3 4 5 5 6 6 7 7 11 8 8 9 10 10 9 11 12 12 14 13
REMARK SMILES IDX 13 14
REMARK H PARENT
REMARK Flexibility Score: inf
ROOT
ATOM      1  C   UNL     1       6.133   0.783   1.175  1.00  0.00     0.080 C 
ENDROOT
BRANCH   1   2
ATOM      2  C   UNL     1       5.010   1.742   0.979  1.00  0.00     0.130 C 
ATOM      3  C   UNL     1       4.938   2.627  -0.214  1.00  0.00     0.087 C 
ATOM      4  O   UNL     1       4.109   1.828   1.798  1.00  0.00    -0.300 OA
ENDBRANCH   1   2
BRANCH   1   5
ATOM      5  C   UNL     1       7.224   0.996   0.144  1.00  0.00     0.043 C 
BRANCH   5   6
ATOM      6  C   UNL     1       7.560  -0.253  -0.563  1.00  0.00    -0.044 A 
ATOM      7  C   UNL     1       7.512  -0.340  -1.959  1.00  0.00     0.008 A 
ATOM      8  C   UNL     1       7.933  -1.365   0.157  1.00  0.00     0.054 A 
ATOM      9  C   UNL     1       7.838  -1.538  -2.567  1.00  0.00     0.051 A 
ATOM     10  C   UNL     1       8.262  -2.574  -0.463  1.00  0.00     0.166 A 
ATOM     11  C   UNL     1       8.214  -2.661  -1.837  1.00  0.00     0.165 A 
ATOM     12  O   UNL     1       8.657  -3.802   0.023  1.00  0.00    -0.454 OA
ATOM     13  O   UNL     1       8.585  -3.955  -2.169  1.00  0.00    -0.454 OA
ATOM     14  C   UNL     1       8.962  -4.685  -1.026  1.00  0.00     0.468 C 
ENDBRANCH   5   6
ENDBRANCH   1   5
TORSDOF 3
ENDMDL
