@<TRIPOS>MOLECULE
/home/cewinharhar/GITHUB/reincatalyze/data/processed/docking_pred/2023-May-22-1902_sub9_nm5_bs15_s42_ex16_mel10_mts1000_k50_ec02_g099_lra9e-4_lrc1e-3/4dfe2a4ebf2cd2c58b23ebebd9c83ff91bb12173_ligand_9.pdbqt
 14 15 0 0 0
SMALL
GASTEIGER

@<TRIPOS>ATOM
      1  C          5.7440    1.3200   -0.3470 C.3     1  UNL1        0.0800
      2  C          5.1860    1.3250    1.0350 C.2     1  UNL1        0.1300
      3  C          5.3500    0.1610    1.9470 C.3     1  UNL1        0.0870
      4  O          4.5750    2.2920    1.4610 O.2     1  UNL1       -0.3000
      5  C          7.2450    1.1080   -0.3340 C.3     1  UNL1        0.0430
      6  C          7.6180   -0.1930   -0.9170 C.2     1  UNL1       -0.0440
      7  C          7.6940   -0.3810   -2.3020 C.2     1  UNL1        0.0080
      8  C          7.9020   -1.2550   -0.0890 C.2     1  UNL1        0.0540
      9  C          8.0500   -1.6240   -2.7910 C.2     1  UNL1        0.0510
     10  C          8.2630   -2.5100   -0.5890 C.2     1  UNL1        0.1660
     11  C          8.3360   -2.6960   -1.9510 C.2     1  UNL1        0.1650
     12  O          8.5870   -3.7050    0.0170 O.2     1  UNL1       -0.4540
     13  O          8.7100   -4.0150   -2.1560 O.2     1  UNL1       -0.4540
     14  C          8.9680   -4.6660   -0.9340 C.3     1  UNL1        0.4680
@<TRIPOS>BOND
     1     9     7    1
     2     9    11    2
     3     7     6    2
     4    13    11    1
     5    13    14    1
     6    11    10    1
     7    14    12    1
     8     6     5    1
     9     6     8    1
    10    10     8    2
    11    10    12    1
    12     1     5    1
    13     1     2    1
    14     2     4    2
    15     2     3    1
