@<TRIPOS>MOLECULE
/home/cewinharhar/GITHUB/reincatalyze/data/processed/docking_pred/2023-May-22-1902_sub9_nm5_bs15_s42_ex16_mel10_mts1000_k50_ec02_g099_lra9e-4_lrc1e-3/4f8338f1f65f27d68c3e57a6b5041c9c59ec4c55_ligand_9.pdbqt
 14 15 0 0 0
SMALL
GASTEIGER

@<TRIPOS>ATOM
      1  C          5.4400    2.8150   -0.0310 C.3     1  UNL1        0.0800
      2  C          6.2600    3.6370    0.9020 C.2     1  UNL1        0.1300
      3  C          7.1430    4.7280    0.4110 C.3     1  UNL1        0.0870
      4  O          6.2310    3.4350    2.1050 O.2     1  UNL1       -0.3000
      5  C          5.5660    1.3370    0.2810 C.3     1  UNL1        0.0430
      6  C          6.6810    0.7160   -0.4560 C.2     1  UNL1       -0.0440
      7  C          7.9460    1.3130   -0.5120 C.2     1  UNL1        0.0080
      8  C          6.4860   -0.4810   -1.1060 C.2     1  UNL1        0.0540
      9  C          8.9540    0.6830   -1.2170 C.2     1  UNL1        0.0510
     10  C          7.5090   -1.1140   -1.8180 C.2     1  UNL1        0.1660
     11  C          8.7540   -0.5270   -1.8740 C.2     1  UNL1        0.1650
     12  O          7.5660   -2.2890   -2.5380 O.2     1  UNL1       -0.4540
     13  O          9.5570   -1.3620   -2.6350 O.2     1  UNL1       -0.4540
     14  C          8.8690   -2.5350   -2.9990 C.3     1  UNL1        0.4680
@<TRIPOS>BOND
     1    14    13    1
     2    14    12    1
     3    13    11    1
     4    12    10    1
     5    11    10    2
     6    11     9    1
     7    10     8    1
     8     9     7    2
     9     8     6    2
    10     7     6    1
    11     6     5    1
    12     1     5    1
    13     1     2    1
    14     3     2    1
    15     2     4    2
