MODEL 1
REMARK VINA RESULT:      -7.8      0.000      0.000
REMARK SMILES CC(=O)CCc1ccc2c(c1)OCO2
REMARK SMILES IDX 4 1 2 2 1 3 3 4 5 5 6 6 7 7 11 8 8 9 10 10 9 11 12 12 14 13
REMARK SMILES IDX 13 14
REMARK H PARENT
REMARK Flexibility Score: inf
ROOT
ATOM      1  C   UNL     1       5.349   2.973   0.191  1.00  0.00     0.080 C 
ENDROOT
BRANCH   1   2
ATOM      2  C   UNL     1       6.259   3.850   0.980  1.00  0.00     0.130 C 
ATOM      3  C   UNL     1       7.220   4.774   0.320  1.00  0.00     0.087 C 
ATOM      4  O   UNL     1       6.242   3.834   2.200  1.00  0.00    -0.300 OA
ENDBRANCH   1   2
BRANCH   1   5
ATOM      5  C   UNL     1       5.132   1.642   0.882  1.00  0.00     0.043 C 
BRANCH   5   6
ATOM      6  C   UNL     1       5.977   0.582   0.303  1.00  0.00    -0.044 A 
ATOM      7  C   UNL     1       6.362   0.604  -1.042  1.00  0.00     0.008 A 
ATOM      8  C   UNL     1       6.404  -0.459   1.096  1.00  0.00     0.054 A 
ATOM      9  C   UNL     1       7.156  -0.418  -1.530  1.00  0.00     0.051 A 
ATOM     10  C   UNL     1       7.207  -1.490   0.598  1.00  0.00     0.166 A 
ATOM     11  C   UNL     1       7.586  -1.469  -0.726  1.00  0.00     0.165 A 
ATOM     12  O   UNL     1       7.753  -2.617   1.174  1.00  0.00    -0.454 OA
ATOM     13  O   UNL     1       8.366  -2.595  -0.937  1.00  0.00    -0.454 OA
ATOM     14  C   UNL     1       8.572  -3.303   0.262  1.00  0.00     0.468 C 
ENDBRANCH   5   6
ENDBRANCH   1   5
TORSDOF 3
ENDMDL
MODEL 2
REMARK VINA RESULT:      -7.7      1.000      1.994
REMARK SMILES CC(=O)CCc1ccc2c(c1)OCO2
REMARK SMILES IDX 4 1 2 2 1 3 3 4 5 5 6 6 7 7 11 8 8 9 10 10 9 11 12 12 14 13
REMARK SMILES IDX 13 14
REMARK H PARENT
REMARK Flexibility Score: inf
ROOT
ATOM      1  C   UNL     1       5.400   2.945   0.337  1.00  0.00     0.080 C 
ENDROOT
BRANCH   1   2
ATOM      2  C   UNL     1       6.384   3.761   1.101  1.00  0.00     0.130 C 
ATOM      3  C   UNL     1       7.243   4.775   0.433  1.00  0.00     0.087 C 
ATOM      4  O   UNL     1       6.515   3.619   2.306  1.00  0.00    -0.300 OA
ENDBRANCH   1   2
BRANCH   1   5
ATOM      5  C   UNL     1       5.151   1.610   1.010  1.00  0.00     0.043 C 
BRANCH   5   6
ATOM      6  C   UNL     1       5.991   0.543   0.435  1.00  0.00    -0.044 A 
ATOM      7  C   UNL     1       6.382  -0.569   1.190  1.00  0.00     0.008 A 
ATOM      8  C   UNL     1       6.404   0.632  -0.875  1.00  0.00     0.054 A 
ATOM      9  C   UNL     1       7.169  -1.539   0.596  1.00  0.00     0.051 A 
ATOM     10  C   UNL     1       7.199  -0.352  -1.470  1.00  0.00     0.166 A 
ATOM     11  C   UNL     1       7.585  -1.446  -0.728  1.00  0.00     0.165 A 
ATOM     12  O   UNL     1       7.732  -0.491  -2.734  1.00  0.00    -0.454 OA
ATOM     13  O   UNL     1       8.354  -2.243  -1.561  1.00  0.00    -0.454 OA
ATOM     14  C   UNL     1       8.398  -1.721  -2.867  1.00  0.00     0.468 C 
ENDBRANCH   5   6
ENDBRANCH   1   5
TORSDOF 3
ENDMDL
MODEL 3
REMARK VINA RESULT:      -7.6      2.405      3.042
REMARK SMILES CC(=O)CCc1ccc2c(c1)OCO2
REMARK SMILES IDX 4 1 2 2 1 3 3 4 5 5 6 6 7 7 11 8 8 9 10 10 9 11 12 12 14 13
REMARK SMILES IDX 13 14
REMARK H PARENT
REMARK Flexibility Score: inf
ROOT
ATOM      1  C   UNL     1       5.512   1.917   1.260  1.00  0.00     0.080 C 
ENDROOT
BRANCH   1   2
ATOM      2  C   UNL     1       5.059   0.704   1.996  1.00  0.00     0.130 C 
ATOM      3  C   UNL     1       5.934  -0.489   2.149  1.00  0.00     0.087 C 
ATOM      4  O   UNL     1       3.948   0.654   2.499  1.00  0.00    -0.300 OA
ENDBRANCH   1   2
BRANCH   1   5
ATOM      5  C   UNL     1       5.390   1.728  -0.239  1.00  0.00     0.043 C 
BRANCH   5   6
ATOM      6  C   UNL     1       6.559   1.027  -0.799  1.00  0.00    -0.044 A 
ATOM      7  C   UNL     1       7.865   1.464  -0.547  1.00  0.00     0.008 A 
ATOM      8  C   UNL     1       6.375  -0.086  -1.587  1.00  0.00     0.054 A 
ATOM      9  C   UNL     1       8.924   0.766  -1.098  1.00  0.00     0.051 A 
ATOM     10  C   UNL     1       7.449  -0.788  -2.141  1.00  0.00     0.166 A 
ATOM     11  C   UNL     1       8.734  -0.358  -1.895  1.00  0.00     0.165 A 
ATOM     12  O   UNL     1       7.527  -1.905  -2.946  1.00  0.00    -0.454 OA
ATOM     13  O   UNL     1       9.583  -1.230  -2.560  1.00  0.00    -0.454 OA
ATOM     14  C   UNL     1       8.863  -2.278  -3.164  1.00  0.00     0.468 C 
ENDBRANCH   5   6
ENDBRANCH   1   5
TORSDOF 3
ENDMDL
MODEL 4
REMARK VINA RESULT:      -7.5      1.688      1.990
REMARK SMILES CC(=O)CCc1ccc2c(c1)OCO2
REMARK SMILES IDX 4 1 2 2 1 3 3 4 5 5 6 6 7 7 11 8 8 9 10 10 9 11 12 12 14 13
REMARK SMILES IDX 13 14
REMARK H PARENT
REMARK Flexibility Score: inf
ROOT
ATOM      1  C   UNL     1       5.440   2.815  -0.031  1.00  0.00     0.080 C 
ENDROOT
BRANCH   1   2
ATOM      2  C   UNL     1       6.260   3.637   0.902  1.00  0.00     0.130 C 
ATOM      3  C   UNL     1       7.143   4.728   0.411  1.00  0.00     0.087 C 
ATOM      4  O   UNL     1       6.231   3.435   2.105  1.00  0.00    -0.300 OA
ENDBRANCH   1   2
BRANCH   1   5
ATOM      5  C   UNL     1       5.566   1.337   0.281  1.00  0.00     0.043 C 
BRANCH   5   6
ATOM      6  C   UNL     1       6.681   0.716  -0.456  1.00  0.00    -0.044 A 
ATOM      7  C   UNL     1       7.946   1.313  -0.512  1.00  0.00     0.008 A 
ATOM      8  C   UNL     1       6.486  -0.481  -1.106  1.00  0.00     0.054 A 
ATOM      9  C   UNL     1       8.954   0.683  -1.217  1.00  0.00     0.051 A 
ATOM     10  C   UNL     1       7.509  -1.114  -1.818  1.00  0.00     0.166 A 
ATOM     11  C   UNL     1       8.754  -0.527  -1.874  1.00  0.00     0.165 A 
ATOM     12  O   UNL     1       7.566  -2.289  -2.538  1.00  0.00    -0.454 OA
ATOM     13  O   UNL     1       9.557  -1.362  -2.635  1.00  0.00    -0.454 OA
ATOM     14  C   UNL     1       8.869  -2.535  -2.999  1.00  0.00     0.468 C 
ENDBRANCH   5   6
ENDBRANCH   1   5
TORSDOF 3
ENDMDL
MODEL 5
REMARK VINA RESULT:      -7.5      1.789      2.471
REMARK SMILES CC(=O)CCc1ccc2c(c1)OCO2
REMARK SMILES IDX 4 1 2 2 1 3 3 4 5 5 6 6 7 7 11 8 8 9 10 10 9 11 12 12 14 13
REMARK SMILES IDX 13 14
REMARK H PARENT
REMARK Flexibility Score: inf
ROOT
ATOM      1  C   UNL     1       5.752   1.321  -0.377  1.00  0.00     0.080 C 
ENDROOT
BRANCH   1   2
ATOM      2  C   UNL     1       5.163   1.317   0.991  1.00  0.00     0.130 C 
ATOM      3  C   UNL     1       5.382   0.186   1.932  1.00  0.00     0.087 C 
ATOM      4  O   UNL     1       4.478   2.249   1.381  1.00  0.00    -0.300 OA
ENDBRANCH   1   2
BRANCH   1   5
ATOM      5  C   UNL     1       7.251   1.098  -0.332  1.00  0.00     0.043 C 
BRANCH   5   6
ATOM      6  C   UNL     1       7.627  -0.201  -0.917  1.00  0.00    -0.044 A 
ATOM      7  C   UNL     1       7.721  -0.381  -2.302  1.00  0.00     0.008 A 
ATOM      8  C   UNL     1       7.898  -1.269  -0.092  1.00  0.00     0.054 A 
ATOM      9  C   UNL     1       8.080  -1.623  -2.794  1.00  0.00     0.051 A 
ATOM     10  C   UNL     1       8.262  -2.522  -0.595  1.00  0.00     0.166 A 
ATOM     11  C   UNL     1       8.353  -2.700  -1.957  1.00  0.00     0.165 A 
ATOM     12  O   UNL     1       8.575  -3.721   0.008  1.00  0.00    -0.454 OA
ATOM     13  O   UNL     1       8.725  -4.019  -2.164  1.00  0.00    -0.454 OA
ATOM     14  C   UNL     1       8.965  -4.677  -0.944  1.00  0.00     0.468 C 
ENDBRANCH   5   6
ENDBRANCH   1   5
TORSDOF 3
ENDMDL
