@<TRIPOS>MOLECULE
/home/cewinharhar/GITHUB/reincatalyze/data/processed/docking_pred/2023-May-22-1902_sub9_nm5_bs15_s42_ex16_mel10_mts1000_k50_ec02_g099_lra9e-4_lrc1e-3/4f8338f1f65f27d68c3e57a6b5041c9c59ec4c55_ligand_9.pdbqt
 14 15 0 0 0
SMALL
GASTEIGER

@<TRIPOS>ATOM
      1  C          5.4000    2.9450    0.3370 C.3     1  UNL1        0.0800
      2  C          6.3840    3.7610    1.1010 C.2     1  UNL1        0.1300
      3  C          7.2430    4.7750    0.4330 C.3     1  UNL1        0.0870
      4  O          6.5150    3.6190    2.3060 O.2     1  UNL1       -0.3000
      5  C          5.1510    1.6100    1.0100 C.3     1  UNL1        0.0430
      6  C          5.9910    0.5430    0.4350 C.2     1  UNL1       -0.0440
      7  C          6.3820   -0.5690    1.1900 C.2     1  UNL1        0.0080
      8  C          6.4040    0.6320   -0.8750 C.2     1  UNL1        0.0540
      9  C          7.1690   -1.5390    0.5960 C.2     1  UNL1        0.0510
     10  C          7.1990   -0.3520   -1.4700 C.2     1  UNL1        0.1660
     11  C          7.5850   -1.4460   -0.7280 C.2     1  UNL1        0.1650
     12  O          7.7320   -0.4910   -2.7340 O.2     1  UNL1       -0.4540
     13  O          8.3540   -2.2430   -1.5610 O.2     1  UNL1       -0.4540
     14  C          8.3980   -1.7210   -2.8670 C.3     1  UNL1        0.4680
@<TRIPOS>BOND
     1    14    12    1
     2    14    13    1
     3    12    10    1
     4    13    11    1
     5    10     8    1
     6    10    11    2
     7     8     6    2
     8    11     9    1
     9     1     5    1
    10     1     2    1
    11     3     2    1
    12     6     5    1
    13     6     7    1
    14     9     7    2
    15     2     4    2
