@<TRIPOS>MOLECULE
/home/cewinharhar/GITHUB/reincatalyze/data/processed/docking_pred/2023-May-22-1902_sub9_nm5_bs15_s42_ex16_mel10_mts1000_k50_ec02_g099_lra9e-4_lrc1e-3/4f8338f1f65f27d68c3e57a6b5041c9c59ec4c55_ligand_9.pdbqt
 14 15 0 0 0
SMALL
GASTEIGER

@<TRIPOS>ATOM
      1  C          5.3490    2.9730    0.1910 C.3     1  UNL1        0.0800
      2  C          6.2590    3.8500    0.9800 C.2     1  UNL1        0.1300
      3  C          7.2200    4.7740    0.3200 C.3     1  UNL1        0.0870
      4  O          6.2420    3.8340    2.2000 O.2     1  UNL1       -0.3000
      5  C          5.1320    1.6420    0.8820 C.3     1  UNL1        0.0430
      6  C          5.9770    0.5820    0.3030 C.2     1  UNL1       -0.0440
      7  C          6.3620    0.6040   -1.0420 C.2     1  UNL1        0.0080
      8  C          6.4040   -0.4590    1.0960 C.2     1  UNL1        0.0540
      9  C          7.1560   -0.4180   -1.5300 C.2     1  UNL1        0.0510
     10  C          7.2070   -1.4900    0.5980 C.2     1  UNL1        0.1660
     11  C          7.5860   -1.4690   -0.7260 C.2     1  UNL1        0.1650
     12  O          7.7530   -2.6170    1.1740 O.2     1  UNL1       -0.4540
     13  O          8.3660   -2.5950   -0.9370 O.2     1  UNL1       -0.4540
     14  C          8.5720   -3.3030    0.2620 C.3     1  UNL1        0.4680
@<TRIPOS>BOND
     1     9     7    1
     2     9    11    2
     3     7     6    2
     4    13    11    1
     5    13    14    1
     6    11    10    1
     7     1     5    1
     8     1     2    1
     9    14    12    1
    10     6     5    1
    11     6     8    1
    12     3     2    1
    13    10     8    2
    14    10    12    1
    15     2     4    2
