@<TRIPOS>MOLECULE
/home/cewinharhar/GITHUB/reincatalyze/data/processed/docking_pred/2023-May-22-1902_sub9_nm5_bs15_s42_ex16_mel10_mts1000_k50_ec02_g099_lra9e-4_lrc1e-3/4f8338f1f65f27d68c3e57a6b5041c9c59ec4c55_ligand_9.pdbqt
 14 15 0 0 0
SMALL
GASTEIGER

@<TRIPOS>ATOM
      1  C          5.7520    1.3210   -0.3770 C.3     1  UNL1        0.0800
      2  C          5.1630    1.3170    0.9910 C.2     1  UNL1        0.1300
      3  C          5.3820    0.1860    1.9320 C.3     1  UNL1        0.0870
      4  O          4.4780    2.2490    1.3810 O.2     1  UNL1       -0.3000
      5  C          7.2510    1.0980   -0.3320 C.3     1  UNL1        0.0430
      6  C          7.6270   -0.2010   -0.9170 C.2     1  UNL1       -0.0440
      7  C          7.7210   -0.3810   -2.3020 C.2     1  UNL1        0.0080
      8  C          7.8980   -1.2690   -0.0920 C.2     1  UNL1        0.0540
      9  C          8.0800   -1.6230   -2.7940 C.2     1  UNL1        0.0510
     10  C          8.2620   -2.5220   -0.5950 C.2     1  UNL1        0.1660
     11  C          8.3530   -2.7000   -1.9570 C.2     1  UNL1        0.1650
     12  O          8.5750   -3.7210    0.0080 O.2     1  UNL1       -0.4540
     13  O          8.7250   -4.0190   -2.1640 O.2     1  UNL1       -0.4540
     14  C          8.9650   -4.6770   -0.9440 C.3     1  UNL1        0.4680
@<TRIPOS>BOND
     1     9     7    1
     2     9    11    2
     3     7     6    2
     4    13    11    1
     5    13    14    1
     6    11    10    1
     7    14    12    1
     8     6     5    1
     9     6     8    1
    10    10     8    2
    11    10    12    1
    12     1     5    1
    13     1     2    1
    14     2     4    2
    15     2     3    1
