@<TRIPOS>MOLECULE
/home/cewinharhar/GITHUB/reincatalyze/data/processed/docking_pred/2023-May-22-1902_sub9_nm5_bs15_s42_ex16_mel10_mts1000_k50_ec02_g099_lra9e-4_lrc1e-3/4f8338f1f65f27d68c3e57a6b5041c9c59ec4c55_ligand_9.pdbqt
 14 15 0 0 0
SMALL
GASTEIGER

@<TRIPOS>ATOM
      1  C          5.5120    1.9170    1.2600 C.3     1  UNL1        0.0800
      2  C          5.0590    0.7040    1.9960 C.2     1  UNL1        0.1300
      3  C          5.9340   -0.4890    2.1490 C.3     1  UNL1        0.0870
      4  O          3.9480    0.6540    2.4990 O.2     1  UNL1       -0.3000
      5  C          5.3900    1.7280   -0.2390 C.3     1  UNL1        0.0430
      6  C          6.5590    1.0270   -0.7990 C.2     1  UNL1       -0.0440
      7  C          7.8650    1.4640   -0.5470 C.2     1  UNL1        0.0080
      8  C          6.3750   -0.0860   -1.5870 C.2     1  UNL1        0.0540
      9  C          8.9240    0.7660   -1.0980 C.2     1  UNL1        0.0510
     10  C          7.4490   -0.7880   -2.1410 C.2     1  UNL1        0.1660
     11  C          8.7340   -0.3580   -1.8950 C.2     1  UNL1        0.1650
     12  O          7.5270   -1.9050   -2.9460 O.2     1  UNL1       -0.4540
     13  O          9.5830   -1.2300   -2.5600 O.2     1  UNL1       -0.4540
     14  C          8.8630   -2.2780   -3.1640 C.3     1  UNL1        0.4680
@<TRIPOS>BOND
     1    14    12    1
     2    14    13    1
     3    12    10    1
     4    13    11    1
     5    10    11    2
     6    10     8    1
     7    11     9    1
     8     8     6    2
     9     9     7    2
    10     6     7    1
    11     6     5    1
    12     5     1    1
    13     1     2    1
    14     2     3    1
    15     2     4    2
