@<TRIPOS>MOLECULE
/home/cewinharhar/GITHUB/reincatalyze/data/processed/docking_pred/2023-May-22-1902_sub9_nm5_bs15_s42_ex16_mel10_mts1000_k50_ec02_g099_lra9e-4_lrc1e-3/4f8485ffa73320ccf1b94cd7b1ea99ef776c762b_ligand_9.pdbqt
 14 15 0 0 0
SMALL
GASTEIGER

@<TRIPOS>ATOM
      1  C          5.5630   -0.2310    1.9730 C.3     1  UNL1        0.0800
      2  C          5.3200    0.9740    1.1320 C.2     1  UNL1        0.1300
      3  C          5.8660    1.0870   -0.2470 C.3     1  UNL1        0.0870
      4  O          4.6610    1.9110    1.5540 O.2     1  UNL1       -0.3000
      5  C          6.5130   -1.1960    1.2910 C.3     1  UNL1        0.0430
      6  C          7.6410   -1.5620    2.1650 C.2     1  UNL1       -0.0440
      7  C          7.6650   -1.2070    3.5190 C.2     1  UNL1        0.0080
      8  C          8.7000   -2.2740    1.6490 C.2     1  UNL1        0.0540
      9  C          8.7500   -1.5800    4.2910 C.2     1  UNL1        0.0510
     10  C          9.7950   -2.6490    2.4350 C.2     1  UNL1        0.1660
     11  C          9.8200   -2.2980    3.7660 C.2     1  UNL1        0.1650
     12  O         10.9520   -3.3460    2.1610 O.2     1  UNL1       -0.4540
     13  O         11.0040   -2.7940    4.2890 O.2     1  UNL1       -0.4540
     14  C         11.7100   -3.5420    3.3280 C.3     1  UNL1        0.4680
@<TRIPOS>BOND
     1     3     2    1
     2     2     4    2
     3     2     1    1
     4     5     1    1
     5     5     6    1
     6     8     6    2
     7     8    10    1
     8    12    10    1
     9    12    14    1
    10     6     7    1
    11    10    11    2
    12    14    13    1
    13     7     9    2
    14    11    13    1
    15    11     9    1
