@<TRIPOS>MOLECULE
/home/cewinharhar/GITHUB/reincatalyze/data/processed/docking_pred/2023-May-22-1902_sub9_nm5_bs15_s42_ex16_mel10_mts1000_k50_ec02_g099_lra9e-4_lrc1e-3/4f8485ffa73320ccf1b94cd7b1ea99ef776c762b_ligand_9.pdbqt
 14 15 0 0 0
SMALL
GASTEIGER

@<TRIPOS>ATOM
      1  C          5.5330    1.9300    1.2850 C.3     1  UNL1        0.0800
      2  C          5.0610    0.7130    2.0030 C.2     1  UNL1        0.1300
      3  C          5.9240   -0.4890    2.1530 C.3     1  UNL1        0.0870
      4  O          3.9440    0.6680    2.4920 O.2     1  UNL1       -0.3000
      5  C          5.4120    1.7640   -0.2170 C.3     1  UNL1        0.0430
      6  C          6.5710    1.0520   -0.7840 C.2     1  UNL1       -0.0440
      7  C          7.8830    1.4710   -0.5310 C.2     1  UNL1        0.0080
      8  C          6.3720   -0.0530   -1.5790 C.2     1  UNL1        0.0540
      9  C          8.9320    0.7630   -1.0890 C.2     1  UNL1        0.0510
     10  C          7.4360   -0.7650   -2.1400 C.2     1  UNL1        0.1660
     11  C          8.7270   -0.3530   -1.8940 C.2     1  UNL1        0.1650
     12  O          7.4980   -1.8780   -2.9530 O.2     1  UNL1       -0.4540
     13  O          9.5630   -1.2310   -2.5660 O.2     1  UNL1       -0.4540
     14  C          8.8290   -2.2660   -3.1760 C.3     1  UNL1        0.4680
@<TRIPOS>BOND
     1    14    12    1
     2    14    13    1
     3    12    10    1
     4    13    11    1
     5    10    11    2
     6    10     8    1
     7    11     9    1
     8     8     6    2
     9     9     7    2
    10     6     7    1
    11     6     5    1
    12     5     1    1
    13     1     2    1
    14     2     3    1
    15     2     4    2
