@<TRIPOS>MOLECULE
/home/cewinharhar/GITHUB/reincatalyze/data/processed/docking_pred/2023-May-22-1902_sub9_nm5_bs15_s42_ex16_mel10_mts1000_k50_ec02_g099_lra9e-4_lrc1e-3/4f8485ffa73320ccf1b94cd7b1ea99ef776c762b_ligand_9.pdbqt
 14 15 0 0 0
SMALL
GASTEIGER

@<TRIPOS>ATOM
      1  C          6.7230    1.5830   -0.0910 C.3     1  UNL1        0.0800
      2  C          5.9470    2.5320    0.7550 C.2     1  UNL1        0.1300
      3  C          6.4620    3.8890    1.0790 C.3     1  UNL1        0.0870
      4  O          4.8590    2.2200    1.2090 O.2     1  UNL1       -0.3000
      5  C          6.2830    0.1510    0.1420 C.3     1  UNL1        0.0430
      6  C          7.0770   -0.5000    1.1980 C.2     1  UNL1       -0.0440
      7  C          6.5560   -0.7160    2.4790 C.2     1  UNL1        0.0080
      8  C          8.3630   -0.9120    0.9290 C.2     1  UNL1        0.0540
      9  C          7.3490   -1.3330    3.4300 C.2     1  UNL1        0.0510
     10  C          9.1590   -1.5360    1.8940 C.2     1  UNL1        0.1660
     11  C          8.6480   -1.7480    3.1550 C.2     1  UNL1        0.1650
     12  O         10.4470   -2.0290    1.8740 O.2     1  UNL1       -0.4540
     13  O          9.6420   -2.3740    3.8910 O.2     1  UNL1       -0.4540
     14  C         10.7660   -2.6530    3.0910 C.3     1  UNL1        0.4680
@<TRIPOS>BOND
     1     1     5    1
     2     1     2    1
     3     5     6    1
     4     2     3    1
     5     2     4    2
     6     8     6    2
     7     8    10    1
     8     6     7    1
     9    12    10    1
    10    12    14    1
    11    10    11    2
    12     7     9    2
    13    14    13    1
    14    11     9    1
    15    11    13    1
