@<TRIPOS>MOLECULE
/home/cewinharhar/GITHUB/reincatalyze/data/processed/docking_pred/2023-May-22-1902_sub9_nm5_bs15_s42_ex16_mel10_mts1000_k50_ec02_g099_lra9e-4_lrc1e-3/4f8485ffa73320ccf1b94cd7b1ea99ef776c762b_ligand_9.pdbqt
 14 15 0 0 0
SMALL
GASTEIGER

@<TRIPOS>ATOM
      1  C          5.5000    2.8890    0.0680 C.3     1  UNL1        0.0800
      2  C          6.2640    3.8060    0.9590 C.2     1  UNL1        0.1300
      3  C          7.2540    4.7750    0.4180 C.3     1  UNL1        0.0870
      4  O          6.0980    3.7880    2.1680 O.2     1  UNL1       -0.3000
      5  C          5.0750    1.6340    0.8040 C.3     1  UNL1        0.0430
      6  C          6.1060    0.5830    0.7330 C.2     1  UNL1       -0.0440
      7  C          6.4920    0.0170   -0.4880 C.2     1  UNL1        0.0080
      8  C          6.7120    0.1430    1.8870 C.2     1  UNL1        0.0540
      9  C          7.4660   -0.9650   -0.4930 C.2     1  UNL1        0.0510
     10  C          7.6970   -0.8500    1.8760 C.2     1  UNL1        0.1660
     11  C          8.0760   -1.4090    0.6760 C.2     1  UNL1        0.1650
     12  O          8.4380   -1.4500    2.8720 O.2     1  UNL1       -0.4540
     13  O          9.0530   -2.3500    0.9630 O.2     1  UNL1       -0.4540
     14  C          9.3770   -2.3440    2.3320 C.3     1  UNL1        0.4680
@<TRIPOS>BOND
     1     9     7    1
     2     9    11    2
     3     7     6    2
     4     1     5    1
     5     1     2    1
     6     3     2    1
     7    11    13    1
     8    11    10    1
     9     6     5    1
    10     6     8    1
    11     2     4    2
    12    13    14    1
    13    10     8    2
    14    10    12    1
    15    14    12    1
