@<TRIPOS>MOLECULE
/home/cewinharhar/GITHUB/reincatalyze/data/processed/docking_pred/2023-May-22-1902_sub9_nm5_bs15_s42_ex16_mel10_mts1000_k50_ec02_g099_lra9e-4_lrc1e-3/4f8485ffa73320ccf1b94cd7b1ea99ef776c762b_ligand_9.pdbqt
 14 15 0 0 0
SMALL
GASTEIGER

@<TRIPOS>ATOM
      1  C          5.3760    3.0640    0.1710 C.3     1  UNL1        0.0800
      2  C          6.3520    3.7990    1.0220 C.2     1  UNL1        0.1300
      3  C          7.3140    4.7750    0.4410 C.3     1  UNL1        0.0870
      4  O          6.3920    3.6200    2.2280 O.2     1  UNL1       -0.3000
      5  C          5.0070    1.7280    0.7860 C.3     1  UNL1        0.0430
      6  C          5.8860    0.6450    0.3070 C.2     1  UNL1       -0.0440
      7  C          6.2980   -0.3920    1.1520 C.2     1  UNL1        0.0080
      8  C          6.3160    0.6430   -1.0000 C.2     1  UNL1        0.0540
      9  C          7.1220   -1.3810    0.6470 C.2     1  UNL1        0.0510
     10  C          7.1480   -0.3600   -1.5060 C.2     1  UNL1        0.1660
     11  C          7.5550   -1.3800   -0.6750 C.2     1  UNL1        0.1650
     12  O          7.7040   -0.5820   -2.7480 O.2     1  UNL1       -0.4540
     13  O          8.3600   -2.2160   -1.4330 O.2     1  UNL1       -0.4540
     14  C          8.4070   -1.7970   -2.7760 C.3     1  UNL1        0.4680
@<TRIPOS>BOND
     1    14    12    1
     2    14    13    1
     3    12    10    1
     4    10     8    1
     5    10    11    2
     6    13    11    1
     7     8     6    2
     8    11     9    1
     9     1     5    1
    10     1     2    1
    11     6     5    1
    12     6     7    1
    13     3     2    1
    14     9     7    2
    15     2     4    2
