MODEL 1
REMARK VINA RESULT:      -7.5      0.000      0.000
REMARK SMILES CC(=O)CCc1ccc2c(c1)OCO2
REMARK SMILES IDX 4 1 2 2 1 3 3 4 5 5 6 6 7 7 11 8 8 9 10 10 9 11 12 12 14 13
REMARK SMILES IDX 13 14
REMARK H PARENT
REMARK Flexibility Score: inf
ROOT
ATOM      1  C   UNL     1       5.376   3.064   0.171  1.00  0.00     0.080 C 
ENDROOT
BRANCH   1   2
ATOM      2  C   UNL     1       6.352   3.799   1.022  1.00  0.00     0.130 C 
ATOM      3  C   UNL     1       7.314   4.775   0.441  1.00  0.00     0.087 C 
ATOM      4  O   UNL     1       6.392   3.620   2.228  1.00  0.00    -0.300 OA
ENDBRANCH   1   2
BRANCH   1   5
ATOM      5  C   UNL     1       5.007   1.728   0.786  1.00  0.00     0.043 C 
BRANCH   5   6
ATOM      6  C   UNL     1       5.886   0.645   0.307  1.00  0.00    -0.044 A 
ATOM      7  C   UNL     1       6.298  -0.392   1.152  1.00  0.00     0.008 A 
ATOM      8  C   UNL     1       6.316   0.643  -1.000  1.00  0.00     0.054 A 
ATOM      9  C   UNL     1       7.122  -1.381   0.647  1.00  0.00     0.051 A 
ATOM     10  C   UNL     1       7.148  -0.360  -1.506  1.00  0.00     0.166 A 
ATOM     11  C   UNL     1       7.555  -1.380  -0.675  1.00  0.00     0.165 A 
ATOM     12  O   UNL     1       7.704  -0.582  -2.748  1.00  0.00    -0.454 OA
ATOM     13  O   UNL     1       8.360  -2.216  -1.433  1.00  0.00    -0.454 OA
ATOM     14  C   UNL     1       8.407  -1.797  -2.776  1.00  0.00     0.468 C 
ENDBRANCH   5   6
ENDBRANCH   1   5
TORSDOF 3
ENDMDL
MODEL 2
REMARK VINA RESULT:      -7.5      3.426      4.633
REMARK SMILES CC(=O)CCc1ccc2c(c1)OCO2
REMARK SMILES IDX 4 1 2 2 1 3 3 4 5 5 6 6 7 7 11 8 8 9 10 10 9 11 12 12 14 13
REMARK SMILES IDX 13 14
REMARK H PARENT
REMARK Flexibility Score: inf
ROOT
ATOM      1  C   UNL     1       5.563  -0.231   1.973  1.00  0.00     0.080 C 
ENDROOT
BRANCH   1   2
ATOM      2  C   UNL     1       5.320   0.974   1.132  1.00  0.00     0.130 C 
ATOM      3  C   UNL     1       5.866   1.087  -0.247  1.00  0.00     0.087 C 
ATOM      4  O   UNL     1       4.661   1.911   1.554  1.00  0.00    -0.300 OA
ENDBRANCH   1   2
BRANCH   1   5
ATOM      5  C   UNL     1       6.513  -1.196   1.291  1.00  0.00     0.043 C 
BRANCH   5   6
ATOM      6  C   UNL     1       7.641  -1.562   2.165  1.00  0.00    -0.044 A 
ATOM      7  C   UNL     1       7.665  -1.207   3.519  1.00  0.00     0.008 A 
ATOM      8  C   UNL     1       8.700  -2.274   1.649  1.00  0.00     0.054 A 
ATOM      9  C   UNL     1       8.750  -1.580   4.291  1.00  0.00     0.051 A 
ATOM     10  C   UNL     1       9.795  -2.649   2.435  1.00  0.00     0.166 A 
ATOM     11  C   UNL     1       9.820  -2.298   3.766  1.00  0.00     0.165 A 
ATOM     12  O   UNL     1      10.952  -3.346   2.161  1.00  0.00    -0.454 OA
ATOM     13  O   UNL     1      11.004  -2.794   4.289  1.00  0.00    -0.454 OA
ATOM     14  C   UNL     1      11.710  -3.542   3.328  1.00  0.00     0.468 C 
ENDBRANCH   5   6
ENDBRANCH   1   5
TORSDOF 3
ENDMDL
MODEL 3
REMARK VINA RESULT:      -7.3      1.885      2.621
REMARK SMILES CC(=O)CCc1ccc2c(c1)OCO2
REMARK SMILES IDX 4 1 2 2 1 3 3 4 5 5 6 6 7 7 11 8 8 9 10 10 9 11 12 12 14 13
REMARK SMILES IDX 13 14
REMARK H PARENT
REMARK Flexibility Score: inf
ROOT
ATOM      1  C   UNL     1       5.533   1.930   1.285  1.00  0.00     0.080 C 
ENDROOT
BRANCH   1   2
ATOM      2  C   UNL     1       5.061   0.713   2.003  1.00  0.00     0.130 C 
ATOM      3  C   UNL     1       5.924  -0.489   2.153  1.00  0.00     0.087 C 
ATOM      4  O   UNL     1       3.944   0.668   2.492  1.00  0.00    -0.300 OA
ENDBRANCH   1   2
BRANCH   1   5
ATOM      5  C   UNL     1       5.412   1.764  -0.217  1.00  0.00     0.043 C 
BRANCH   5   6
ATOM      6  C   UNL     1       6.571   1.052  -0.784  1.00  0.00    -0.044 A 
ATOM      7  C   UNL     1       7.883   1.471  -0.531  1.00  0.00     0.008 A 
ATOM      8  C   UNL     1       6.372  -0.053  -1.579  1.00  0.00     0.054 A 
ATOM      9  C   UNL     1       8.932   0.763  -1.089  1.00  0.00     0.051 A 
ATOM     10  C   UNL     1       7.436  -0.765  -2.140  1.00  0.00     0.166 A 
ATOM     11  C   UNL     1       8.727  -0.353  -1.894  1.00  0.00     0.165 A 
ATOM     12  O   UNL     1       7.498  -1.878  -2.953  1.00  0.00    -0.454 OA
ATOM     13  O   UNL     1       9.563  -1.231  -2.566  1.00  0.00    -0.454 OA
ATOM     14  C   UNL     1       8.829  -2.266  -3.176  1.00  0.00     0.468 C 
ENDBRANCH   5   6
ENDBRANCH   1   5
TORSDOF 3
ENDMDL
MODEL 4
REMARK VINA RESULT:      -7.3      1.681      2.594
REMARK SMILES CC(=O)CCc1ccc2c(c1)OCO2
REMARK SMILES IDX 4 1 2 2 1 3 3 4 5 5 6 6 7 7 11 8 8 9 10 10 9 11 12 12 14 13
REMARK SMILES IDX 13 14
REMARK H PARENT
REMARK Flexibility Score: inf
ROOT
ATOM      1  C   UNL     1       5.500   2.889   0.068  1.00  0.00     0.080 C 
ENDROOT
BRANCH   1   2
ATOM      2  C   UNL     1       6.264   3.806   0.959  1.00  0.00     0.130 C 
ATOM      3  C   UNL     1       7.254   4.775   0.418  1.00  0.00     0.087 C 
ATOM      4  O   UNL     1       6.098   3.788   2.168  1.00  0.00    -0.300 OA
ENDBRANCH   1   2
BRANCH   1   5
ATOM      5  C   UNL     1       5.075   1.634   0.804  1.00  0.00     0.043 C 
BRANCH   5   6
ATOM      6  C   UNL     1       6.106   0.583   0.733  1.00  0.00    -0.044 A 
ATOM      7  C   UNL     1       6.492   0.017  -0.488  1.00  0.00     0.008 A 
ATOM      8  C   UNL     1       6.712   0.143   1.887  1.00  0.00     0.054 A 
ATOM      9  C   UNL     1       7.466  -0.965  -0.493  1.00  0.00     0.051 A 
ATOM     10  C   UNL     1       7.697  -0.850   1.876  1.00  0.00     0.166 A 
ATOM     11  C   UNL     1       8.076  -1.409   0.676  1.00  0.00     0.165 A 
ATOM     12  O   UNL     1       8.438  -1.450   2.872  1.00  0.00    -0.454 OA
ATOM     13  O   UNL     1       9.053  -2.350   0.963  1.00  0.00    -0.454 OA
ATOM     14  C   UNL     1       9.377  -2.344   2.332  1.00  0.00     0.468 C 
ENDBRANCH   5   6
ENDBRANCH   1   5
TORSDOF 3
ENDMDL
MODEL 5
REMARK VINA RESULT:      -7.2      2.683      3.546
REMARK SMILES CC(=O)CCc1ccc2c(c1)OCO2
REMARK SMILES IDX 4 1 2 2 1 3 3 4 5 5 6 6 7 7 11 8 8 9 10 10 9 11 12 12 14 13
REMARK SMILES IDX 13 14
REMARK H PARENT
REMARK Flexibility Score: inf
ROOT
ATOM      1  C   UNL     1       6.723   1.583  -0.091  1.00  0.00     0.080 C 
ENDROOT
BRANCH   1   2
ATOM      2  C   UNL     1       5.947   2.532   0.755  1.00  0.00     0.130 C 
ATOM      3  C   UNL     1       6.462   3.889   1.079  1.00  0.00     0.087 C 
ATOM      4  O   UNL     1       4.859   2.220   1.209  1.00  0.00    -0.300 OA
ENDBRANCH   1   2
BRANCH   1   5
ATOM      5  C   UNL     1       6.283   0.151   0.142  1.00  0.00     0.043 C 
BRANCH   5   6
ATOM      6  C   UNL     1       7.077  -0.500   1.198  1.00  0.00    -0.044 A 
ATOM      7  C   UNL     1       6.556  -0.716   2.479  1.00  0.00     0.008 A 
ATOM      8  C   UNL     1       8.363  -0.912   0.929  1.00  0.00     0.054 A 
ATOM      9  C   UNL     1       7.349  -1.333   3.430  1.00  0.00     0.051 A 
ATOM     10  C   UNL     1       9.159  -1.536   1.894  1.00  0.00     0.166 A 
ATOM     11  C   UNL     1       8.648  -1.748   3.155  1.00  0.00     0.165 A 
ATOM     12  O   UNL     1      10.447  -2.029   1.874  1.00  0.00    -0.454 OA
ATOM     13  O   UNL     1       9.642  -2.374   3.891  1.00  0.00    -0.454 OA
ATOM     14  C   UNL     1      10.766  -2.653   3.091  1.00  0.00     0.468 C 
ENDBRANCH   5   6
ENDBRANCH   1   5
TORSDOF 3
ENDMDL
