MODEL 1
REMARK VINA RESULT:      -7.9      0.000      0.000
REMARK SMILES CC(=O)CCc1ccc2c(c1)OCO2
REMARK SMILES IDX 4 1 2 2 1 3 3 4 5 5 6 6 7 7 11 8 8 9 10 10 9 11 12 12 14 13
REMARK SMILES IDX 13 14
REMARK H PARENT
REMARK Flexibility Score: inf
ROOT
ATOM      1  C   UNL     1       5.439   2.918   0.088  1.00  0.00     0.080 C 
ENDROOT
BRANCH   1   2
ATOM      2  C   UNL     1       6.277   3.818   0.929  1.00  0.00     0.130 C 
ATOM      3  C   UNL     1       7.244   4.774   0.326  1.00  0.00     0.087 C 
ATOM      4  O   UNL     1       6.193   3.796   2.146  1.00  0.00    -0.300 OA
ENDBRANCH   1   2
BRANCH   1   5
ATOM      5  C   UNL     1       5.137   1.618   0.806  1.00  0.00     0.043 C 
BRANCH   5   6
ATOM      6  C   UNL     1       5.963   0.508   0.299  1.00  0.00    -0.044 A 
ATOM      7  C   UNL     1       6.275  -0.598   1.098  1.00  0.00     0.008 A 
ATOM      8  C   UNL     1       6.443   0.549  -0.991  1.00  0.00     0.054 A 
ATOM      9  C   UNL     1       7.055  -1.610   0.567  1.00  0.00     0.051 A 
ATOM     10  C   UNL     1       7.230  -0.477  -1.522  1.00  0.00     0.166 A 
ATOM     11  C   UNL     1       7.539  -1.565  -0.736  1.00  0.00     0.165 A 
ATOM     12  O   UNL     1       7.819  -0.667  -2.754  1.00  0.00    -0.454 OA
ATOM     13  O   UNL     1       8.318  -2.410  -1.511  1.00  0.00    -0.454 OA
ATOM     14  C   UNL     1       8.445  -1.923  -2.825  1.00  0.00     0.468 C 
ENDBRANCH   5   6
ENDBRANCH   1   5
TORSDOF 3
ENDMDL
MODEL 2
REMARK VINA RESULT:      -7.8      0.962      1.952
REMARK SMILES CC(=O)CCc1ccc2c(c1)OCO2
REMARK SMILES IDX 4 1 2 2 1 3 3 4 5 5 6 6 7 7 11 8 8 9 10 10 9 11 12 12 14 13
REMARK SMILES IDX 13 14
REMARK H PARENT
REMARK Flexibility Score: inf
ROOT
ATOM      1  C   UNL     1       5.449   2.911   0.153  1.00  0.00     0.080 C 
ENDROOT
BRANCH   1   2
ATOM      2  C   UNL     1       6.284   3.843   0.961  1.00  0.00     0.130 C 
ATOM      3  C   UNL     1       7.255   4.773   0.326  1.00  0.00     0.087 C 
ATOM      4  O   UNL     1       6.193   3.869   2.178  1.00  0.00    -0.300 OA
ENDBRANCH   1   2
BRANCH   1   5
ATOM      5  C   UNL     1       5.252   1.588   0.867  1.00  0.00     0.043 C 
BRANCH   5   6
ATOM      6  C   UNL     1       6.068   0.517   0.269  1.00  0.00    -0.044 A 
ATOM      7  C   UNL     1       6.434   0.541  -1.082  1.00  0.00     0.008 A 
ATOM      8  C   UNL     1       6.489  -0.536   1.049  1.00  0.00     0.054 A 
ATOM      9  C   UNL     1       7.202  -0.491  -1.588  1.00  0.00     0.051 A 
ATOM     10  C   UNL     1       7.267  -1.577   0.533  1.00  0.00     0.166 A 
ATOM     11  C   UNL     1       7.626  -1.555  -0.797  1.00  0.00     0.165 A 
ATOM     12  O   UNL     1       7.802  -2.717   1.094  1.00  0.00    -0.454 OA
ATOM     13  O   UNL     1       8.382  -2.693  -1.027  1.00  0.00    -0.454 OA
ATOM     14  C   UNL     1       8.595  -3.412   0.165  1.00  0.00     0.468 C 
ENDBRANCH   5   6
ENDBRANCH   1   5
TORSDOF 3
ENDMDL
MODEL 3
REMARK VINA RESULT:      -7.7      1.891      2.655
REMARK SMILES CC(=O)CCc1ccc2c(c1)OCO2
REMARK SMILES IDX 4 1 2 2 1 3 3 4 5 5 6 6 7 7 11 8 8 9 10 10 9 11 12 12 14 13
REMARK SMILES IDX 13 14
REMARK H PARENT
REMARK Flexibility Score: inf
ROOT
ATOM      1  C   UNL     1       5.539   1.898   1.285  1.00  0.00     0.080 C 
ENDROOT
BRANCH   1   2
ATOM      2  C   UNL     1       5.110   0.675   2.020  1.00  0.00     0.130 C 
ATOM      3  C   UNL     1       6.010  -0.498   2.176  1.00  0.00     0.087 C 
ATOM      4  O   UNL     1       3.998   0.601   2.518  1.00  0.00    -0.300 OA
ENDBRANCH   1   2
BRANCH   1   5
ATOM      5  C   UNL     1       5.407   1.714  -0.213  1.00  0.00     0.043 C 
BRANCH   5   6
ATOM      6  C   UNL     1       6.572   1.014  -0.783  1.00  0.00    -0.044 A 
ATOM      7  C   UNL     1       7.880   1.443  -0.532  1.00  0.00     0.008 A 
ATOM      8  C   UNL     1       6.380  -0.092  -1.580  1.00  0.00     0.054 A 
ATOM      9  C   UNL     1       8.934   0.746  -1.093  1.00  0.00     0.051 A 
ATOM     10  C   UNL     1       7.450  -0.794  -2.144  1.00  0.00     0.166 A 
ATOM     11  C   UNL     1       8.737  -0.371  -1.899  1.00  0.00     0.165 A 
ATOM     12  O   UNL     1       7.520  -1.904  -2.959  1.00  0.00    -0.454 OA
ATOM     13  O   UNL     1       9.580  -1.240  -2.574  1.00  0.00    -0.454 OA
ATOM     14  C   UNL     1       8.854  -2.280  -3.185  1.00  0.00     0.468 C 
ENDBRANCH   5   6
ENDBRANCH   1   5
TORSDOF 3
ENDMDL
MODEL 4
REMARK VINA RESULT:      -7.6      1.147      1.578
REMARK SMILES CC(=O)CCc1ccc2c(c1)OCO2
REMARK SMILES IDX 4 1 2 2 1 3 3 4 5 5 6 6 7 7 11 8 8 9 10 10 9 11 12 12 14 13
REMARK SMILES IDX 13 14
REMARK H PARENT
REMARK Flexibility Score: inf
ROOT
ATOM      1  C   UNL     1       5.485   2.911   0.066  1.00  0.00     0.080 C 
ENDROOT
BRANCH   1   2
ATOM      2  C   UNL     1       6.224   3.860   0.945  1.00  0.00     0.130 C 
ATOM      3  C   UNL     1       7.268   4.771   0.405  1.00  0.00     0.087 C 
ATOM      4  O   UNL     1       5.992   3.917   2.142  1.00  0.00    -0.300 OA
ENDBRANCH   1   2
BRANCH   1   5
ATOM      5  C   UNL     1       5.711   1.474   0.494  1.00  0.00     0.043 C 
BRANCH   5   6
ATOM      6  C   UNL     1       6.771   0.829  -0.300  1.00  0.00    -0.044 A 
ATOM      7  C   UNL     1       8.055   1.378  -0.394  1.00  0.00     0.008 A 
ATOM      8  C   UNL     1       6.504  -0.345  -0.969  1.00  0.00     0.054 A 
ATOM      9  C   UNL     1       9.010   0.727  -1.154  1.00  0.00     0.051 A 
ATOM     10  C   UNL     1       7.473  -0.999  -1.735  1.00  0.00     0.166 A 
ATOM     11  C   UNL     1       8.736  -0.459  -1.829  1.00  0.00     0.165 A 
ATOM     12  O   UNL     1       7.455  -2.157  -2.483  1.00  0.00    -0.454 OA
ATOM     13  O   UNL     1       9.476  -1.306  -2.639  1.00  0.00    -0.454 OA
ATOM     14  C   UNL     1       8.729  -2.443  -3.002  1.00  0.00     0.468 C 
ENDBRANCH   5   6
ENDBRANCH   1   5
TORSDOF 3
ENDMDL
MODEL 5
REMARK VINA RESULT:      -7.5      1.955      3.020
REMARK SMILES CC(=O)CCc1ccc2c(c1)OCO2
REMARK SMILES IDX 4 1 2 2 1 3 3 4 5 5 6 6 7 7 11 8 8 9 10 10 9 11 12 12 14 13
REMARK SMILES IDX 13 14
REMARK H PARENT
REMARK Flexibility Score: inf
ROOT
ATOM      1  C   UNL     1       5.778   1.352  -0.328  1.00  0.00     0.080 C 
ENDROOT
BRANCH   1   2
ATOM      2  C   UNL     1       5.166   1.299   1.029  1.00  0.00     0.130 C 
ATOM      3  C   UNL     1       5.382   0.142   1.938  1.00  0.00     0.087 C 
ATOM      4  O   UNL     1       4.464   2.211   1.435  1.00  0.00    -0.300 OA
ENDBRANCH   1   2
BRANCH   1   5
ATOM      5  C   UNL     1       7.268   1.080  -0.271  1.00  0.00     0.043 C 
BRANCH   5   6
ATOM      6  C   UNL     1       7.611  -0.216  -0.882  1.00  0.00    -0.044 A 
ATOM      7  C   UNL     1       7.626  -0.391  -2.271  1.00  0.00     0.008 A 
ATOM      8  C   UNL     1       7.928  -1.287  -0.078  1.00  0.00     0.054 A 
ATOM      9  C   UNL     1       7.957  -1.630  -2.788  1.00  0.00     0.051 A 
ATOM     10  C   UNL     1       8.262  -2.538  -0.606  1.00  0.00     0.166 A 
ATOM     11  C   UNL     1       8.276  -2.711  -1.972  1.00  0.00     0.165 A 
ATOM     12  O   UNL     1       8.609  -3.740  -0.026  1.00  0.00    -0.454 OA
ATOM     13  O   UNL     1       8.636  -4.029  -2.206  1.00  0.00    -0.454 OA
ATOM     14  C   UNL     1       8.945  -4.692  -1.003  1.00  0.00     0.468 C 
ENDBRANCH   5   6
ENDBRANCH   1   5
TORSDOF 3
ENDMDL
