@<TRIPOS>MOLECULE
/home/cewinharhar/GITHUB/reincatalyze/data/processed/docking_pred/2023-May-22-1902_sub9_nm5_bs15_s42_ex16_mel10_mts1000_k50_ec02_g099_lra9e-4_lrc1e-3/4fd116288ae20ad94bf91d23a53b6bc9c92e4cae_ligand_9.pdbqt
 14 15 0 0 0
SMALL
GASTEIGER

@<TRIPOS>ATOM
      1  C          5.4490    2.9110    0.1530 C.3     1  UNL1        0.0800
      2  C          6.2840    3.8430    0.9610 C.2     1  UNL1        0.1300
      3  C          7.2550    4.7730    0.3260 C.3     1  UNL1        0.0870
      4  O          6.1930    3.8690    2.1780 O.2     1  UNL1       -0.3000
      5  C          5.2520    1.5880    0.8670 C.3     1  UNL1        0.0430
      6  C          6.0680    0.5170    0.2690 C.2     1  UNL1       -0.0440
      7  C          6.4340    0.5410   -1.0820 C.2     1  UNL1        0.0080
      8  C          6.4890   -0.5360    1.0490 C.2     1  UNL1        0.0540
      9  C          7.2020   -0.4910   -1.5880 C.2     1  UNL1        0.0510
     10  C          7.2670   -1.5770    0.5330 C.2     1  UNL1        0.1660
     11  C          7.6260   -1.5550   -0.7970 C.2     1  UNL1        0.1650
     12  O          7.8020   -2.7170    1.0940 O.2     1  UNL1       -0.4540
     13  O          8.3820   -2.6930   -1.0270 O.2     1  UNL1       -0.4540
     14  C          8.5950   -3.4120    0.1650 C.3     1  UNL1        0.4680
@<TRIPOS>BOND
     1     9     7    1
     2     9    11    2
     3     7     6    2
     4    13    11    1
     5    13    14    1
     6    11    10    1
     7     1     5    1
     8     1     2    1
     9    14    12    1
    10     6     5    1
    11     6     8    1
    12     3     2    1
    13    10     8    2
    14    10    12    1
    15     2     4    2
