MODEL 1
REMARK VINA RESULT:      -7.7      0.000      0.000
REMARK SMILES CC(=O)CCc1ccc2c(c1)OCO2
REMARK SMILES IDX 4 1 2 2 1 3 3 4 5 5 6 6 7 7 11 8 8 9 10 10 9 11 12 12 14 13
REMARK SMILES IDX 13 14
REMARK H PARENT
REMARK Flexibility Score: inf
ROOT
ATOM      1  C   UNL     1       5.447   2.912   0.267  1.00  0.00     0.080 C 
ENDROOT
BRANCH   1   2
ATOM      2  C   UNL     1       6.284   3.884   1.025  1.00  0.00     0.130 C 
ATOM      3  C   UNL     1       7.259   4.775   0.341  1.00  0.00     0.087 C 
ATOM      4  O   UNL     1       6.192   3.977   2.238  1.00  0.00    -0.300 OA
ENDBRANCH   1   2
BRANCH   1   5
ATOM      5  C   UNL     1       5.315   1.600   1.013  1.00  0.00     0.043 C 
BRANCH   5   6
ATOM      6  C   UNL     1       6.091   0.525   0.370  1.00  0.00    -0.044 A 
ATOM      7  C   UNL     1       6.374   0.544  -1.001  1.00  0.00     0.008 A 
ATOM      8  C   UNL     1       6.555  -0.528   1.126  1.00  0.00     0.054 A 
ATOM      9  C   UNL     1       7.107  -0.492  -1.549  1.00  0.00     0.051 A 
ATOM     10  C   UNL     1       7.297  -1.573   0.567  1.00  0.00     0.166 A 
ATOM     11  C   UNL     1       7.575  -1.555  -0.782  1.00  0.00     0.165 A 
ATOM     12  O   UNL     1       7.861  -2.713   1.097  1.00  0.00    -0.454 OA
ATOM     13  O   UNL     1       8.313  -2.696  -1.054  1.00  0.00    -0.454 OA
ATOM     14  C   UNL     1       8.595  -3.412   0.124  1.00  0.00     0.468 C 
ENDBRANCH   5   6
ENDBRANCH   1   5
TORSDOF 3
ENDMDL
MODEL 2
REMARK VINA RESULT:      -7.7      2.399      3.040
REMARK SMILES CC(=O)CCc1ccc2c(c1)OCO2
REMARK SMILES IDX 4 1 2 2 1 3 3 4 5 5 6 6 7 7 11 8 8 9 10 10 9 11 12 12 14 13
REMARK SMILES IDX 13 14
REMARK H PARENT
REMARK Flexibility Score: inf
ROOT
ATOM      1  C   UNL     1       5.534   1.933   1.257  1.00  0.00     0.080 C 
ENDROOT
BRANCH   1   2
ATOM      2  C   UNL     1       5.115   0.712   2.002  1.00  0.00     0.130 C 
ATOM      3  C   UNL     1       6.032  -0.445   2.184  1.00  0.00     0.087 C 
ATOM      4  O   UNL     1       3.998   0.626   2.486  1.00  0.00    -0.300 OA
ENDBRANCH   1   2
BRANCH   1   5
ATOM      5  C   UNL     1       5.407   1.735  -0.240  1.00  0.00     0.043 C 
BRANCH   5   6
ATOM      6  C   UNL     1       6.572   1.026  -0.799  1.00  0.00    -0.044 A 
ATOM      7  C   UNL     1       7.881   1.451  -0.541  1.00  0.00     0.008 A 
ATOM      8  C   UNL     1       6.381  -0.082  -1.592  1.00  0.00     0.054 A 
ATOM      9  C   UNL     1       8.935   0.746  -1.092  1.00  0.00     0.051 A 
ATOM     10  C   UNL     1       7.451  -0.791  -2.146  1.00  0.00     0.166 A 
ATOM     11  C   UNL     1       8.739  -0.374  -1.894  1.00  0.00     0.165 A 
ATOM     12  O   UNL     1       7.521  -1.906  -2.955  1.00  0.00    -0.454 OA
ATOM     13  O   UNL     1       9.582  -1.250  -2.560  1.00  0.00    -0.454 OA
ATOM     14  C   UNL     1       8.855  -2.289  -3.170  1.00  0.00     0.468 C 
ENDBRANCH   5   6
ENDBRANCH   1   5
TORSDOF 3
ENDMDL
MODEL 3
REMARK VINA RESULT:      -7.5      1.820      2.425
REMARK SMILES CC(=O)CCc1ccc2c(c1)OCO2
REMARK SMILES IDX 4 1 2 2 1 3 3 4 5 5 6 6 7 7 11 8 8 9 10 10 9 11 12 12 14 13
REMARK SMILES IDX 13 14
REMARK H PARENT
REMARK Flexibility Score: inf
ROOT
ATOM      1  C   UNL     1       5.758   1.341  -0.362  1.00  0.00     0.080 C 
ENDROOT
BRANCH   1   2
ATOM      2  C   UNL     1       5.138   1.313   0.992  1.00  0.00     0.130 C 
ATOM      3  C   UNL     1       5.405   0.208   1.951  1.00  0.00     0.087 C 
ATOM      4  O   UNL     1       4.386   2.204   1.356  1.00  0.00    -0.300 OA
ENDBRANCH   1   2
BRANCH   1   5
ATOM      5  C   UNL     1       7.248   1.073  -0.290  1.00  0.00     0.043 C 
BRANCH   5   6
ATOM      6  C   UNL     1       7.599  -0.224  -0.896  1.00  0.00    -0.044 A 
ATOM      7  C   UNL     1       7.627  -0.401  -2.284  1.00  0.00     0.008 A 
ATOM      8  C   UNL     1       7.912  -1.292  -0.086  1.00  0.00     0.054 A 
ATOM      9  C   UNL     1       7.964  -1.641  -2.795  1.00  0.00     0.051 A 
ATOM     10  C   UNL     1       8.254  -2.543  -0.608  1.00  0.00     0.166 A 
ATOM     11  C   UNL     1       8.280  -2.719  -1.974  1.00  0.00     0.165 A 
ATOM     12  O   UNL     1       8.599  -3.743  -0.023  1.00  0.00    -0.454 OA
ATOM     13  O   UNL     1       8.645  -4.037  -2.202  1.00  0.00    -0.454 OA
ATOM     14  C   UNL     1       8.945  -4.697  -0.995  1.00  0.00     0.468 C 
ENDBRANCH   5   6
ENDBRANCH   1   5
TORSDOF 3
ENDMDL
MODEL 4
REMARK VINA RESULT:      -7.5      1.657      2.169
REMARK SMILES CC(=O)CCc1ccc2c(c1)OCO2
REMARK SMILES IDX 4 1 2 2 1 3 3 4 5 5 6 6 7 7 11 8 8 9 10 10 9 11 12 12 14 13
REMARK SMILES IDX 13 14
REMARK H PARENT
REMARK Flexibility Score: inf
ROOT
ATOM      1  C   UNL     1       6.338   0.908   1.025  1.00  0.00     0.080 C 
ENDROOT
BRANCH   1   2
ATOM      2  C   UNL     1       5.108   1.744   0.936  1.00  0.00     0.130 C 
ATOM      3  C   UNL     1       4.866   2.656  -0.213  1.00  0.00     0.087 C 
ATOM      4  O   UNL     1       4.259   1.704   1.812  1.00  0.00    -0.300 OA
ENDBRANCH   1   2
BRANCH   1   5
ATOM      5  C   UNL     1       7.223   1.100  -0.191  1.00  0.00     0.043 C 
BRANCH   5   6
ATOM      6  C   UNL     1       7.574  -0.186  -0.819  1.00  0.00    -0.044 A 
ATOM      7  C   UNL     1       7.600  -0.339  -2.210  1.00  0.00     0.008 A 
ATOM      8  C   UNL     1       7.889  -1.268  -0.029  1.00  0.00     0.054 A 
ATOM      9  C   UNL     1       7.938  -1.570  -2.744  1.00  0.00     0.051 A 
ATOM     10  C   UNL     1       8.231  -2.510  -0.573  1.00  0.00     0.166 A 
ATOM     11  C   UNL     1       8.255  -2.662  -1.942  1.00  0.00     0.165 A 
ATOM     12  O   UNL     1       8.578  -3.719  -0.010  1.00  0.00    -0.454 OA
ATOM     13  O   UNL     1       8.621  -3.975  -2.193  1.00  0.00    -0.454 OA
ATOM     14  C   UNL     1       8.923  -4.655  -0.998  1.00  0.00     0.468 C 
ENDBRANCH   5   6
ENDBRANCH   1   5
TORSDOF 3
ENDMDL
MODEL 5
REMARK VINA RESULT:      -7.4      1.174      2.090
REMARK SMILES CC(=O)CCc1ccc2c(c1)OCO2
REMARK SMILES IDX 4 1 2 2 1 3 3 4 5 5 6 6 7 7 11 8 8 9 10 10 9 11 12 12 14 13
REMARK SMILES IDX 13 14
REMARK H PARENT
REMARK Flexibility Score: inf
ROOT
ATOM      1  C   UNL     1       5.369   2.960   0.065  1.00  0.00     0.080 C 
ENDROOT
BRANCH   1   2
ATOM      2  C   UNL     1       6.329   3.891   0.721  1.00  0.00     0.130 C 
ATOM      3  C   UNL     1       6.656   3.784   2.168  1.00  0.00     0.087 C 
ATOM      4  O   UNL     1       6.879   4.775   0.084  1.00  0.00    -0.300 OA
ENDBRANCH   1   2
BRANCH   1   5
ATOM      5  C   UNL     1       5.150   1.715   0.903  1.00  0.00     0.043 C 
BRANCH   5   6
ATOM      6  C   UNL     1       5.971   0.586   0.429  1.00  0.00    -0.044 A 
ATOM      7  C   UNL     1       6.380  -0.436   1.292  1.00  0.00     0.008 A 
ATOM      8  C   UNL     1       6.347   0.525  -0.894  1.00  0.00     0.054 A 
ATOM      9  C   UNL     1       7.148  -1.471   0.791  1.00  0.00     0.051 A 
ATOM     10  C   UNL     1       7.124  -0.524  -1.396  1.00  0.00     0.166 A 
ATOM     11  C   UNL     1       7.528  -1.530  -0.546  1.00  0.00     0.165 A 
ATOM     12  O   UNL     1       7.621  -0.808  -2.650  1.00  0.00    -0.454 OA
ATOM     13  O   UNL     1       8.272  -2.420  -1.305  1.00  0.00    -0.454 OA
ATOM     14  C   UNL     1       8.280  -2.049  -2.662  1.00  0.00     0.468 C 
ENDBRANCH   5   6
ENDBRANCH   1   5
TORSDOF 3
ENDMDL
