@<TRIPOS>MOLECULE
/home/cewinharhar/GITHUB/reincatalyze/data/processed/docking_pred/2023-May-22-1902_sub9_nm5_bs15_s42_ex16_mel10_mts1000_k50_ec02_g099_lra9e-4_lrc1e-3/5131ba4422f83928eab452067adeb3f7f7723c60_ligand_9.pdbqt
 14 15 0 0 0
SMALL
GASTEIGER

@<TRIPOS>ATOM
      1  C          5.3690    2.9600    0.0650 C.3     1  UNL1        0.0800
      2  C          6.3290    3.8910    0.7210 C.2     1  UNL1        0.1300
      3  C          6.6560    3.7840    2.1680 C.3     1  UNL1        0.0870
      4  O          6.8790    4.7750    0.0840 O.2     1  UNL1       -0.3000
      5  C          5.1500    1.7150    0.9030 C.3     1  UNL1        0.0430
      6  C          5.9710    0.5860    0.4290 C.2     1  UNL1       -0.0440
      7  C          6.3800   -0.4360    1.2920 C.2     1  UNL1        0.0080
      8  C          6.3470    0.5250   -0.8940 C.2     1  UNL1        0.0540
      9  C          7.1480   -1.4710    0.7910 C.2     1  UNL1        0.0510
     10  C          7.1240   -0.5240   -1.3960 C.2     1  UNL1        0.1660
     11  C          7.5280   -1.5300   -0.5460 C.2     1  UNL1        0.1650
     12  O          7.6210   -0.8080   -2.6500 O.2     1  UNL1       -0.4540
     13  O          8.2720   -2.4200   -1.3050 O.2     1  UNL1       -0.4540
     14  C          8.2800   -2.0490   -2.6620 C.3     1  UNL1        0.4680
@<TRIPOS>BOND
     1    14    12    1
     2    14    13    1
     3    12    10    1
     4    10     8    1
     5    10    11    2
     6    13    11    1
     7     8     6    2
     8    11     9    1
     9     1     2    1
    10     1     5    1
    11     4     2    2
    12     6     5    1
    13     6     7    1
    14     2     3    1
    15     9     7    2
