@<TRIPOS>MOLECULE
/home/cewinharhar/GITHUB/reincatalyze/data/processed/docking_pred/2023-May-22-1902_sub9_nm5_bs15_s42_ex16_mel10_mts1000_k50_ec02_g099_lra9e-4_lrc1e-3/5131ba4422f83928eab452067adeb3f7f7723c60_ligand_9.pdbqt
 14 15 0 0 0
SMALL
GASTEIGER

@<TRIPOS>ATOM
      1  C          5.4470    2.9120    0.2670 C.3     1  UNL1        0.0800
      2  C          6.2840    3.8840    1.0250 C.2     1  UNL1        0.1300
      3  C          7.2590    4.7750    0.3410 C.3     1  UNL1        0.0870
      4  O          6.1920    3.9770    2.2380 O.2     1  UNL1       -0.3000
      5  C          5.3150    1.6000    1.0130 C.3     1  UNL1        0.0430
      6  C          6.0910    0.5250    0.3700 C.2     1  UNL1       -0.0440
      7  C          6.3740    0.5440   -1.0010 C.2     1  UNL1        0.0080
      8  C          6.5550   -0.5280    1.1260 C.2     1  UNL1        0.0540
      9  C          7.1070   -0.4920   -1.5490 C.2     1  UNL1        0.0510
     10  C          7.2970   -1.5730    0.5670 C.2     1  UNL1        0.1660
     11  C          7.5750   -1.5550   -0.7820 C.2     1  UNL1        0.1650
     12  O          7.8610   -2.7130    1.0970 O.2     1  UNL1       -0.4540
     13  O          8.3130   -2.6960   -1.0540 O.2     1  UNL1       -0.4540
     14  C          8.5950   -3.4120    0.1240 C.3     1  UNL1        0.4680
@<TRIPOS>BOND
     1     9     7    1
     2     9    11    2
     3    13    11    1
     4    13    14    1
     5     7     6    2
     6    11    10    1
     7    14    12    1
     8     1     5    1
     9     1     2    1
    10     3     2    1
    11     6     5    1
    12     6     8    1
    13    10    12    1
    14    10     8    2
    15     2     4    2
