@<TRIPOS>MOLECULE
/home/cewinharhar/GITHUB/reincatalyze/data/processed/docking_pred/2023-May-22-1902_sub9_nm5_bs15_s42_ex16_mel10_mts1000_k50_ec02_g099_lra9e-4_lrc1e-3/51335195432d6c3c52ef841bfe8bb9323d602809_ligand_9.pdbqt
 14 15 0 0 0
SMALL
GASTEIGER

@<TRIPOS>ATOM
      1  C          5.9550    1.5980    1.1270 C.3     1  UNL1        0.0800
      2  C          5.4560    0.4710    1.9640 C.2     1  UNL1        0.1300
      3  C          6.2980   -0.7220    2.2480 C.3     1  UNL1        0.0870
      4  O          4.3340    0.4950    2.4430 O.2     1  UNL1       -0.3000
      5  C          5.6940    1.3480   -0.3450 C.3     1  UNL1        0.0430
      6  C          6.8020    0.6100   -0.9780 C.2     1  UNL1       -0.0440
      7  C          8.1320    1.0200   -0.8360 C.2     1  UNL1        0.0080
      8  C          6.5330   -0.5130   -1.7270 C.2     1  UNL1        0.0540
      9  C          9.1300    0.2870   -1.4530 C.2     1  UNL1        0.0510
     10  C          7.5450   -1.2510   -2.3480 C.2     1  UNL1        0.1660
     11  C          8.8540   -0.8470   -2.2100 C.2     1  UNL1        0.1650
     12  O          7.5350   -2.3840   -3.1330 O.2     1  UNL1       -0.4540
     13  O          9.6300   -1.7510   -2.9190 O.2     1  UNL1       -0.4540
     14  C          8.8420   -2.7930   -3.4450 C.3     1  UNL1        0.4680
@<TRIPOS>BOND
     1    14    12    1
     2    14    13    1
     3    12    10    1
     4    13    11    1
     5    10    11    2
     6    10     8    1
     7    11     9    1
     8     8     6    2
     9     9     7    2
    10     6     7    1
    11     6     5    1
    12     5     1    1
    13     1     2    1
    14     2     3    1
    15     2     4    2
