@<TRIPOS>MOLECULE
/home/cewinharhar/GITHUB/reincatalyze/data/processed/docking_pred/2023-May-22-1902_sub9_nm5_bs15_s42_ex16_mel10_mts1000_k50_ec02_g099_lra9e-4_lrc1e-3/51335195432d6c3c52ef841bfe8bb9323d602809_ligand_9.pdbqt
 14 15 0 0 0
SMALL
GASTEIGER

@<TRIPOS>ATOM
      1  C          5.4640    3.0140    0.2430 C.3     1  UNL1        0.0800
      2  C          6.4560    3.7750    1.0530 C.2     1  UNL1        0.1300
      3  C          7.3760    4.7650    0.4330 C.3     1  UNL1        0.0870
      4  O          6.5420    3.6050    2.2590 O.2     1  UNL1       -0.3000
      5  C          5.1560    1.6690    0.8700 C.3     1  UNL1        0.0430
      6  C          6.0110    0.6020    0.3220 C.2     1  UNL1       -0.0440
      7  C          6.4790    0.6410   -0.9970 C.2     1  UNL1        0.0080
      8  C          6.3680   -0.4630    1.1180 C.2     1  UNL1        0.0540
      9  C          7.2790   -0.3890   -1.4560 C.2     1  UNL1        0.0510
     10  C          7.1780   -1.5020    0.6490 C.2     1  UNL1        0.1660
     11  C          7.6370   -1.4640   -0.6490 C.2     1  UNL1        0.1650
     12  O          7.6640   -2.6520    1.2340 O.2     1  UNL1       -0.4540
     13  O          8.4050   -2.6030   -0.8350 O.2     1  UNL1       -0.4540
     14  C          8.5230   -3.3380    0.3600 C.3     1  UNL1        0.4680
@<TRIPOS>BOND
     1     9     7    1
     2     9    11    2
     3     7     6    2
     4    13    11    1
     5    13    14    1
     6    11    10    1
     7     1     5    1
     8     1     2    1
     9     6     5    1
    10     6     8    1
    11    14    12    1
    12     3     2    1
    13    10     8    2
    14    10    12    1
    15     2     4    2
