MODEL 1
REMARK VINA RESULT:      -8.1      0.000      0.000
REMARK SMILES CC(=O)CCc1ccc2c(c1)OCO2
REMARK SMILES IDX 4 1 2 2 1 3 3 4 5 5 6 6 7 7 11 8 8 9 10 10 9 11 12 12 14 13
REMARK SMILES IDX 13 14
REMARK H PARENT
REMARK Flexibility Score: inf
ROOT
ATOM      1  C   UNL     1       5.955   1.598   1.127  1.00  0.00     0.080 C 
ENDROOT
BRANCH   1   2
ATOM      2  C   UNL     1       5.456   0.471   1.964  1.00  0.00     0.130 C 
ATOM      3  C   UNL     1       6.298  -0.722   2.248  1.00  0.00     0.087 C 
ATOM      4  O   UNL     1       4.334   0.495   2.443  1.00  0.00    -0.300 OA
ENDBRANCH   1   2
BRANCH   1   5
ATOM      5  C   UNL     1       5.694   1.348  -0.345  1.00  0.00     0.043 C 
BRANCH   5   6
ATOM      6  C   UNL     1       6.802   0.610  -0.978  1.00  0.00    -0.044 A 
ATOM      7  C   UNL     1       8.132   1.020  -0.836  1.00  0.00     0.008 A 
ATOM      8  C   UNL     1       6.533  -0.513  -1.727  1.00  0.00     0.054 A 
ATOM      9  C   UNL     1       9.130   0.287  -1.453  1.00  0.00     0.051 A 
ATOM     10  C   UNL     1       7.545  -1.251  -2.348  1.00  0.00     0.166 A 
ATOM     11  C   UNL     1       8.854  -0.847  -2.210  1.00  0.00     0.165 A 
ATOM     12  O   UNL     1       7.535  -2.384  -3.133  1.00  0.00    -0.454 OA
ATOM     13  O   UNL     1       9.630  -1.751  -2.919  1.00  0.00    -0.454 OA
ATOM     14  C   UNL     1       8.842  -2.793  -3.445  1.00  0.00     0.468 C 
ENDBRANCH   5   6
ENDBRANCH   1   5
TORSDOF 3
ENDMDL
MODEL 2
REMARK VINA RESULT:      -7.8      1.498      2.113
REMARK SMILES CC(=O)CCc1ccc2c(c1)OCO2
REMARK SMILES IDX 4 1 2 2 1 3 3 4 5 5 6 6 7 7 11 8 8 9 10 10 9 11 12 12 14 13
REMARK SMILES IDX 13 14
REMARK H PARENT
REMARK Flexibility Score: inf
ROOT
ATOM      1  C   UNL     1       5.522   2.759  -0.151  1.00  0.00     0.080 C 
ENDROOT
BRANCH   1   2
ATOM      2  C   UNL     1       6.264   3.608   0.823  1.00  0.00     0.130 C 
ATOM      3  C   UNL     1       7.074   4.775   0.384  1.00  0.00     0.087 C 
ATOM      4  O   UNL     1       6.227   3.367   2.019  1.00  0.00    -0.300 OA
ENDBRANCH   1   2
BRANCH   1   5
ATOM      5  C   UNL     1       5.661   1.287   0.184  1.00  0.00     0.043 C 
BRANCH   5   6
ATOM      6  C   UNL     1       6.747   0.652  -0.584  1.00  0.00    -0.044 A 
ATOM      7  C   UNL     1       8.051   1.158  -0.566  1.00  0.00     0.008 A 
ATOM      8  C   UNL     1       6.483  -0.468  -1.340  1.00  0.00     0.054 A 
ATOM      9  C   UNL     1       9.029   0.519  -1.307  1.00  0.00     0.051 A 
ATOM     10  C   UNL     1       7.475  -1.111  -2.086  1.00  0.00     0.166 A 
ATOM     11  C   UNL     1       8.759  -0.612  -2.070  1.00  0.00     0.165 A 
ATOM     12  O   UNL     1       7.465  -2.220  -2.904  1.00  0.00    -0.454 OA
ATOM     13  O   UNL     1       9.519  -1.436  -2.886  1.00  0.00    -0.454 OA
ATOM     14  C   UNL     1       8.759  -2.520  -3.363  1.00  0.00     0.468 C 
ENDBRANCH   5   6
ENDBRANCH   1   5
TORSDOF 3
ENDMDL
MODEL 3
REMARK VINA RESULT:      -7.5      2.447      3.140
REMARK SMILES CC(=O)CCc1ccc2c(c1)OCO2
REMARK SMILES IDX 4 1 2 2 1 3 3 4 5 5 6 6 7 7 11 8 8 9 10 10 9 11 12 12 14 13
REMARK SMILES IDX 13 14
REMARK H PARENT
REMARK Flexibility Score: inf
ROOT
ATOM      1  C   UNL     1       5.464   3.014   0.243  1.00  0.00     0.080 C 
ENDROOT
BRANCH   1   2
ATOM      2  C   UNL     1       6.456   3.775   1.053  1.00  0.00     0.130 C 
ATOM      3  C   UNL     1       7.376   4.765   0.433  1.00  0.00     0.087 C 
ATOM      4  O   UNL     1       6.542   3.605   2.259  1.00  0.00    -0.300 OA
ENDBRANCH   1   2
BRANCH   1   5
ATOM      5  C   UNL     1       5.156   1.669   0.870  1.00  0.00     0.043 C 
BRANCH   5   6
ATOM      6  C   UNL     1       6.011   0.602   0.322  1.00  0.00    -0.044 A 
ATOM      7  C   UNL     1       6.479   0.641  -0.997  1.00  0.00     0.008 A 
ATOM      8  C   UNL     1       6.368  -0.463   1.118  1.00  0.00     0.054 A 
ATOM      9  C   UNL     1       7.279  -0.389  -1.456  1.00  0.00     0.051 A 
ATOM     10  C   UNL     1       7.178  -1.502   0.649  1.00  0.00     0.166 A 
ATOM     11  C   UNL     1       7.637  -1.464  -0.649  1.00  0.00     0.165 A 
ATOM     12  O   UNL     1       7.664  -2.652   1.234  1.00  0.00    -0.454 OA
ATOM     13  O   UNL     1       8.405  -2.603  -0.835  1.00  0.00    -0.454 OA
ATOM     14  C   UNL     1       8.523  -3.338   0.360  1.00  0.00     0.468 C 
ENDBRANCH   5   6
ENDBRANCH   1   5
TORSDOF 3
ENDMDL
MODEL 4
REMARK VINA RESULT:      -7.5      1.986      2.791
REMARK SMILES CC(=O)CCc1ccc2c(c1)OCO2
REMARK SMILES IDX 4 1 2 2 1 3 3 4 5 5 6 6 7 7 11 8 8 9 10 10 9 11 12 12 14 13
REMARK SMILES IDX 13 14
REMARK H PARENT
REMARK Flexibility Score: inf
ROOT
ATOM      1  C   UNL     1       5.457   2.891   0.345  1.00  0.00     0.080 C 
ENDROOT
BRANCH   1   2
ATOM      2  C   UNL     1       6.259   3.904   1.085  1.00  0.00     0.130 C 
ATOM      3  C   UNL     1       7.247   4.775   0.393  1.00  0.00     0.087 C 
ATOM      4  O   UNL     1       6.128   4.050   2.290  1.00  0.00    -0.300 OA
ENDBRANCH   1   2
BRANCH   1   5
ATOM      5  C   UNL     1       5.339   1.600   1.132  1.00  0.00     0.043 C 
BRANCH   5   6
ATOM      6  C   UNL     1       6.146   0.521   0.535  1.00  0.00    -0.044 A 
ATOM      7  C   UNL     1       6.549  -0.592   1.282  1.00  0.00     0.008 A 
ATOM      8  C   UNL     1       6.516   0.598  -0.788  1.00  0.00     0.054 A 
ATOM      9  C   UNL     1       7.305  -1.574   0.668  1.00  0.00     0.051 A 
ATOM     10  C   UNL     1       7.280  -0.398  -1.404  1.00  0.00     0.166 A 
ATOM     11  C   UNL     1       7.678  -1.493  -0.670  1.00  0.00     0.165 A 
ATOM     12  O   UNL     1       7.769  -0.550  -2.684  1.00  0.00    -0.454 OA
ATOM     13  O   UNL     1       8.409  -2.304  -1.523  1.00  0.00    -0.454 OA
ATOM     14  C   UNL     1       8.415  -1.788  -2.833  1.00  0.00     0.468 C 
ENDBRANCH   5   6
ENDBRANCH   1   5
TORSDOF 3
ENDMDL
MODEL 5
REMARK VINA RESULT:      -7.3      1.353      1.832
REMARK SMILES CC(=O)CCc1ccc2c(c1)OCO2
REMARK SMILES IDX 4 1 2 2 1 3 3 4 5 5 6 6 7 7 11 8 8 9 10 10 9 11 12 12 14 13
REMARK SMILES IDX 13 14
REMARK H PARENT
REMARK Flexibility Score: inf
ROOT
ATOM      1  C   UNL     1       5.695   0.248   1.030  1.00  0.00     0.080 C 
ENDROOT
BRANCH   1   2
ATOM      2  C   UNL     1       4.933   1.526   0.973  1.00  0.00     0.130 C 
ATOM      3  C   UNL     1       5.156   2.520  -0.112  1.00  0.00     0.087 C 
ATOM      4  O   UNL     1       4.099   1.797   1.821  1.00  0.00    -0.300 OA
ENDBRANCH   1   2
BRANCH   1   5
ATOM      5  C   UNL     1       7.168   0.472   0.752  1.00  0.00     0.043 C 
BRANCH   5   6
ATOM      6  C   UNL     1       7.597  -0.193  -0.491  1.00  0.00    -0.044 A 
ATOM      7  C   UNL     1       7.812   0.529  -1.671  1.00  0.00     0.008 A 
ATOM      8  C   UNL     1       7.796  -1.555  -0.503  1.00  0.00     0.054 A 
ATOM      9  C   UNL     1       8.215  -0.149  -2.808  1.00  0.00     0.051 A 
ATOM     10  C   UNL     1       8.203  -2.235  -1.655  1.00  0.00     0.166 A 
ATOM     11  C   UNL     1       8.414  -1.526  -2.817  1.00  0.00     0.165 A 
ATOM     12  O   UNL     1       8.464  -3.563  -1.919  1.00  0.00    -0.454 OA
ATOM     13  O   UNL     1       8.805  -2.443  -3.780  1.00  0.00    -0.454 OA
ATOM     14  C   UNL     1       8.938  -3.732  -3.231  1.00  0.00     0.468 C 
ENDBRANCH   5   6
ENDBRANCH   1   5
TORSDOF 3
ENDMDL
