@<TRIPOS>MOLECULE
/home/cewinharhar/GITHUB/reincatalyze/data/processed/docking_pred/2023-May-22-1902_sub9_nm5_bs15_s42_ex16_mel10_mts1000_k50_ec02_g099_lra9e-4_lrc1e-3/51cadb519a72bd0ce332fe372f57097c9ba117cb_ligand_9.pdbqt
 14 15 0 0 0
SMALL
GASTEIGER

@<TRIPOS>ATOM
      1  C          5.4710    2.8930    0.1670 C.3     1  UNL1        0.0800
      2  C          6.3100    3.7870    1.0130 C.2     1  UNL1        0.1300
      3  C          7.2470    4.7750    0.4140 C.3     1  UNL1        0.0870
      4  O          6.2530    3.7330    2.2310 O.2     1  UNL1       -0.3000
      5  C          5.2000    1.5730    0.8620 C.3     1  UNL1        0.0430
      6  C          6.0330    0.4870    0.3150 C.2     1  UNL1       -0.0440
      7  C          6.3970   -0.6200    1.0910 C.2     1  UNL1        0.0080
      8  C          6.4650    0.5500   -0.9900 C.2     1  UNL1        0.0540
      9  C          7.1790   -1.6090    0.5230 C.2     1  UNL1        0.0510
     10  C          7.2550   -0.4530   -1.5600 C.2     1  UNL1        0.1660
     11  C          7.6150   -1.5410   -0.7960 C.2     1  UNL1        0.1650
     12  O          7.8040   -0.6190   -2.8130 O.2     1  UNL1       -0.4540
     13  O          8.3850   -2.3620   -1.6060 O.2     1  UNL1       -0.4540
     14  C          8.4540   -1.8590   -2.9190 C.3     1  UNL1        0.4680
@<TRIPOS>BOND
     1    14    12    1
     2    14    13    1
     3    12    10    1
     4    13    11    1
     5    10     8    1
     6    10    11    2
     7     8     6    2
     8    11     9    1
     9     1     5    1
    10     1     2    1
    11     6     5    1
    12     6     7    1
    13     3     2    1
    14     9     7    2
    15     2     4    2
