@<TRIPOS>MOLECULE
/home/cewinharhar/GITHUB/reincatalyze/data/processed/docking_pred/2023-May-22-1902_sub9_nm5_bs15_s42_ex16_mel10_mts1000_k50_ec02_g099_lra9e-4_lrc1e-3/51cadb519a72bd0ce332fe372f57097c9ba117cb_ligand_9.pdbqt
 14 15 0 0 0
SMALL
GASTEIGER

@<TRIPOS>ATOM
      1  C          5.3970    2.8680    0.1220 C.3     1  UNL1        0.0800
      2  C          6.2630    3.7280    0.9760 C.2     1  UNL1        0.1300
      3  C          7.1440    4.7740    0.3920 C.3     1  UNL1        0.0870
      4  O          6.2750    3.5960    2.1890 O.2     1  UNL1       -0.3000
      5  C          5.5740    1.4010    0.4600 C.3     1  UNL1        0.0430
      6  C          6.6700    0.7900   -0.3120 C.2     1  UNL1       -0.0440
      7  C          7.9460    1.3650   -0.3550 C.2     1  UNL1        0.0080
      8  C          6.4470   -0.3760   -1.0090 C.2     1  UNL1        0.0540
      9  C          8.9360    0.7470   -1.0960 C.2     1  UNL1        0.0510
     10  C          7.4520   -0.9980   -1.7560 C.2     1  UNL1        0.1660
     11  C          8.7070   -0.4310   -1.8000 C.2     1  UNL1        0.1650
     12  O          7.4800   -2.1420   -2.5240 O.2     1  UNL1       -0.4540
     13  O          9.4880   -1.2490   -2.6020 O.2     1  UNL1       -0.4540
     14  C          8.7750   -2.3930   -3.0080 C.3     1  UNL1        0.4680
@<TRIPOS>BOND
     1    14    13    1
     2    14    12    1
     3    13    11    1
     4    12    10    1
     5    11    10    2
     6    11     9    1
     7    10     8    1
     8     9     7    2
     9     8     6    2
    10     7     6    1
    11     6     5    1
    12     1     5    1
    13     1     2    1
    14     3     2    1
    15     2     4    2
