@<TRIPOS>MOLECULE
/home/cewinharhar/GITHUB/reincatalyze/data/processed/docking_pred/2023-May-22-1902_sub9_nm5_bs15_s42_ex16_mel10_mts1000_k50_ec02_g099_lra9e-4_lrc1e-3/51cadb519a72bd0ce332fe372f57097c9ba117cb_ligand_9.pdbqt
 14 15 0 0 0
SMALL
GASTEIGER

@<TRIPOS>ATOM
      1  C          5.5230    1.9420    1.2510 C.3     1  UNL1        0.0800
      2  C          5.1020    0.7240    2.0000 C.2     1  UNL1        0.1300
      3  C          6.0180   -0.4330    2.1860 C.3     1  UNL1        0.0870
      4  O          3.9850    0.6420    2.4850 O.2     1  UNL1       -0.3000
      5  C          5.3950    1.7390   -0.2450 C.3     1  UNL1        0.0430
      6  C          6.5640    1.0350   -0.8030 C.2     1  UNL1       -0.0440
      7  C          7.8710    1.4650   -0.5430 C.2     1  UNL1        0.0080
      8  C          6.3790   -0.0730   -1.5980 C.2     1  UNL1        0.0540
      9  C          8.9290    0.7650   -1.0930 C.2     1  UNL1        0.0510
     10  C          7.4520   -0.7780   -2.1500 C.2     1  UNL1        0.1660
     11  C          8.7380   -0.3550   -1.8960 C.2     1  UNL1        0.1650
     12  O          7.5280   -1.8910   -2.9600 O.2     1  UNL1       -0.4540
     13  O          9.5860   -1.2270   -2.5610 O.2     1  UNL1       -0.4540
     14  C          8.8640   -2.2690   -3.1740 C.3     1  UNL1        0.4680
@<TRIPOS>BOND
     1    14    12    1
     2    14    13    1
     3    12    10    1
     4    13    11    1
     5    10    11    2
     6    10     8    1
     7    11     9    1
     8     8     6    2
     9     9     7    2
    10     6     7    1
    11     6     5    1
    12     5     1    1
    13     1     2    1
    14     2     3    1
    15     2     4    2
