MODEL 1
REMARK VINA RESULT:      -7.9      0.000      0.000
REMARK SMILES CC(=O)CCc1ccc2c(c1)OCO2
REMARK SMILES IDX 4 1 2 2 1 3 3 4 5 5 6 6 7 7 11 8 8 9 10 10 9 11 12 12 14 13
REMARK SMILES IDX 13 14
REMARK H PARENT
REMARK Flexibility Score: inf
ROOT
ATOM      1  C   UNL     1       5.471   2.893   0.167  1.00  0.00     0.080 C 
ENDROOT
BRANCH   1   2
ATOM      2  C   UNL     1       6.310   3.787   1.013  1.00  0.00     0.130 C 
ATOM      3  C   UNL     1       7.247   4.775   0.414  1.00  0.00     0.087 C 
ATOM      4  O   UNL     1       6.253   3.733   2.231  1.00  0.00    -0.300 OA
ENDBRANCH   1   2
BRANCH   1   5
ATOM      5  C   UNL     1       5.200   1.573   0.862  1.00  0.00     0.043 C 
BRANCH   5   6
ATOM      6  C   UNL     1       6.033   0.487   0.315  1.00  0.00    -0.044 A 
ATOM      7  C   UNL     1       6.397  -0.620   1.091  1.00  0.00     0.008 A 
ATOM      8  C   UNL     1       6.465   0.550  -0.990  1.00  0.00     0.054 A 
ATOM      9  C   UNL     1       7.179  -1.609   0.523  1.00  0.00     0.051 A 
ATOM     10  C   UNL     1       7.255  -0.453  -1.560  1.00  0.00     0.166 A 
ATOM     11  C   UNL     1       7.615  -1.541  -0.796  1.00  0.00     0.165 A 
ATOM     12  O   UNL     1       7.804  -0.619  -2.813  1.00  0.00    -0.454 OA
ATOM     13  O   UNL     1       8.385  -2.362  -1.606  1.00  0.00    -0.454 OA
ATOM     14  C   UNL     1       8.454  -1.859  -2.919  1.00  0.00     0.468 C 
ENDBRANCH   5   6
ENDBRANCH   1   5
TORSDOF 3
ENDMDL
MODEL 2
REMARK VINA RESULT:      -7.8      0.987      1.974
REMARK SMILES CC(=O)CCc1ccc2c(c1)OCO2
REMARK SMILES IDX 4 1 2 2 1 3 3 4 5 5 6 6 7 7 11 8 8 9 10 10 9 11 12 12 14 13
REMARK SMILES IDX 13 14
REMARK H PARENT
REMARK Flexibility Score: inf
ROOT
ATOM      1  C   UNL     1       5.482   2.894   0.210  1.00  0.00     0.080 C 
ENDROOT
BRANCH   1   2
ATOM      2  C   UNL     1       6.290   3.872   0.991  1.00  0.00     0.130 C 
ATOM      3  C   UNL     1       7.272   4.775   0.334  1.00  0.00     0.087 C 
ATOM      4  O   UNL     1       6.168   3.959   2.203  1.00  0.00    -0.300 OA
ENDBRANCH   1   2
BRANCH   1   5
ATOM      5  C   UNL     1       5.334   1.582   0.956  1.00  0.00     0.043 C 
BRANCH   5   6
ATOM      6  C   UNL     1       6.112   0.503   0.322  1.00  0.00    -0.044 A 
ATOM      7  C   UNL     1       6.401   0.514  -1.047  1.00  0.00     0.008 A 
ATOM      8  C   UNL     1       6.572  -0.545   1.086  1.00  0.00     0.054 A 
ATOM      9  C   UNL     1       7.136  -0.526  -1.587  1.00  0.00     0.051 A 
ATOM     10  C   UNL     1       7.315  -1.594   0.536  1.00  0.00     0.166 A 
ATOM     11  C   UNL     1       7.599  -1.584  -0.811  1.00  0.00     0.165 A 
ATOM     12  O   UNL     1       7.876  -2.732   1.076  1.00  0.00    -0.454 OA
ATOM     13  O   UNL     1       8.337  -2.728  -1.073  1.00  0.00    -0.454 OA
ATOM     14  C   UNL     1       8.613  -3.437   0.111  1.00  0.00     0.468 C 
ENDBRANCH   5   6
ENDBRANCH   1   5
TORSDOF 3
ENDMDL
MODEL 3
REMARK VINA RESULT:      -7.7      1.876      2.604
REMARK SMILES CC(=O)CCc1ccc2c(c1)OCO2
REMARK SMILES IDX 4 1 2 2 1 3 3 4 5 5 6 6 7 7 11 8 8 9 10 10 9 11 12 12 14 13
REMARK SMILES IDX 13 14
REMARK H PARENT
REMARK Flexibility Score: inf
ROOT
ATOM      1  C   UNL     1       5.523   1.942   1.251  1.00  0.00     0.080 C 
ENDROOT
BRANCH   1   2
ATOM      2  C   UNL     1       5.102   0.724   2.000  1.00  0.00     0.130 C 
ATOM      3  C   UNL     1       6.018  -0.433   2.186  1.00  0.00     0.087 C 
ATOM      4  O   UNL     1       3.985   0.642   2.485  1.00  0.00    -0.300 OA
ENDBRANCH   1   2
BRANCH   1   5
ATOM      5  C   UNL     1       5.395   1.739  -0.245  1.00  0.00     0.043 C 
BRANCH   5   6
ATOM      6  C   UNL     1       6.564   1.035  -0.803  1.00  0.00    -0.044 A 
ATOM      7  C   UNL     1       7.871   1.465  -0.543  1.00  0.00     0.008 A 
ATOM      8  C   UNL     1       6.379  -0.073  -1.598  1.00  0.00     0.054 A 
ATOM      9  C   UNL     1       8.929   0.765  -1.093  1.00  0.00     0.051 A 
ATOM     10  C   UNL     1       7.452  -0.778  -2.150  1.00  0.00     0.166 A 
ATOM     11  C   UNL     1       8.738  -0.355  -1.896  1.00  0.00     0.165 A 
ATOM     12  O   UNL     1       7.528  -1.891  -2.960  1.00  0.00    -0.454 OA
ATOM     13  O   UNL     1       9.586  -1.227  -2.561  1.00  0.00    -0.454 OA
ATOM     14  C   UNL     1       8.864  -2.269  -3.174  1.00  0.00     0.468 C 
ENDBRANCH   5   6
ENDBRANCH   1   5
TORSDOF 3
ENDMDL
MODEL 4
REMARK VINA RESULT:      -7.6      1.117      1.511
REMARK SMILES CC(=O)CCc1ccc2c(c1)OCO2
REMARK SMILES IDX 4 1 2 2 1 3 3 4 5 5 6 6 7 7 11 8 8 9 10 10 9 11 12 12 14 13
REMARK SMILES IDX 13 14
REMARK H PARENT
REMARK Flexibility Score: inf
ROOT
ATOM      1  C   UNL     1       5.397   2.868   0.122  1.00  0.00     0.080 C 
ENDROOT
BRANCH   1   2
ATOM      2  C   UNL     1       6.263   3.728   0.976  1.00  0.00     0.130 C 
ATOM      3  C   UNL     1       7.144   4.774   0.392  1.00  0.00     0.087 C 
ATOM      4  O   UNL     1       6.275   3.596   2.189  1.00  0.00    -0.300 OA
ENDBRANCH   1   2
BRANCH   1   5
ATOM      5  C   UNL     1       5.574   1.401   0.460  1.00  0.00     0.043 C 
BRANCH   5   6
ATOM      6  C   UNL     1       6.670   0.790  -0.312  1.00  0.00    -0.044 A 
ATOM      7  C   UNL     1       7.946   1.365  -0.355  1.00  0.00     0.008 A 
ATOM      8  C   UNL     1       6.447  -0.376  -1.009  1.00  0.00     0.054 A 
ATOM      9  C   UNL     1       8.936   0.747  -1.096  1.00  0.00     0.051 A 
ATOM     10  C   UNL     1       7.452  -0.998  -1.756  1.00  0.00     0.166 A 
ATOM     11  C   UNL     1       8.707  -0.431  -1.800  1.00  0.00     0.165 A 
ATOM     12  O   UNL     1       7.480  -2.142  -2.524  1.00  0.00    -0.454 OA
ATOM     13  O   UNL     1       9.488  -1.249  -2.602  1.00  0.00    -0.454 OA
ATOM     14  C   UNL     1       8.775  -2.393  -3.008  1.00  0.00     0.468 C 
ENDBRANCH   5   6
ENDBRANCH   1   5
TORSDOF 3
ENDMDL
MODEL 5
REMARK VINA RESULT:      -7.5      1.956      3.012
REMARK SMILES CC(=O)CCc1ccc2c(c1)OCO2
REMARK SMILES IDX 4 1 2 2 1 3 3 4 5 5 6 6 7 7 11 8 8 9 10 10 9 11 12 12 14 13
REMARK SMILES IDX 13 14
REMARK H PARENT
REMARK Flexibility Score: inf
ROOT
ATOM      1  C   UNL     1       5.745   1.334  -0.339  1.00  0.00     0.080 C 
ENDROOT
BRANCH   1   2
ATOM      2  C   UNL     1       5.160   1.305   1.030  1.00  0.00     0.130 C 
ATOM      3  C   UNL     1       5.383   0.158   1.951  1.00  0.00     0.087 C 
ATOM      4  O   UNL     1       4.477   2.230   1.439  1.00  0.00    -0.300 OA
ENDBRANCH   1   2
BRANCH   1   5
ATOM      5  C   UNL     1       7.243   1.108  -0.303  1.00  0.00     0.043 C 
BRANCH   5   6
ATOM      6  C   UNL     1       7.616  -0.186  -0.903  1.00  0.00    -0.044 A 
ATOM      7  C   UNL     1       7.692  -0.356  -2.290  1.00  0.00     0.008 A 
ATOM      8  C   UNL     1       7.900  -1.258  -0.089  1.00  0.00     0.054 A 
ATOM      9  C   UNL     1       8.047  -1.593  -2.796  1.00  0.00     0.051 A 
ATOM     10  C   UNL     1       8.260  -2.507  -0.605  1.00  0.00     0.166 A 
ATOM     11  C   UNL     1       8.334  -2.676  -1.969  1.00  0.00     0.165 A 
ATOM     12  O   UNL     1       8.585  -3.710  -0.014  1.00  0.00    -0.454 OA
ATOM     13  O   UNL     1       8.707  -3.992  -2.191  1.00  0.00    -0.454 OA
ATOM     14  C   UNL     1       8.965  -4.658  -0.978  1.00  0.00     0.468 C 
ENDBRANCH   5   6
ENDBRANCH   1   5
TORSDOF 3
ENDMDL
