@<TRIPOS>MOLECULE
/home/cewinharhar/GITHUB/reincatalyze/data/processed/docking_pred/2023-May-22-1902_sub9_nm5_bs15_s42_ex16_mel10_mts1000_k50_ec02_g099_lra9e-4_lrc1e-3/54a2e3ceee1b2a6ac8591f20fd198e2f201bb612_ligand_9.pdbqt
 14 15 0 0 0
SMALL
GASTEIGER

@<TRIPOS>ATOM
      1  C          5.4330    2.8440    0.2260 C.3     1  UNL1        0.0800
      2  C          6.3620    3.6710    1.0450 C.2     1  UNL1        0.1300
      3  C          7.1600    4.7740    0.4460 C.3     1  UNL1        0.0870
      4  O          6.4950    3.4650    2.2410 O.2     1  UNL1       -0.3000
      5  C          5.1380    1.5180    0.8980 C.3     1  UNL1        0.0430
      6  C          5.9980    0.4390    0.3790 C.2     1  UNL1       -0.0440
      7  C          6.4290   -0.6120    1.1970 C.2     1  UNL1        0.0080
      8  C          6.3910    0.4550   -0.9400 C.2     1  UNL1        0.0540
      9  C          7.2350   -1.5970    0.6540 C.2     1  UNL1        0.0510
     10  C          7.2050   -0.5440   -1.4830 C.2     1  UNL1        0.1660
     11  C          7.6310   -1.5780   -0.6800 C.2     1  UNL1        0.1650
     12  O          7.7250   -0.7500   -2.7440 O.2     1  UNL1       -0.4540
     13  O          8.4100   -2.4060   -1.4710 O.2     1  UNL1       -0.4540
     14  C          8.4210   -1.9680   -2.8090 C.3     1  UNL1        0.4680
@<TRIPOS>BOND
     1    14    12    1
     2    14    13    1
     3    12    10    1
     4    10     8    1
     5    10    11    2
     6    13    11    1
     7     8     6    2
     8    11     9    1
     9     1     5    1
    10     1     2    1
    11     6     5    1
    12     6     7    1
    13     3     2    1
    14     9     7    2
    15     2     4    2
