MODEL 1
REMARK VINA RESULT:      -7.9      0.000      0.000
REMARK SMILES CC(=O)CCc1ccc2c(c1)OCO2
REMARK SMILES IDX 4 1 2 2 1 3 3 4 5 5 6 6 7 7 11 8 8 9 10 10 9 11 12 12 14 13
REMARK SMILES IDX 13 14
REMARK H PARENT
REMARK Flexibility Score: inf
ROOT
ATOM      1  C   UNL     1       5.433   2.844   0.226  1.00  0.00     0.080 C 
ENDROOT
BRANCH   1   2
ATOM      2  C   UNL     1       6.362   3.671   1.045  1.00  0.00     0.130 C 
ATOM      3  C   UNL     1       7.160   4.774   0.446  1.00  0.00     0.087 C 
ATOM      4  O   UNL     1       6.495   3.465   2.241  1.00  0.00    -0.300 OA
ENDBRANCH   1   2
BRANCH   1   5
ATOM      5  C   UNL     1       5.138   1.518   0.898  1.00  0.00     0.043 C 
BRANCH   5   6
ATOM      6  C   UNL     1       5.998   0.439   0.379  1.00  0.00    -0.044 A 
ATOM      7  C   UNL     1       6.429  -0.612   1.197  1.00  0.00     0.008 A 
ATOM      8  C   UNL     1       6.391   0.455  -0.940  1.00  0.00     0.054 A 
ATOM      9  C   UNL     1       7.235  -1.597   0.654  1.00  0.00     0.051 A 
ATOM     10  C   UNL     1       7.205  -0.544  -1.483  1.00  0.00     0.166 A 
ATOM     11  C   UNL     1       7.631  -1.578  -0.680  1.00  0.00     0.165 A 
ATOM     12  O   UNL     1       7.725  -0.750  -2.744  1.00  0.00    -0.454 OA
ATOM     13  O   UNL     1       8.410  -2.406  -1.471  1.00  0.00    -0.454 OA
ATOM     14  C   UNL     1       8.421  -1.968  -2.809  1.00  0.00     0.468 C 
ENDBRANCH   5   6
ENDBRANCH   1   5
TORSDOF 3
ENDMDL
MODEL 2
REMARK VINA RESULT:      -7.8      0.956      1.943
REMARK SMILES CC(=O)CCc1ccc2c(c1)OCO2
REMARK SMILES IDX 4 1 2 2 1 3 3 4 5 5 6 6 7 7 11 8 8 9 10 10 9 11 12 12 14 13
REMARK SMILES IDX 13 14
REMARK H PARENT
REMARK Flexibility Score: inf
ROOT
ATOM      1  C   UNL     1       5.482   2.894   0.210  1.00  0.00     0.080 C 
ENDROOT
BRANCH   1   2
ATOM      2  C   UNL     1       6.290   3.872   0.991  1.00  0.00     0.130 C 
ATOM      3  C   UNL     1       7.272   4.775   0.334  1.00  0.00     0.087 C 
ATOM      4  O   UNL     1       6.168   3.959   2.203  1.00  0.00    -0.300 OA
ENDBRANCH   1   2
BRANCH   1   5
ATOM      5  C   UNL     1       5.334   1.582   0.956  1.00  0.00     0.043 C 
BRANCH   5   6
ATOM      6  C   UNL     1       6.112   0.503   0.322  1.00  0.00    -0.044 A 
ATOM      7  C   UNL     1       6.401   0.514  -1.047  1.00  0.00     0.008 A 
ATOM      8  C   UNL     1       6.572  -0.545   1.086  1.00  0.00     0.054 A 
ATOM      9  C   UNL     1       7.136  -0.526  -1.587  1.00  0.00     0.051 A 
ATOM     10  C   UNL     1       7.315  -1.594   0.536  1.00  0.00     0.166 A 
ATOM     11  C   UNL     1       7.599  -1.584  -0.811  1.00  0.00     0.165 A 
ATOM     12  O   UNL     1       7.876  -2.732   1.076  1.00  0.00    -0.454 OA
ATOM     13  O   UNL     1       8.337  -2.728  -1.073  1.00  0.00    -0.454 OA
ATOM     14  C   UNL     1       8.613  -3.437   0.111  1.00  0.00     0.468 C 
ENDBRANCH   5   6
ENDBRANCH   1   5
TORSDOF 3
ENDMDL
MODEL 3
REMARK VINA RESULT:      -7.6      1.863      2.597
REMARK SMILES CC(=O)CCc1ccc2c(c1)OCO2
REMARK SMILES IDX 4 1 2 2 1 3 3 4 5 5 6 6 7 7 11 8 8 9 10 10 9 11 12 12 14 13
REMARK SMILES IDX 13 14
REMARK H PARENT
REMARK Flexibility Score: inf
ROOT
ATOM      1  C   UNL     1       5.516   1.943   1.254  1.00  0.00     0.080 C 
ENDROOT
BRANCH   1   2
ATOM      2  C   UNL     1       5.095   0.726   2.003  1.00  0.00     0.130 C 
ATOM      3  C   UNL     1       6.007  -0.435   2.182  1.00  0.00     0.087 C 
ATOM      4  O   UNL     1       3.980   0.646   2.493  1.00  0.00    -0.300 OA
ENDBRANCH   1   2
BRANCH   1   5
ATOM      5  C   UNL     1       5.389   1.740  -0.243  1.00  0.00     0.043 C 
BRANCH   5   6
ATOM      6  C   UNL     1       6.558   1.037  -0.800  1.00  0.00    -0.044 A 
ATOM      7  C   UNL     1       7.865   1.468  -0.542  1.00  0.00     0.008 A 
ATOM      8  C   UNL     1       6.373  -0.074  -1.592  1.00  0.00     0.054 A 
ATOM      9  C   UNL     1       8.923   0.768  -1.091  1.00  0.00     0.051 A 
ATOM     10  C   UNL     1       7.446  -0.779  -2.144  1.00  0.00     0.166 A 
ATOM     11  C   UNL     1       8.732  -0.354  -1.892  1.00  0.00     0.165 A 
ATOM     12  O   UNL     1       7.523  -1.893  -2.951  1.00  0.00    -0.454 OA
ATOM     13  O   UNL     1       9.580  -1.227  -2.555  1.00  0.00    -0.454 OA
ATOM     14  C   UNL     1       8.859  -2.271  -3.165  1.00  0.00     0.468 C 
ENDBRANCH   5   6
ENDBRANCH   1   5
TORSDOF 3
ENDMDL
MODEL 4
REMARK VINA RESULT:      -7.6      1.152      1.537
REMARK SMILES CC(=O)CCc1ccc2c(c1)OCO2
REMARK SMILES IDX 4 1 2 2 1 3 3 4 5 5 6 6 7 7 11 8 8 9 10 10 9 11 12 12 14 13
REMARK SMILES IDX 13 14
REMARK H PARENT
REMARK Flexibility Score: inf
ROOT
ATOM      1  C   UNL     1       5.420   2.900   0.137  1.00  0.00     0.080 C 
ENDROOT
BRANCH   1   2
ATOM      2  C   UNL     1       6.301   3.758   0.977  1.00  0.00     0.130 C 
ATOM      3  C   UNL     1       7.209   4.771   0.375  1.00  0.00     0.087 C 
ATOM      4  O   UNL     1       6.304   3.653   2.193  1.00  0.00    -0.300 OA
ENDBRANCH   1   2
BRANCH   1   5
ATOM      5  C   UNL     1       5.598   1.433   0.473  1.00  0.00     0.043 C 
BRANCH   5   6
ATOM      6  C   UNL     1       6.684   0.820  -0.312  1.00  0.00    -0.044 A 
ATOM      7  C   UNL     1       7.959   1.394  -0.371  1.00  0.00     0.008 A 
ATOM      8  C   UNL     1       6.450  -0.345  -1.006  1.00  0.00     0.054 A 
ATOM      9  C   UNL     1       8.940   0.773  -1.124  1.00  0.00     0.051 A 
ATOM     10  C   UNL     1       7.445  -0.969  -1.765  1.00  0.00     0.166 A 
ATOM     11  C   UNL     1       8.700  -0.405  -1.825  1.00  0.00     0.165 A 
ATOM     12  O   UNL     1       7.462  -2.114  -2.532  1.00  0.00    -0.454 OA
ATOM     13  O   UNL     1       9.470  -1.224  -2.635  1.00  0.00    -0.454 OA
ATOM     14  C   UNL     1       8.750  -2.367  -3.032  1.00  0.00     0.468 C 
ENDBRANCH   5   6
ENDBRANCH   1   5
TORSDOF 3
ENDMDL
MODEL 5
REMARK VINA RESULT:      -7.5      1.934      3.004
REMARK SMILES CC(=O)CCc1ccc2c(c1)OCO2
REMARK SMILES IDX 4 1 2 2 1 3 3 4 5 5 6 6 7 7 11 8 8 9 10 10 9 11 12 12 14 13
REMARK SMILES IDX 13 14
REMARK H PARENT
REMARK Flexibility Score: inf
ROOT
ATOM      1  C   UNL     1       5.729   1.299  -0.319  1.00  0.00     0.080 C 
ENDROOT
BRANCH   1   2
ATOM      2  C   UNL     1       5.176   1.291   1.064  1.00  0.00     0.130 C 
ATOM      3  C   UNL     1       5.322   0.110   1.957  1.00  0.00     0.087 C 
ATOM      4  O   UNL     1       4.582   2.261   1.507  1.00  0.00    -0.300 OA
ENDBRANCH   1   2
BRANCH   1   5
ATOM      5  C   UNL     1       7.232   1.097  -0.311  1.00  0.00     0.043 C 
BRANCH   5   6
ATOM      6  C   UNL     1       7.612  -0.198  -0.904  1.00  0.00    -0.044 A 
ATOM      7  C   UNL     1       7.698  -0.372  -2.290  1.00  0.00     0.008 A 
ATOM      8  C   UNL     1       7.893  -1.267  -0.085  1.00  0.00     0.054 A 
ATOM      9  C   UNL     1       8.060  -1.610  -2.790  1.00  0.00     0.051 A 
ATOM     10  C   UNL     1       8.259  -2.516  -0.594  1.00  0.00     0.166 A 
ATOM     11  C   UNL     1       8.343  -2.689  -1.958  1.00  0.00     0.165 A 
ATOM     12  O   UNL     1       8.582  -3.717   0.002  1.00  0.00    -0.454 OA
ATOM     13  O   UNL     1       8.721  -4.005  -2.173  1.00  0.00    -0.454 OA
ATOM     14  C   UNL     1       8.972  -4.667  -0.956  1.00  0.00     0.468 C 
ENDBRANCH   5   6
ENDBRANCH   1   5
TORSDOF 3
ENDMDL
