@<TRIPOS>MOLECULE
/home/cewinharhar/GITHUB/reincatalyze/data/processed/docking_pred/2023-May-22-1902_sub9_nm5_bs15_s42_ex16_mel10_mts1000_k50_ec02_g099_lra9e-4_lrc1e-3/54c3cf531f582f2d935f1daccafc2f163e83168d_ligand_9.pdbqt
 14 15 0 0 0
SMALL
GASTEIGER

@<TRIPOS>ATOM
      1  C          6.4530    1.0240    1.0070 C.3     1  UNL1        0.0800
      2  C          5.1620    1.7630    0.9300 C.2     1  UNL1        0.1300
      3  C          4.8390    2.6540   -0.2170 C.3     1  UNL1        0.0870
      4  O          4.3260    1.6590    1.8130 O.2     1  UNL1       -0.3000
      5  C          7.2610    1.1930   -0.2640 C.3     1  UNL1        0.0430
      6  C          7.6330   -0.1060   -0.8520 C.2     1  UNL1       -0.0440
      7  C          7.7570   -0.2750   -2.2360 C.2     1  UNL1        0.0080
      8  C          7.8700   -1.1840   -0.0300 C.2     1  UNL1        0.0540
      9  C          8.1100   -1.5180   -2.7310 C.2     1  UNL1        0.0510
     10  C          8.2280   -2.4370   -0.5350 C.2     1  UNL1        0.1660
     11  C          8.3480   -2.6060   -1.8970 C.2     1  UNL1        0.1650
     12  O          8.5110   -3.6460    0.0650 O.2     1  UNL1       -0.4540
     13  O          8.7070   -3.9280   -2.1070 O.2     1  UNL1       -0.4540
     14  C          8.9100   -4.6000   -0.8860 C.3     1  UNL1        0.4680
@<TRIPOS>BOND
     1     9     7    1
     2     9    11    2
     3     7     6    2
     4    13    11    1
     5    13    14    1
     6    11    10    1
     7    14    12    1
     8     6     5    1
     9     6     8    1
    10    10     8    2
    11    10    12    1
    12     5     1    1
    13     3     2    1
    14     2     1    1
    15     2     4    2
