@<TRIPOS>MOLECULE
/home/cewinharhar/GITHUB/reincatalyze/data/processed/docking_pred/2023-May-22-1902_sub9_nm5_bs15_s42_ex16_mel10_mts1000_k50_ec02_g099_lra9e-4_lrc1e-3/551c5941f3bf749be32b1159c48b101be233bdbe_ligand_9.pdbqt
 14 15 0 0 0
SMALL
GASTEIGER

@<TRIPOS>ATOM
      1  C          6.0750    0.7420    1.0570 C.3     1  UNL1        0.0800
      2  C          4.9680    1.7320    0.9470 C.2     1  UNL1        0.1300
      3  C          4.8680    2.6670   -0.2050 C.3     1  UNL1        0.0870
      4  O          4.1040    1.8040    1.8060 O.2     1  UNL1       -0.3000
      5  C          7.1400    0.9880    0.0060 C.3     1  UNL1        0.0430
      6  C          7.5360   -0.2590   -0.6730 C.2     1  UNL1       -0.0440
      7  C          7.6010   -0.3440   -2.0690 C.2     1  UNL1        0.0080
      8  C          7.8540   -1.3710    0.0720 C.2     1  UNL1        0.0540
      9  C          7.9790   -1.5400   -2.6510 C.2     1  UNL1        0.0510
     10  C          8.2370   -2.5770   -0.5210 C.2     1  UNL1        0.1660
     11  C          8.3000   -2.6620   -1.8940 C.2     1  UNL1        0.1650
     12  O          8.5950   -3.8050   -0.0070 O.2     1  UNL1       -0.4540
     13  O          8.7010   -3.9540   -2.1980 O.2     1  UNL1       -0.4540
     14  C          8.9870   -4.6850   -1.0290 C.3     1  UNL1        0.4680
@<TRIPOS>BOND
     1     9     7    1
     2     9    11    2
     3    13    11    1
     4    13    14    1
     5     7     6    2
     6    11    10    1
     7    14    12    1
     8     6     5    1
     9     6     8    1
    10    10    12    1
    11    10     8    2
    12     3     2    1
    13     5     1    1
    14     2     1    1
    15     2     4    2
