MODEL 1
REMARK VINA RESULT:      -7.8      0.000      0.000
REMARK SMILES CC(=O)CCc1ccc2c(c1)OCO2
REMARK SMILES IDX 4 1 2 2 1 3 3 4 5 5 6 6 7 7 11 8 8 9 10 10 9 11 12 12 14 13
REMARK SMILES IDX 13 14
REMARK H PARENT
REMARK Flexibility Score: inf
ROOT
ATOM      1  C   UNL     1       5.461   2.898   0.298  1.00  0.00     0.080 C 
ENDROOT
BRANCH   1   2
ATOM      2  C   UNL     1       6.275   3.906   1.033  1.00  0.00     0.130 C 
ATOM      3  C   UNL     1       7.261   4.774   0.335  1.00  0.00     0.087 C 
ATOM      4  O   UNL     1       6.154   4.049   2.239  1.00  0.00    -0.300 OA
ENDBRANCH   1   2
BRANCH   1   5
ATOM      5  C   UNL     1       5.328   1.613   1.091  1.00  0.00     0.043 C 
BRANCH   5   6
ATOM      6  C   UNL     1       6.124   0.522   0.501  1.00  0.00    -0.044 A 
ATOM      7  C   UNL     1       6.479  -0.610   1.243  1.00  0.00     0.008 A 
ATOM      8  C   UNL     1       6.530   0.606  -0.811  1.00  0.00     0.054 A 
ATOM      9  C   UNL     1       7.226  -1.604   0.636  1.00  0.00     0.051 A 
ATOM     10  C   UNL     1       7.285  -0.401  -1.421  1.00  0.00     0.166 A 
ATOM     11  C   UNL     1       7.636  -1.515  -0.691  1.00  0.00     0.165 A 
ATOM     12  O   UNL     1       7.804  -0.549  -2.689  1.00  0.00    -0.454 OA
ATOM     13  O   UNL     1       8.369  -2.333  -1.536  1.00  0.00    -0.454 OA
ATOM     14  C   UNL     1       8.422  -1.801  -2.838  1.00  0.00     0.468 C 
ENDBRANCH   5   6
ENDBRANCH   1   5
TORSDOF 3
ENDMDL
MODEL 2
REMARK VINA RESULT:      -7.7      1.933      2.679
REMARK SMILES CC(=O)CCc1ccc2c(c1)OCO2
REMARK SMILES IDX 4 1 2 2 1 3 3 4 5 5 6 6 7 7 11 8 8 9 10 10 9 11 12 12 14 13
REMARK SMILES IDX 13 14
REMARK H PARENT
REMARK Flexibility Score: inf
ROOT
ATOM      1  C   UNL     1       5.543   1.915   1.271  1.00  0.00     0.080 C 
ENDROOT
BRANCH   1   2
ATOM      2  C   UNL     1       5.102   0.701   2.014  1.00  0.00     0.130 C 
ATOM      3  C   UNL     1       5.998  -0.472   2.195  1.00  0.00     0.087 C 
ATOM      4  O   UNL     1       3.984   0.636   2.500  1.00  0.00    -0.300 OA
ENDBRANCH   1   2
BRANCH   1   5
ATOM      5  C   UNL     1       5.409   1.721  -0.227  1.00  0.00     0.043 C 
BRANCH   5   6
ATOM      6  C   UNL     1       6.576   1.020  -0.793  1.00  0.00    -0.044 A 
ATOM      7  C   UNL     1       7.883   1.453  -0.544  1.00  0.00     0.008 A 
ATOM      8  C   UNL     1       6.387  -0.089  -1.586  1.00  0.00     0.054 A 
ATOM      9  C   UNL     1       8.939   0.755  -1.101  1.00  0.00     0.051 A 
ATOM     10  C   UNL     1       7.457  -0.791  -2.147  1.00  0.00     0.166 A 
ATOM     11  C   UNL     1       8.744  -0.365  -1.903  1.00  0.00     0.165 A 
ATOM     12  O   UNL     1       7.530  -1.905  -2.957  1.00  0.00    -0.454 OA
ATOM     13  O   UNL     1       9.589  -1.236  -2.574  1.00  0.00    -0.454 OA
ATOM     14  C   UNL     1       8.865  -2.280  -3.181  1.00  0.00     0.468 C 
ENDBRANCH   5   6
ENDBRANCH   1   5
TORSDOF 3
ENDMDL
MODEL 3
REMARK VINA RESULT:      -7.5      1.983      3.058
REMARK SMILES CC(=O)CCc1ccc2c(c1)OCO2
REMARK SMILES IDX 4 1 2 2 1 3 3 4 5 5 6 6 7 7 11 8 8 9 10 10 9 11 12 12 14 13
REMARK SMILES IDX 13 14
REMARK H PARENT
REMARK Flexibility Score: inf
ROOT
ATOM      1  C   UNL     1       5.739   1.328  -0.391  1.00  0.00     0.080 C 
ENDROOT
BRANCH   1   2
ATOM      2  C   UNL     1       5.166   1.326   0.984  1.00  0.00     0.130 C 
ATOM      3  C   UNL     1       5.371   0.184   1.914  1.00  0.00     0.087 C 
ATOM      4  O   UNL     1       4.506   2.269   1.389  1.00  0.00    -0.300 OA
ENDBRANCH   1   2
BRANCH   1   5
ATOM      5  C   UNL     1       7.239   1.112  -0.363  1.00  0.00     0.043 C 
BRANCH   5   6
ATOM      6  C   UNL     1       7.615  -0.192  -0.936  1.00  0.00    -0.044 A 
ATOM      7  C   UNL     1       7.695  -0.390  -2.319  1.00  0.00     0.008 A 
ATOM      8  C   UNL     1       7.898  -1.248  -0.100  1.00  0.00     0.054 A 
ATOM      9  C   UNL     1       8.053  -1.636  -2.799  1.00  0.00     0.051 A 
ATOM     10  C   UNL     1       8.261  -2.506  -0.591  1.00  0.00     0.166 A 
ATOM     11  C   UNL     1       8.339  -2.702  -1.952  1.00  0.00     0.165 A 
ATOM     12  O   UNL     1       8.585  -3.697   0.024  1.00  0.00    -0.454 OA
ATOM     13  O   UNL     1       8.714  -4.022  -2.146  1.00  0.00    -0.454 OA
ATOM     14  C   UNL     1       8.969  -4.664  -0.920  1.00  0.00     0.468 C 
ENDBRANCH   5   6
ENDBRANCH   1   5
TORSDOF 3
ENDMDL
MODEL 4
REMARK VINA RESULT:      -7.4      1.840      2.854
REMARK SMILES CC(=O)CCc1ccc2c(c1)OCO2
REMARK SMILES IDX 4 1 2 2 1 3 3 4 5 5 6 6 7 7 11 8 8 9 10 10 9 11 12 12 14 13
REMARK SMILES IDX 13 14
REMARK H PARENT
REMARK Flexibility Score: inf
ROOT
ATOM      1  C   UNL     1       6.075   0.742   1.057  1.00  0.00     0.080 C 
ENDROOT
BRANCH   1   2
ATOM      2  C   UNL     1       4.968   1.732   0.947  1.00  0.00     0.130 C 
ATOM      3  C   UNL     1       4.868   2.667  -0.205  1.00  0.00     0.087 C 
ATOM      4  O   UNL     1       4.104   1.804   1.806  1.00  0.00    -0.300 OA
ENDBRANCH   1   2
BRANCH   1   5
ATOM      5  C   UNL     1       7.140   0.988   0.006  1.00  0.00     0.043 C 
BRANCH   5   6
ATOM      6  C   UNL     1       7.536  -0.259  -0.673  1.00  0.00    -0.044 A 
ATOM      7  C   UNL     1       7.601  -0.344  -2.069  1.00  0.00     0.008 A 
ATOM      8  C   UNL     1       7.854  -1.371   0.072  1.00  0.00     0.054 A 
ATOM      9  C   UNL     1       7.979  -1.540  -2.651  1.00  0.00     0.051 A 
ATOM     10  C   UNL     1       8.237  -2.577  -0.521  1.00  0.00     0.166 A 
ATOM     11  C   UNL     1       8.300  -2.662  -1.894  1.00  0.00     0.165 A 
ATOM     12  O   UNL     1       8.595  -3.805  -0.007  1.00  0.00    -0.454 OA
ATOM     13  O   UNL     1       8.701  -3.954  -2.198  1.00  0.00    -0.454 OA
ATOM     14  C   UNL     1       8.987  -4.685  -1.029  1.00  0.00     0.468 C 
ENDBRANCH   5   6
ENDBRANCH   1   5
TORSDOF 3
ENDMDL
MODEL 5
REMARK VINA RESULT:      -7.4      1.210      1.679
REMARK SMILES CC(=O)CCc1ccc2c(c1)OCO2
REMARK SMILES IDX 4 1 2 2 1 3 3 4 5 5 6 6 7 7 11 8 8 9 10 10 9 11 12 12 14 13
REMARK SMILES IDX 13 14
REMARK H PARENT
REMARK Flexibility Score: inf
ROOT
ATOM      1  C   UNL     1       5.095   2.869   0.581  1.00  0.00     0.080 C 
ENDROOT
BRANCH   1   2
ATOM      2  C   UNL     1       6.263   3.614   1.127  1.00  0.00     0.130 C 
ATOM      3  C   UNL     1       7.029   4.583   0.299  1.00  0.00     0.087 C 
ATOM      4  O   UNL     1       6.629   3.447   2.280  1.00  0.00    -0.300 OA
ENDBRANCH   1   2
BRANCH   1   5
ATOM      5  C   UNL     1       5.517   1.909  -0.514  1.00  0.00     0.043 C 
BRANCH   5   6
ATOM      6  C   UNL     1       6.069   0.659   0.039  1.00  0.00    -0.044 A 
ATOM      7  C   UNL     1       5.736   0.216   1.324  1.00  0.00     0.008 A 
ATOM      8  C   UNL     1       6.930  -0.101  -0.720  1.00  0.00     0.054 A 
ATOM      9  C   UNL     1       6.284  -0.965   1.790  1.00  0.00     0.051 A 
ATOM     10  C   UNL     1       7.481  -1.295  -0.245  1.00  0.00     0.166 A 
ATOM     11  C   UNL     1       7.155  -1.731   1.020  1.00  0.00     0.165 A 
ATOM     12  O   UNL     1       8.348  -2.214  -0.796  1.00  0.00    -0.454 OA
ATOM     13  O   UNL     1       7.835  -2.921   1.222  1.00  0.00    -0.454 OA
ATOM     14  C   UNL     1       8.532  -3.311   0.062  1.00  0.00     0.468 C 
ENDBRANCH   5   6
ENDBRANCH   1   5
TORSDOF 3
ENDMDL
