@<TRIPOS>MOLECULE
/home/cewinharhar/GITHUB/reincatalyze/data/processed/docking_pred/2023-May-22-1902_sub9_nm5_bs15_s42_ex16_mel10_mts1000_k50_ec02_g099_lra9e-4_lrc1e-3/551c5941f3bf749be32b1159c48b101be233bdbe_ligand_9.pdbqt
 14 15 0 0 0
SMALL
GASTEIGER

@<TRIPOS>ATOM
      1  C          5.0950    2.8690    0.5810 C.3     1  UNL1        0.0800
      2  C          6.2630    3.6140    1.1270 C.2     1  UNL1        0.1300
      3  C          7.0290    4.5830    0.2990 C.3     1  UNL1        0.0870
      4  O          6.6290    3.4470    2.2800 O.2     1  UNL1       -0.3000
      5  C          5.5170    1.9090   -0.5140 C.3     1  UNL1        0.0430
      6  C          6.0690    0.6590    0.0390 C.2     1  UNL1       -0.0440
      7  C          5.7360    0.2160    1.3240 C.2     1  UNL1        0.0080
      8  C          6.9300   -0.1010   -0.7200 C.2     1  UNL1        0.0540
      9  C          6.2840   -0.9650    1.7900 C.2     1  UNL1        0.0510
     10  C          7.4810   -1.2950   -0.2450 C.2     1  UNL1        0.1660
     11  C          7.1550   -1.7310    1.0200 C.2     1  UNL1        0.1650
     12  O          8.3480   -2.2140   -0.7960 O.2     1  UNL1       -0.4540
     13  O          7.8350   -2.9210    1.2220 O.2     1  UNL1       -0.4540
     14  C          8.5320   -3.3110    0.0620 C.3     1  UNL1        0.4680
@<TRIPOS>BOND
     1    12    10    1
     2    12    14    1
     3     8    10    1
     4     8     6    2
     5     5     6    1
     6     5     1    1
     7    10    11    2
     8     6     7    1
     9    14    13    1
    10     3     2    1
    11     1     2    1
    12    11    13    1
    13    11     9    1
    14     2     4    2
    15     7     9    2
