@<TRIPOS>MOLECULE
/home/cewinharhar/GITHUB/reincatalyze/data/processed/docking_pred/2023-May-22-1902_sub9_nm5_bs15_s42_ex16_mel10_mts1000_k50_ec02_g099_lra9e-4_lrc1e-3/551e6d8a024554ec32308953f7464105b503c37a_ligand_9.pdbqt
 14 15 0 0 0
SMALL
GASTEIGER

@<TRIPOS>ATOM
      1  C          8.6680   -6.3870   10.3000 C.3     1  UNL1        0.0800
      2  C          8.0100   -5.2020   10.9160 C.2     1  UNL1        0.1300
      3  C          7.6430   -5.1730   12.3570 C.3     1  UNL1        0.0870
      4  O          7.7510   -4.2130   10.2500 O.2     1  UNL1       -0.3000
      5  C          9.3070   -7.2710   11.3530 C.3     1  UNL1        0.0430
      6  C         10.5640   -7.8720   10.8720 C.2     1  UNL1       -0.0440
      7  C         11.6380   -7.0830   10.4470 C.2     1  UNL1        0.0080
      8  C         10.6960   -9.2420   10.8400 C.2     1  UNL1        0.0540
      9  C         12.7940   -7.7030   10.0070 C.2     1  UNL1        0.0510
     10  C         11.8670   -9.8640   10.3950 C.2     1  UNL1        0.1660
     11  C         12.9240   -9.0880    9.9750 C.2     1  UNL1        0.1650
     12  O         12.2390  -11.1850   10.2690 O.2     1  UNL1       -0.4540
     13  O         13.9340   -9.9580    9.5960 O.2     1  UNL1       -0.4540
     14  C         13.5760  -11.2950    9.8510 C.3     1  UNL1        0.4680
@<TRIPOS>BOND
     1    13    14    1
     2    13    11    1
     3    14    12    1
     4    11     9    2
     5    11    10    1
     6     9     7    1
     7     4     2    2
     8    12    10    1
     9     1     2    1
    10     1     5    1
    11    10     8    2
    12     7     6    2
    13     8     6    1
    14     6     5    1
    15     2     3    1
