@<TRIPOS>MOLECULE
/home/cewinharhar/GITHUB/reincatalyze/data/processed/docking_pred/2023-May-22-1902_sub9_nm5_bs15_s42_ex16_mel10_mts1000_k50_ec02_g099_lra9e-4_lrc1e-3/551e6d8a024554ec32308953f7464105b503c37a_ligand_9.pdbqt
 14 15 0 0 0
SMALL
GASTEIGER

@<TRIPOS>ATOM
      1  C          8.1930   -5.6470   11.2450 C.3     1  UNL1        0.0800
      2  C          7.6590   -4.2600   11.1520 C.2     1  UNL1        0.1300
      3  C          7.2670   -3.4910   12.3640 C.3     1  UNL1        0.0870
      4  O          7.5260   -3.7110   10.0710 O.2     1  UNL1       -0.3000
      5  C          9.6190   -5.6550   11.7590 C.3     1  UNL1        0.0430
      6  C         10.3770   -6.8120   11.2500 C.2     1  UNL1       -0.0440
      7  C          9.8560   -8.1090   11.2990 C.2     1  UNL1        0.0080
      8  C         11.6280   -6.6220   10.7080 C.2     1  UNL1        0.0540
      9  C         10.6130   -9.1560   10.8050 C.2     1  UNL1        0.0510
     10  C         12.3890   -7.6840   10.2090 C.2     1  UNL1        0.1660
     11  C         11.8770   -8.9610   10.2590 C.2     1  UNL1        0.1650
     12  O         13.6390   -7.7540    9.6310 O.2     1  UNL1       -0.4540
     13  O         12.8330   -9.7980    9.7040 O.2     1  UNL1       -0.4540
     14  C         13.9270   -9.0620    9.2100 C.3     1  UNL1        0.4680
@<TRIPOS>BOND
     1    14    12    1
     2    14    13    1
     3    12    10    1
     4    13    11    1
     5     4     2    2
     6    10    11    2
     7    10     8    1
     8    11     9    1
     9     8     6    2
    10     9     7    2
    11     2     1    1
    12     2     3    1
    13     1     5    1
    14     6     7    1
    15     6     5    1
