@<TRIPOS>MOLECULE
/home/cewinharhar/GITHUB/reincatalyze/data/processed/docking_pred/2023-May-22-1902_sub9_nm5_bs15_s42_ex16_mel10_mts1000_k50_ec02_g099_lra9e-4_lrc1e-3/551e6d8a024554ec32308953f7464105b503c37a_ligand_9.pdbqt
 14 15 0 0 0
SMALL
GASTEIGER

@<TRIPOS>ATOM
      1  C          9.8200   -6.8370   10.1450 C.3     1  UNL1        0.0800
      2  C          9.2710   -5.8750   11.1410 C.2     1  UNL1        0.1300
      3  C          7.8640   -5.9600   11.6150 C.3     1  UNL1        0.0870
      4  O          9.9660   -4.9830   11.6000 O.2     1  UNL1       -0.3000
      5  C         11.2340   -7.2520   10.5020 C.3     1  UNL1        0.0430
      6  C         11.3730   -8.7180   10.5640 C.2     1  UNL1       -0.0440
      7  C         10.3510   -9.5310   11.0680 C.2     1  UNL1        0.0080
      8  C         12.5310   -9.3130   10.1170 C.2     1  UNL1        0.0540
      9  C         10.5380  -10.9010   11.1020 C.2     1  UNL1        0.0510
     10  C         12.7140  -10.6990   10.1530 C.2     1  UNL1        0.1660
     11  C         11.7100  -11.4990   10.6490 C.2     1  UNL1        0.1650
     12  O         13.7570  -11.5180    9.7740 O.2     1  UNL1       -0.4540
     13  O         12.1600  -12.8070   10.5640 O.2     1  UNL1       -0.4540
     14  C         13.4160  -12.8720    9.9310 C.3     1  UNL1        0.4680
@<TRIPOS>BOND
     1    12    14    1
     2    12    10    1
     3    14    13    1
     4     8    10    1
     5     8     6    2
     6     1     5    1
     7     1     2    1
     8    10    11    2
     9     5     6    1
    10     6     7    1
    11    13    11    1
    12    11     9    1
    13     7     9    2
    14     2     4    2
    15     2     3    1
