@<TRIPOS>MOLECULE
/home/cewinharhar/GITHUB/reincatalyze/data/processed/docking_pred/2023-May-22-1902_sub9_nm5_bs15_s42_ex16_mel10_mts1000_k50_ec02_g099_lra9e-4_lrc1e-3/55f9a48c22e019202c812c896c561d7470c53219_ligand_9.pdbqt
 14 15 0 0 0
SMALL
GASTEIGER

@<TRIPOS>ATOM
      1  C          5.4880    2.9250    0.1020 C.3     1  UNL1        0.0800
      2  C          6.2430    3.9020    0.9350 C.2     1  UNL1        0.1300
      3  C          7.2970    4.7750    0.3520 C.3     1  UNL1        0.0870
      4  O          6.0170    4.0140    2.1290 O.2     1  UNL1       -0.3000
      5  C          5.2190    1.6430    0.8650 C.3     1  UNL1        0.0430
      6  C          6.0250    0.5220    0.3510 C.2     1  UNL1       -0.0440
      7  C          6.3670   -0.5670    1.1620 C.2     1  UNL1        0.0080
      8  C          6.4550    0.5330   -0.9560 C.2     1  UNL1        0.0540
      9  C          7.1250   -1.5910    0.6240 C.2     1  UNL1        0.0510
     10  C          7.2200   -0.5050   -1.4950 C.2     1  UNL1        0.1660
     11  C          7.5590   -1.5760   -0.6980 C.2     1  UNL1        0.1650
     12  O          7.7610   -0.7230   -2.7440 O.2     1  UNL1       -0.4540
     13  O          8.3070   -2.4390   -1.4830 O.2     1  UNL1       -0.4540
     14  C          8.3830   -1.9810   -2.8120 C.3     1  UNL1        0.4680
@<TRIPOS>BOND
     1    14    12    1
     2    14    13    1
     3    12    10    1
     4    10     8    1
     5    10    11    2
     6    13    11    1
     7     8     6    2
     8    11     9    1
     9     1     5    1
    10     1     2    1
    11     6     5    1
    12     6     7    1
    13     3     2    1
    14     9     7    2
    15     2     4    2
