@<TRIPOS>MOLECULE
/home/cewinharhar/GITHUB/reincatalyze/data/processed/docking_pred/2023-May-22-1902_sub9_nm5_bs15_s42_ex16_mel10_mts1000_k50_ec02_g099_lra9e-4_lrc1e-3/59d8efee26bc15572bc8cf3b0279eede3143e347_ligand_9.pdbqt
 14 15 0 0 0
SMALL
GASTEIGER

@<TRIPOS>ATOM
      1  C          6.3300    3.5880    0.1690 C.3     1  UNL1        0.0800
      2  C          6.6760    3.9810    1.5630 C.2     1  UNL1        0.1300
      3  C          7.9730    3.6000    2.1830 C.3     1  UNL1        0.0870
      4  O          5.8980    4.6320    2.2420 O.2     1  UNL1       -0.3000
      5  C          5.2340    2.5420    0.1470 C.3     1  UNL1        0.0430
      6  C          5.7300    1.2210    0.5740 C.2     1  UNL1       -0.0440
      7  C          5.2190    0.5770    1.7070 C.2     1  UNL1        0.0080
      8  C          6.7180    0.5970   -0.1530 C.2     1  UNL1        0.0540
      9  C          5.7240   -0.6620    2.0580 C.2     1  UNL1        0.0510
     10  C          7.2240   -0.6560    0.2070 C.2     1  UNL1        0.1660
     11  C          6.7230   -1.2900    1.3220 C.2     1  UNL1        0.1650
     12  O          8.1910   -1.4720   -0.3420 O.2     1  UNL1       -0.4540
     13  O          7.3980   -2.4960    1.4350 O.2     1  UNL1       -0.4540
     14  C          8.2730   -2.6920    0.3500 C.3     1  UNL1        0.4680
@<TRIPOS>BOND
     1    12    10    1
     2    12    14    1
     3     8    10    1
     4     8     6    2
     5     5     1    1
     6     5     6    1
     7     1     2    1
     8    10    11    2
     9    14    13    1
    10     6     7    1
    11    11    13    1
    12    11     9    1
    13     2     3    1
    14     2     4    2
    15     7     9    2
