@<TRIPOS>MOLECULE
/home/cewinharhar/GITHUB/reincatalyze/data/processed/docking_pred/2023-May-22-1902_sub9_nm5_bs15_s42_ex16_mel10_mts1000_k50_ec02_g099_lra9e-4_lrc1e-3/59d8efee26bc15572bc8cf3b0279eede3143e347_ligand_9.pdbqt
 14 15 0 0 0
SMALL
GASTEIGER

@<TRIPOS>ATOM
      1  C          5.7510    3.1370    0.2330 C.3     1  UNL1        0.0800
      2  C          6.5600    3.6420    1.3760 C.2     1  UNL1        0.1300
      3  C          8.0270    3.4080    1.4590 C.3     1  UNL1        0.0870
      4  O          6.0380    4.2660    2.2860 O.2     1  UNL1       -0.3000
      5  C          5.1330    1.7890    0.5480 C.3     1  UNL1        0.0430
      6  C          5.9790    0.6770    0.0780 C.2     1  UNL1       -0.0440
      7  C          6.4390    0.6130   -1.2430 C.2     1  UNL1        0.0080
      8  C          6.3330   -0.3270    0.9500 C.2     1  UNL1        0.0540
      9  C          7.2300   -0.4540   -1.6270 C.2     1  UNL1        0.0510
     10  C          7.1330   -1.4040    0.5570 C.2     1  UNL1        0.1660
     11  C          7.5850   -1.4680   -0.7420 C.2     1  UNL1        0.1650
     12  O          7.6150   -2.5100    1.2240 O.2     1  UNL1       -0.4540
     13  O          8.3440   -2.6230   -0.8460 O.2     1  UNL1       -0.4540
     14  C          8.4640   -3.2660    0.4000 C.3     1  UNL1        0.4680
@<TRIPOS>BOND
     1     9     7    1
     2     9    11    2
     3     7     6    2
     4    13    11    1
     5    13    14    1
     6    11    10    1
     7     6     5    1
     8     6     8    1
     9     1     5    1
    10     1     2    1
    11    14    12    1
    12    10     8    2
    13    10    12    1
    14     2     3    1
    15     2     4    2
