MODEL 1
REMARK VINA RESULT:      -7.5      0.000      0.000
REMARK SMILES CC(=O)CCc1ccc2c(c1)OCO2
REMARK SMILES IDX 4 1 2 2 1 3 3 4 5 5 6 6 7 7 11 8 8 9 10 10 9 11 12 12 14 13
REMARK SMILES IDX 13 14
REMARK H PARENT
REMARK Flexibility Score: inf
ROOT
ATOM      1  C   UNL     1       5.787   3.174   0.176  1.00  0.00     0.080 C 
ENDROOT
BRANCH   1   2
ATOM      2  C   UNL     1       6.566   3.737   1.314  1.00  0.00     0.130 C 
ATOM      3  C   UNL     1       8.005   3.416   1.510  1.00  0.00     0.087 C 
ATOM      4  O   UNL     1       6.041   4.485   2.123  1.00  0.00    -0.300 OA
ENDBRANCH   1   2
BRANCH   1   5
ATOM      5  C   UNL     1       5.108   1.875   0.564  1.00  0.00     0.043 C 
BRANCH   5   6
ATOM      6  C   UNL     1       5.913   0.702   0.180  1.00  0.00    -0.044 A 
ATOM      7  C   UNL     1       6.223  -0.307   1.100  1.00  0.00     0.008 A 
ATOM      8  C   UNL     1       6.374   0.583  -1.111  1.00  0.00     0.054 A 
ATOM      9  C   UNL     1       6.982  -1.385   0.683  1.00  0.00     0.051 A 
ATOM     10  C   UNL     1       7.140  -0.509  -1.528  1.00  0.00     0.166 A 
ATOM     11  C   UNL     1       7.447  -1.502  -0.624  1.00  0.00     0.165 A 
ATOM     12  O   UNL     1       7.708  -0.852  -2.737  1.00  0.00    -0.454 OA
ATOM     13  O   UNL     1       8.204  -2.443  -1.303  1.00  0.00    -0.454 OA
ATOM     14  C   UNL     1       8.317  -2.116  -2.667  1.00  0.00     0.468 C 
ENDBRANCH   5   6
ENDBRANCH   1   5
TORSDOF 3
ENDMDL
MODEL 2
REMARK VINA RESULT:      -7.3      1.393      1.706
REMARK SMILES CC(=O)CCc1ccc2c(c1)OCO2
REMARK SMILES IDX 4 1 2 2 1 3 3 4 5 5 6 6 7 7 11 8 8 9 10 10 9 11 12 12 14 13
REMARK SMILES IDX 13 14
REMARK H PARENT
REMARK Flexibility Score: inf
ROOT
ATOM      1  C   UNL     1       6.330   3.588   0.169  1.00  0.00     0.080 C 
ENDROOT
BRANCH   1   2
ATOM      2  C   UNL     1       6.676   3.981   1.563  1.00  0.00     0.130 C 
ATOM      3  C   UNL     1       7.973   3.600   2.183  1.00  0.00     0.087 C 
ATOM      4  O   UNL     1       5.898   4.632   2.242  1.00  0.00    -0.300 OA
ENDBRANCH   1   2
BRANCH   1   5
ATOM      5  C   UNL     1       5.234   2.542   0.147  1.00  0.00     0.043 C 
BRANCH   5   6
ATOM      6  C   UNL     1       5.730   1.221   0.574  1.00  0.00    -0.044 A 
ATOM      7  C   UNL     1       5.219   0.577   1.707  1.00  0.00     0.008 A 
ATOM      8  C   UNL     1       6.718   0.597  -0.153  1.00  0.00     0.054 A 
ATOM      9  C   UNL     1       5.724  -0.662   2.058  1.00  0.00     0.051 A 
ATOM     10  C   UNL     1       7.224  -0.656   0.207  1.00  0.00     0.166 A 
ATOM     11  C   UNL     1       6.723  -1.290   1.322  1.00  0.00     0.165 A 
ATOM     12  O   UNL     1       8.191  -1.472  -0.342  1.00  0.00    -0.454 OA
ATOM     13  O   UNL     1       7.398  -2.496   1.435  1.00  0.00    -0.454 OA
ATOM     14  C   UNL     1       8.273  -2.692   0.350  1.00  0.00     0.468 C 
ENDBRANCH   5   6
ENDBRANCH   1   5
TORSDOF 3
ENDMDL
MODEL 3
REMARK VINA RESULT:      -7.3      0.944      1.936
REMARK SMILES CC(=O)CCc1ccc2c(c1)OCO2
REMARK SMILES IDX 4 1 2 2 1 3 3 4 5 5 6 6 7 7 11 8 8 9 10 10 9 11 12 12 14 13
REMARK SMILES IDX 13 14
REMARK H PARENT
REMARK Flexibility Score: inf
ROOT
ATOM      1  C   UNL     1       5.751   3.137   0.233  1.00  0.00     0.080 C 
ENDROOT
BRANCH   1   2
ATOM      2  C   UNL     1       6.560   3.642   1.376  1.00  0.00     0.130 C 
ATOM      3  C   UNL     1       8.027   3.408   1.459  1.00  0.00     0.087 C 
ATOM      4  O   UNL     1       6.038   4.266   2.286  1.00  0.00    -0.300 OA
ENDBRANCH   1   2
BRANCH   1   5
ATOM      5  C   UNL     1       5.133   1.789   0.548  1.00  0.00     0.043 C 
BRANCH   5   6
ATOM      6  C   UNL     1       5.979   0.677   0.078  1.00  0.00    -0.044 A 
ATOM      7  C   UNL     1       6.439   0.613  -1.243  1.00  0.00     0.008 A 
ATOM      8  C   UNL     1       6.333  -0.327   0.950  1.00  0.00     0.054 A 
ATOM      9  C   UNL     1       7.230  -0.454  -1.627  1.00  0.00     0.051 A 
ATOM     10  C   UNL     1       7.133  -1.404   0.557  1.00  0.00     0.166 A 
ATOM     11  C   UNL     1       7.585  -1.468  -0.742  1.00  0.00     0.165 A 
ATOM     12  O   UNL     1       7.615  -2.510   1.224  1.00  0.00    -0.454 OA
ATOM     13  O   UNL     1       8.344  -2.623  -0.846  1.00  0.00    -0.454 OA
ATOM     14  C   UNL     1       8.464  -3.266   0.400  1.00  0.00     0.468 C 
ENDBRANCH   5   6
ENDBRANCH   1   5
TORSDOF 3
ENDMDL
MODEL 4
REMARK VINA RESULT:      -7.1      1.502      5.336
REMARK SMILES CC(=O)CCc1ccc2c(c1)OCO2
REMARK SMILES IDX 4 1 2 2 1 3 3 4 5 5 6 6 7 7 11 8 8 9 10 10 9 11 12 12 14 13
REMARK SMILES IDX 13 14
REMARK H PARENT
REMARK Flexibility Score: inf
ROOT
ATOM      1  C   UNL     1       7.043  -1.386  -0.894  1.00  0.00     0.080 C 
ENDROOT
BRANCH   1   2
ATOM      2  C   UNL     1       7.576  -1.707   0.459  1.00  0.00     0.130 C 
ATOM      3  C   UNL     1       6.703  -1.707   1.663  1.00  0.00     0.087 C 
ATOM      4  O   UNL     1       8.755  -1.980   0.619  1.00  0.00    -0.300 OA
ENDBRANCH   1   2
BRANCH   1   5
ATOM      5  C   UNL     1       7.559  -0.049  -1.387  1.00  0.00     0.043 C 
BRANCH   5   6
ATOM      6  C   UNL     1       7.020   1.070  -0.593  1.00  0.00    -0.044 A 
ATOM      7  C   UNL     1       5.648   1.342  -0.546  1.00  0.00     0.008 A 
ATOM      8  C   UNL     1       7.878   1.872   0.125  1.00  0.00     0.054 A 
ATOM      9  C   UNL     1       5.200   2.406   0.216  1.00  0.00     0.051 A 
ATOM     10  C   UNL     1       7.420   2.946   0.895  1.00  0.00     0.166 A 
ATOM     11  C   UNL     1       6.070   3.215   0.941  1.00  0.00     0.165 A 
ATOM     12  O   UNL     1       8.061   3.876   1.685  1.00  0.00    -0.454 OA
ATOM     13  O   UNL     1       5.909   4.315   1.767  1.00  0.00    -0.454 OA
ATOM     14  C   UNL     1       7.136   4.711   2.333  1.00  0.00     0.468 C 
ENDBRANCH   5   6
ENDBRANCH   1   5
TORSDOF 3
ENDMDL
MODEL 5
REMARK VINA RESULT:      -7.1      3.283      4.304
REMARK SMILES CC(=O)CCc1ccc2c(c1)OCO2
REMARK SMILES IDX 4 1 2 2 1 3 3 4 5 5 6 6 7 7 11 8 8 9 10 10 9 11 12 12 14 13
REMARK SMILES IDX 13 14
REMARK H PARENT
REMARK Flexibility Score: inf
ROOT
ATOM      1  C   UNL     1       5.419   1.350   0.515  1.00  0.00     0.080 C 
ENDROOT
BRANCH   1   2
ATOM      2  C   UNL     1       5.151   0.456   1.676  1.00  0.00     0.130 C 
ATOM      3  C   UNL     1       5.853  -0.846   1.837  1.00  0.00     0.087 C 
ATOM      4  O   UNL     1       4.342   0.768   2.534  1.00  0.00    -0.300 OA
ENDBRANCH   1   2
BRANCH   1   5
ATOM      5  C   UNL     1       6.479   2.381   0.848  1.00  0.00     0.043 C 
BRANCH   5   6
ATOM      6  C   UNL     1       7.834   1.803   0.816  1.00  0.00    -0.044 A 
ATOM      7  C   UNL     1       8.389   1.301  -0.367  1.00  0.00     0.008 A 
ATOM      8  C   UNL     1       8.582   1.752   1.970  1.00  0.00     0.054 A 
ATOM      9  C   UNL     1       9.666   0.770  -0.337  1.00  0.00     0.051 A 
ATOM     10  C   UNL     1       9.873   1.215   1.995  1.00  0.00     0.166 A 
ATOM     11  C   UNL     1      10.419   0.720   0.832  1.00  0.00     0.165 A 
ATOM     12  O   UNL     1      10.803   1.052   2.999  1.00  0.00    -0.454 OA
ATOM     13  O   UNL     1      11.687   0.259   1.149  1.00  0.00    -0.454 OA
ATOM     14  C   UNL     1      12.006   0.533   2.492  1.00  0.00     0.468 C 
ENDBRANCH   5   6
ENDBRANCH   1   5
TORSDOF 3
ENDMDL
