@<TRIPOS>MOLECULE
/home/cewinharhar/GITHUB/reincatalyze/data/processed/docking_pred/2023-May-22-1902_sub9_nm5_bs15_s42_ex16_mel10_mts1000_k50_ec02_g099_lra9e-4_lrc1e-3/59d8efee26bc15572bc8cf3b0279eede3143e347_ligand_9.pdbqt
 14 15 0 0 0
SMALL
GASTEIGER

@<TRIPOS>ATOM
      1  C          5.4190    1.3500    0.5150 C.3     1  UNL1        0.0800
      2  C          5.1510    0.4560    1.6760 C.2     1  UNL1        0.1300
      3  C          5.8530   -0.8460    1.8370 C.3     1  UNL1        0.0870
      4  O          4.3420    0.7680    2.5340 O.2     1  UNL1       -0.3000
      5  C          6.4790    2.3810    0.8480 C.3     1  UNL1        0.0430
      6  C          7.8340    1.8030    0.8160 C.2     1  UNL1       -0.0440
      7  C          8.3890    1.3010   -0.3670 C.2     1  UNL1        0.0080
      8  C          8.5820    1.7520    1.9700 C.2     1  UNL1        0.0540
      9  C          9.6660    0.7700   -0.3370 C.2     1  UNL1        0.0510
     10  C          9.8730    1.2150    1.9950 C.2     1  UNL1        0.1660
     11  C         10.4190    0.7200    0.8320 C.2     1  UNL1        0.1650
     12  O         10.8030    1.0520    2.9990 O.2     1  UNL1       -0.4540
     13  O         11.6870    0.2590    1.1490 O.2     1  UNL1       -0.4540
     14  C         12.0060    0.5330    2.4920 C.3     1  UNL1        0.4680
@<TRIPOS>BOND
     1     7     9    1
     2     7     6    2
     3     9    11    2
     4     1     5    1
     5     1     2    1
     6     6     5    1
     7     6     8    1
     8    11    13    1
     9    11    10    1
    10    13    14    1
    11     2     3    1
    12     2     4    2
    13     8    10    2
    14    10    12    1
    15    14    12    1
