@<TRIPOS>MOLECULE
/home/cewinharhar/GITHUB/reincatalyze/data/processed/docking_pred/2023-May-22-1902_sub9_nm5_bs15_s42_ex16_mel10_mts1000_k50_ec02_g099_lra9e-4_lrc1e-3/5ba5439e64352188cd964ddb86dd28d806e95272_ligand_9.pdbqt
 14 15 0 0 0
SMALL
GASTEIGER

@<TRIPOS>ATOM
      1  C          6.1760    0.7500    1.0880 C.3     1  UNL1        0.0800
      2  C          5.0520    1.7160    0.9380 C.2     1  UNL1        0.1300
      3  C          4.9410    2.6070   -0.2480 C.3     1  UNL1        0.0870
      4  O          4.1830    1.8040    1.7900 O.2     1  UNL1       -0.3000
      5  C          7.2310    0.9640    0.0210 C.3     1  UNL1        0.0430
      6  C          7.5720   -0.2930   -0.6690 C.2     1  UNL1       -0.0440
      7  C          7.5320   -0.3970   -2.0650 C.2     1  UNL1        0.0080
      8  C          7.9410   -1.3970    0.0650 C.2     1  UNL1        0.0540
      9  C          7.8630   -1.6010   -2.6580 C.2     1  UNL1        0.0510
     10  C          8.2750   -2.6130   -0.5390 C.2     1  UNL1        0.1660
     11  C          8.2350   -2.7160   -1.9120 C.2     1  UNL1        0.1650
     12  O          8.6670   -3.8350   -0.0370 O.2     1  UNL1       -0.4540
     13  O          8.6080   -4.0130   -2.2280 O.2     1  UNL1       -0.4540
     14  C          8.9780   -4.7300   -1.0740 C.3     1  UNL1        0.4680
@<TRIPOS>BOND
     1     9     7    1
     2     9    11    2
     3    13    11    1
     4    13    14    1
     5     7     6    2
     6    11    10    1
     7    14    12    1
     8     6     5    1
     9     6     8    1
    10    10    12    1
    11    10     8    2
    12     3     2    1
    13     5     1    1
    14     2     1    1
    15     2     4    2
