@<TRIPOS>MOLECULE
/home/cewinharhar/GITHUB/reincatalyze/data/processed/docking_pred/2023-May-22-1902_sub9_nm5_bs15_s42_ex16_mel10_mts1000_k50_ec02_g099_lra9e-4_lrc1e-3/5ba5439e64352188cd964ddb86dd28d806e95272_ligand_9.pdbqt
 14 15 0 0 0
SMALL
GASTEIGER

@<TRIPOS>ATOM
      1  C          5.3280    2.9820    0.2820 C.3     1  UNL1        0.0800
      2  C          6.2990    3.7700    1.0900 C.2     1  UNL1        0.1300
      3  C          7.2010    4.7750    0.4660 C.3     1  UNL1        0.0870
      4  O          6.3840    3.6120    2.2970 O.2     1  UNL1       -0.3000
      5  C          5.0610    1.6280    0.9080 C.3     1  UNL1        0.0430
      6  C          5.9350    0.5830    0.3440 C.2     1  UNL1       -0.0440
      7  C          6.4040    0.6520   -0.9730 C.2     1  UNL1        0.0080
      8  C          6.3070   -0.4890    1.1230 C.2     1  UNL1        0.0540
      9  C          7.2210   -0.3570   -1.4480 C.2     1  UNL1        0.0510
     10  C          7.1340   -1.5070    0.6380 C.2     1  UNL1        0.1660
     11  C          7.5950   -1.4400   -0.6580 C.2     1  UNL1        0.1650
     12  O          7.6370   -2.6590    1.2040 O.2     1  UNL1       -0.4540
     13  O          8.3800   -2.5640   -0.8630 O.2     1  UNL1       -0.4540
     14  C          8.5080   -3.3160    0.3200 C.3     1  UNL1        0.4680
@<TRIPOS>BOND
     1     9     7    1
     2     9    11    2
     3     7     6    2
     4    13    11    1
     5    13    14    1
     6    11    10    1
     7     1     5    1
     8     1     2    1
     9    14    12    1
    10     6     5    1
    11     6     8    1
    12     3     2    1
    13    10     8    2
    14    10    12    1
    15     2     4    2
