@<TRIPOS>MOLECULE
/home/cewinharhar/GITHUB/reincatalyze/data/processed/docking_pred/2023-May-22-1902_sub9_nm5_bs15_s42_ex16_mel10_mts1000_k50_ec02_g099_lra9e-4_lrc1e-3/5ba5439e64352188cd964ddb86dd28d806e95272_ligand_9.pdbqt
 14 15 0 0 0
SMALL
GASTEIGER

@<TRIPOS>ATOM
      1  C          5.4330    2.9300    0.0810 C.3     1  UNL1        0.0800
      2  C          6.2970    3.7930    0.9350 C.2     1  UNL1        0.1300
      3  C          7.2480    4.7720    0.3450 C.3     1  UNL1        0.0870
      4  O          6.2490    3.7190    2.1520 O.2     1  UNL1       -0.3000
      5  C          5.1150    1.6170    0.7690 C.3     1  UNL1        0.0430
      6  C          5.9640    0.5200    0.2720 C.2     1  UNL1       -0.0440
      7  C          6.3040   -0.5690    1.0820 C.2     1  UNL1        0.0080
      8  C          6.4370    0.5560   -1.0200 C.2     1  UNL1        0.0540
      9  C          7.1040   -1.5700    0.5610 C.2     1  UNL1        0.0510
     10  C          7.2450   -0.4590   -1.5430 C.2     1  UNL1        0.1660
     11  C          7.5810   -1.5300   -0.7460 C.2     1  UNL1        0.1650
     12  O          7.8330   -0.6510   -2.7750 O.2     1  UNL1       -0.4540
     13  O          8.3760   -2.3670   -1.5130 O.2     1  UNL1       -0.4540
     14  C          8.4860   -1.8930   -2.8340 C.3     1  UNL1        0.4680
@<TRIPOS>BOND
     1    14    12    1
     2    14    13    1
     3    12    10    1
     4    10     8    1
     5    10    11    2
     6    13    11    1
     7     8     6    2
     8    11     9    1
     9     1     5    1
    10     1     2    1
    11     6     5    1
    12     6     7    1
    13     3     2    1
    14     9     7    2
    15     2     4    2
