MODEL 1
REMARK VINA RESULT:      -7.9      0.000      0.000
REMARK SMILES CC(=O)CCc1ccc2c(c1)OCO2
REMARK SMILES IDX 4 1 2 2 1 3 3 4 5 5 6 6 7 7 11 8 8 9 10 10 9 11 12 12 14 13
REMARK SMILES IDX 13 14
REMARK H PARENT
REMARK Flexibility Score: inf
ROOT
ATOM      1  C   UNL     1       5.430   2.930   0.090  1.00  0.00     0.080 C 
ENDROOT
BRANCH   1   2
ATOM      2  C   UNL     1       6.280   3.817   0.932  1.00  0.00     0.130 C 
ATOM      3  C   UNL     1       7.251   4.770   0.330  1.00  0.00     0.087 C 
ATOM      4  O   UNL     1       6.204   3.785   2.150  1.00  0.00    -0.300 OA
ENDBRANCH   1   2
BRANCH   1   5
ATOM      5  C   UNL     1       5.140   1.618   0.790  1.00  0.00     0.043 C 
BRANCH   5   6
ATOM      6  C   UNL     1       5.977   0.523   0.268  1.00  0.00    -0.044 A 
ATOM      7  C   UNL     1       6.294  -0.594   1.050  1.00  0.00     0.008 A 
ATOM      8  C   UNL     1       6.462   0.588  -1.018  1.00  0.00     0.054 A 
ATOM      9  C   UNL     1       7.084  -1.591   0.507  1.00  0.00     0.051 A 
ATOM     10  C   UNL     1       7.259  -0.423  -1.563  1.00  0.00     0.166 A 
ATOM     11  C   UNL     1       7.573  -1.521  -0.794  1.00  0.00     0.165 A 
ATOM     12  O   UNL     1       7.854  -0.588  -2.796  1.00  0.00    -0.454 OA
ATOM     13  O   UNL     1       8.361  -2.348  -1.579  1.00  0.00    -0.454 OA
ATOM     14  C   UNL     1       8.490  -1.838  -2.885  1.00  0.00     0.468 C 
ENDBRANCH   5   6
ENDBRANCH   1   5
TORSDOF 3
ENDMDL
MODEL 2
REMARK VINA RESULT:      -7.9      1.001      1.990
REMARK SMILES CC(=O)CCc1ccc2c(c1)OCO2
REMARK SMILES IDX 4 1 2 2 1 3 3 4 5 5 6 6 7 7 11 8 8 9 10 10 9 11 12 12 14 13
REMARK SMILES IDX 13 14
REMARK H PARENT
REMARK Flexibility Score: inf
ROOT
ATOM      1  C   UNL     1       5.388   2.978   0.167  1.00  0.00     0.080 C 
ENDROOT
BRANCH   1   2
ATOM      2  C   UNL     1       6.314   3.807   0.988  1.00  0.00     0.130 C 
ATOM      3  C   UNL     1       7.261   4.770   0.364  1.00  0.00     0.087 C 
ATOM      4  O   UNL     1       6.323   3.718   2.205  1.00  0.00    -0.300 OA
ENDBRANCH   1   2
BRANCH   1   5
ATOM      5  C   UNL     1       5.116   1.641   0.826  1.00  0.00     0.043 C 
BRANCH   5   6
ATOM      6  C   UNL     1       5.961   0.572   0.265  1.00  0.00    -0.044 A 
ATOM      7  C   UNL     1       6.349   0.575  -1.080  1.00  0.00     0.008 A 
ATOM      8  C   UNL     1       6.388  -0.456   1.074  1.00  0.00     0.054 A 
ATOM      9  C   UNL     1       7.144  -0.454  -1.551  1.00  0.00     0.051 A 
ATOM     10  C   UNL     1       7.192  -1.494   0.593  1.00  0.00     0.166 A 
ATOM     11  C   UNL     1       7.573  -1.493  -0.731  1.00  0.00     0.165 A 
ATOM     12  O   UNL     1       7.738  -2.612   1.186  1.00  0.00    -0.454 OA
ATOM     13  O   UNL     1       8.354  -2.622  -0.924  1.00  0.00    -0.454 OA
ATOM     14  C   UNL     1       8.559  -3.311   0.286  1.00  0.00     0.468 C 
ENDBRANCH   5   6
ENDBRANCH   1   5
TORSDOF 3
ENDMDL
MODEL 3
REMARK VINA RESULT:      -7.7      1.884      2.629
REMARK SMILES CC(=O)CCc1ccc2c(c1)OCO2
REMARK SMILES IDX 4 1 2 2 1 3 3 4 5 5 6 6 7 7 11 8 8 9 10 10 9 11 12 12 14 13
REMARK SMILES IDX 13 14
REMARK H PARENT
REMARK Flexibility Score: inf
ROOT
ATOM      1  C   UNL     1       5.537   1.930   1.269  1.00  0.00     0.080 C 
ENDROOT
BRANCH   1   2
ATOM      2  C   UNL     1       5.107   0.711   2.009  1.00  0.00     0.130 C 
ATOM      3  C   UNL     1       6.015  -0.453   2.190  1.00  0.00     0.087 C 
ATOM      4  O   UNL     1       3.989   0.633   2.491  1.00  0.00    -0.300 OA
ENDBRANCH   1   2
BRANCH   1   5
ATOM      5  C   UNL     1       5.405   1.739  -0.229  1.00  0.00     0.043 C 
BRANCH   5   6
ATOM      6  C   UNL     1       6.571   1.037  -0.795  1.00  0.00    -0.044 A 
ATOM      7  C   UNL     1       7.879   1.469  -0.547  1.00  0.00     0.008 A 
ATOM      8  C   UNL     1       6.380  -0.074  -1.585  1.00  0.00     0.054 A 
ATOM      9  C   UNL     1       8.933   0.769  -1.104  1.00  0.00     0.051 A 
ATOM     10  C   UNL     1       7.449  -0.779  -2.146  1.00  0.00     0.166 A 
ATOM     11  C   UNL     1       8.737  -0.353  -1.903  1.00  0.00     0.165 A 
ATOM     12  O   UNL     1       7.520  -1.894  -2.953  1.00  0.00    -0.454 OA
ATOM     13  O   UNL     1       9.580  -1.226  -2.573  1.00  0.00    -0.454 OA
ATOM     14  C   UNL     1       8.854  -2.271  -3.177  1.00  0.00     0.468 C 
ENDBRANCH   5   6
ENDBRANCH   1   5
TORSDOF 3
ENDMDL
MODEL 4
REMARK VINA RESULT:      -7.6      1.098      1.538
REMARK SMILES CC(=O)CCc1ccc2c(c1)OCO2
REMARK SMILES IDX 4 1 2 2 1 3 3 4 5 5 6 6 7 7 11 8 8 9 10 10 9 11 12 12 14 13
REMARK SMILES IDX 13 14
REMARK H PARENT
REMARK Flexibility Score: inf
ROOT
ATOM      1  C   UNL     1       5.380   2.904   0.184  1.00  0.00     0.080 C 
ENDROOT
BRANCH   1   2
ATOM      2  C   UNL     1       6.228   3.778   1.042  1.00  0.00     0.130 C 
ATOM      3  C   UNL     1       7.165   4.774   0.457  1.00  0.00     0.087 C 
ATOM      4  O   UNL     1       6.177   3.700   2.259  1.00  0.00    -0.300 OA
ENDBRANCH   1   2
BRANCH   1   5
ATOM      5  C   UNL     1       5.575   1.440   0.526  1.00  0.00     0.043 C 
BRANCH   5   6
ATOM      6  C   UNL     1       6.659   0.834  -0.268  1.00  0.00    -0.044 A 
ATOM      7  C   UNL     1       7.917   1.438  -0.373  1.00  0.00     0.008 A 
ATOM      8  C   UNL     1       6.441  -0.356  -0.924  1.00  0.00     0.054 A 
ATOM      9  C   UNL     1       8.896   0.822  -1.131  1.00  0.00     0.051 A 
ATOM     10  C   UNL     1       7.434  -0.975  -1.689  1.00  0.00     0.166 A 
ATOM     11  C   UNL     1       8.672  -0.380  -1.794  1.00  0.00     0.165 A 
ATOM     12  O   UNL     1       7.463  -2.140  -2.426  1.00  0.00    -0.454 OA
ATOM     13  O   UNL     1       9.444  -1.202  -2.600  1.00  0.00    -0.454 OA
ATOM     14  C   UNL     1       8.746  -2.374  -2.948  1.00  0.00     0.468 C 
ENDBRANCH   5   6
ENDBRANCH   1   5
TORSDOF 3
ENDMDL
MODEL 5
REMARK VINA RESULT:      -7.5      1.964      3.018
REMARK SMILES CC(=O)CCc1ccc2c(c1)OCO2
REMARK SMILES IDX 4 1 2 2 1 3 3 4 5 5 6 6 7 7 11 8 8 9 10 10 9 11 12 12 14 13
REMARK SMILES IDX 13 14
REMARK H PARENT
REMARK Flexibility Score: inf
ROOT
ATOM      1  C   UNL     1       5.754   1.376  -0.322  1.00  0.00     0.080 C 
ENDROOT
BRANCH   1   2
ATOM      2  C   UNL     1       5.130   1.297   1.028  1.00  0.00     0.130 C 
ATOM      3  C   UNL     1       5.417   0.171   1.957  1.00  0.00     0.087 C 
ATOM      4  O   UNL     1       4.358   2.160   1.413  1.00  0.00    -0.300 OA
ENDBRANCH   1   2
BRANCH   1   5
ATOM      5  C   UNL     1       7.248   1.125  -0.253  1.00  0.00     0.043 C 
BRANCH   5   6
ATOM      6  C   UNL     1       7.613  -0.169  -0.857  1.00  0.00    -0.044 A 
ATOM      7  C   UNL     1       7.676  -0.338  -2.245  1.00  0.00     0.008 A 
ATOM      8  C   UNL     1       7.903  -1.242  -0.046  1.00  0.00     0.054 A 
ATOM      9  C   UNL     1       8.026  -1.575  -2.755  1.00  0.00     0.051 A 
ATOM     10  C   UNL     1       8.257  -2.491  -0.567  1.00  0.00     0.166 A 
ATOM     11  C   UNL     1       8.318  -2.659  -1.932  1.00  0.00     0.165 A 
ATOM     12  O   UNL     1       8.585  -3.695   0.020  1.00  0.00    -0.454 OA
ATOM     13  O   UNL     1       8.687  -3.975  -2.158  1.00  0.00    -0.454 OA
ATOM     14  C   UNL     1       8.955  -4.643  -0.948  1.00  0.00     0.468 C 
ENDBRANCH   5   6
ENDBRANCH   1   5
TORSDOF 3
ENDMDL
