@<TRIPOS>MOLECULE
/home/cewinharhar/GITHUB/reincatalyze/data/processed/docking_pred/2023-May-22-1902_sub9_nm5_bs15_s42_ex16_mel10_mts1000_k50_ec02_g099_lra9e-4_lrc1e-3/5bd4159c0713ad18fb2d2a846002564f6b7df27c_ligand_9.pdbqt
 14 15 0 0 0
SMALL
GASTEIGER

@<TRIPOS>ATOM
      1  C          5.3800    2.9040    0.1840 C.3     1  UNL1        0.0800
      2  C          6.2280    3.7780    1.0420 C.2     1  UNL1        0.1300
      3  C          7.1650    4.7740    0.4570 C.3     1  UNL1        0.0870
      4  O          6.1770    3.7000    2.2590 O.2     1  UNL1       -0.3000
      5  C          5.5750    1.4400    0.5260 C.3     1  UNL1        0.0430
      6  C          6.6590    0.8340   -0.2680 C.2     1  UNL1       -0.0440
      7  C          7.9170    1.4380   -0.3730 C.2     1  UNL1        0.0080
      8  C          6.4410   -0.3560   -0.9240 C.2     1  UNL1        0.0540
      9  C          8.8960    0.8220   -1.1310 C.2     1  UNL1        0.0510
     10  C          7.4340   -0.9750   -1.6890 C.2     1  UNL1        0.1660
     11  C          8.6720   -0.3800   -1.7940 C.2     1  UNL1        0.1650
     12  O          7.4630   -2.1400   -2.4260 O.2     1  UNL1       -0.4540
     13  O          9.4440   -1.2020   -2.6000 O.2     1  UNL1       -0.4540
     14  C          8.7460   -2.3740   -2.9480 C.3     1  UNL1        0.4680
@<TRIPOS>BOND
     1    14    13    1
     2    14    12    1
     3    13    11    1
     4    12    10    1
     5    11    10    2
     6    11     9    1
     7    10     8    1
     8     9     7    2
     9     8     6    2
    10     7     6    1
    11     6     5    1
    12     1     5    1
    13     1     2    1
    14     3     2    1
    15     2     4    2
