@<TRIPOS>MOLECULE
/home/cewinharhar/GITHUB/reincatalyze/data/processed/docking_pred/2023-May-22-1902_sub9_nm5_bs15_s42_ex16_mel10_mts1000_k50_ec02_g099_lra9e-4_lrc1e-3/5bd4159c0713ad18fb2d2a846002564f6b7df27c_ligand_9.pdbqt
 14 15 0 0 0
SMALL
GASTEIGER

@<TRIPOS>ATOM
      1  C          5.7540    1.3760   -0.3220 C.3     1  UNL1        0.0800
      2  C          5.1300    1.2970    1.0280 C.2     1  UNL1        0.1300
      3  C          5.4170    0.1710    1.9570 C.3     1  UNL1        0.0870
      4  O          4.3580    2.1600    1.4130 O.2     1  UNL1       -0.3000
      5  C          7.2480    1.1250   -0.2530 C.3     1  UNL1        0.0430
      6  C          7.6130   -0.1690   -0.8570 C.2     1  UNL1       -0.0440
      7  C          7.6760   -0.3380   -2.2450 C.2     1  UNL1        0.0080
      8  C          7.9030   -1.2420   -0.0460 C.2     1  UNL1        0.0540
      9  C          8.0260   -1.5750   -2.7550 C.2     1  UNL1        0.0510
     10  C          8.2570   -2.4910   -0.5670 C.2     1  UNL1        0.1660
     11  C          8.3180   -2.6590   -1.9320 C.2     1  UNL1        0.1650
     12  O          8.5850   -3.6950    0.0200 O.2     1  UNL1       -0.4540
     13  O          8.6870   -3.9750   -2.1580 O.2     1  UNL1       -0.4540
     14  C          8.9550   -4.6430   -0.9480 C.3     1  UNL1        0.4680
@<TRIPOS>BOND
     1     9     7    1
     2     9    11    2
     3     7     6    2
     4    13    11    1
     5    13    14    1
     6    11    10    1
     7    14    12    1
     8     6     5    1
     9     6     8    1
    10    10     8    2
    11    10    12    1
    12     1     5    1
    13     1     2    1
    14     2     4    2
    15     2     3    1
