@<TRIPOS>MOLECULE
/home/cewinharhar/GITHUB/reincatalyze/data/processed/docking_pred/2023-May-22-1902_sub9_nm5_bs15_s42_ex16_mel10_mts1000_k50_ec02_g099_lra9e-4_lrc1e-3/5bd4159c0713ad18fb2d2a846002564f6b7df27c_ligand_9.pdbqt
 14 15 0 0 0
SMALL
GASTEIGER

@<TRIPOS>ATOM
      1  C          5.3880    2.9780    0.1670 C.3     1  UNL1        0.0800
      2  C          6.3140    3.8070    0.9880 C.2     1  UNL1        0.1300
      3  C          7.2610    4.7700    0.3640 C.3     1  UNL1        0.0870
      4  O          6.3230    3.7180    2.2050 O.2     1  UNL1       -0.3000
      5  C          5.1160    1.6410    0.8260 C.3     1  UNL1        0.0430
      6  C          5.9610    0.5720    0.2650 C.2     1  UNL1       -0.0440
      7  C          6.3490    0.5750   -1.0800 C.2     1  UNL1        0.0080
      8  C          6.3880   -0.4560    1.0740 C.2     1  UNL1        0.0540
      9  C          7.1440   -0.4540   -1.5510 C.2     1  UNL1        0.0510
     10  C          7.1920   -1.4940    0.5930 C.2     1  UNL1        0.1660
     11  C          7.5730   -1.4930   -0.7310 C.2     1  UNL1        0.1650
     12  O          7.7380   -2.6120    1.1860 O.2     1  UNL1       -0.4540
     13  O          8.3540   -2.6220   -0.9240 O.2     1  UNL1       -0.4540
     14  C          8.5590   -3.3110    0.2860 C.3     1  UNL1        0.4680
@<TRIPOS>BOND
     1     9     7    1
     2     9    11    2
     3     7     6    2
     4    13    11    1
     5    13    14    1
     6    11    10    1
     7     1     5    1
     8     1     2    1
     9     6     5    1
    10     6     8    1
    11    14    12    1
    12     3     2    1
    13    10     8    2
    14    10    12    1
    15     2     4    2
