@<TRIPOS>MOLECULE
/home/cewinharhar/GITHUB/reincatalyze/data/processed/docking_pred/2023-May-22-1902_sub9_nm5_bs15_s42_ex16_mel10_mts1000_k50_ec02_g099_lra9e-4_lrc1e-3/5bd4159c0713ad18fb2d2a846002564f6b7df27c_ligand_9.pdbqt
 14 15 0 0 0
SMALL
GASTEIGER

@<TRIPOS>ATOM
      1  C          5.4300    2.9300    0.0900 C.3     1  UNL1        0.0800
      2  C          6.2800    3.8170    0.9320 C.2     1  UNL1        0.1300
      3  C          7.2510    4.7700    0.3300 C.3     1  UNL1        0.0870
      4  O          6.2040    3.7850    2.1500 O.2     1  UNL1       -0.3000
      5  C          5.1400    1.6180    0.7900 C.3     1  UNL1        0.0430
      6  C          5.9770    0.5230    0.2680 C.2     1  UNL1       -0.0440
      7  C          6.2940   -0.5940    1.0500 C.2     1  UNL1        0.0080
      8  C          6.4620    0.5880   -1.0180 C.2     1  UNL1        0.0540
      9  C          7.0840   -1.5910    0.5070 C.2     1  UNL1        0.0510
     10  C          7.2590   -0.4230   -1.5630 C.2     1  UNL1        0.1660
     11  C          7.5730   -1.5210   -0.7940 C.2     1  UNL1        0.1650
     12  O          7.8540   -0.5880   -2.7960 O.2     1  UNL1       -0.4540
     13  O          8.3610   -2.3480   -1.5790 O.2     1  UNL1       -0.4540
     14  C          8.4900   -1.8380   -2.8850 C.3     1  UNL1        0.4680
@<TRIPOS>BOND
     1    14    12    1
     2    14    13    1
     3    12    10    1
     4    13    11    1
     5    10     8    1
     6    10    11    2
     7     8     6    2
     8    11     9    1
     9     1     5    1
    10     1     2    1
    11     6     5    1
    12     6     7    1
    13     3     2    1
    14     9     7    2
    15     2     4    2
