@<TRIPOS>MOLECULE
/home/cewinharhar/GITHUB/reincatalyze/data/processed/docking_pred/2023-May-22-1902_sub9_nm5_bs15_s42_ex16_mel10_mts1000_k50_ec02_g099_lra9e-4_lrc1e-3/5bd4159c0713ad18fb2d2a846002564f6b7df27c_ligand_9.pdbqt
 14 15 0 0 0
SMALL
GASTEIGER

@<TRIPOS>ATOM
      1  C          5.5370    1.9300    1.2690 C.3     1  UNL1        0.0800
      2  C          5.1070    0.7110    2.0090 C.2     1  UNL1        0.1300
      3  C          6.0150   -0.4530    2.1900 C.3     1  UNL1        0.0870
      4  O          3.9890    0.6330    2.4910 O.2     1  UNL1       -0.3000
      5  C          5.4050    1.7390   -0.2290 C.3     1  UNL1        0.0430
      6  C          6.5710    1.0370   -0.7950 C.2     1  UNL1       -0.0440
      7  C          7.8790    1.4690   -0.5470 C.2     1  UNL1        0.0080
      8  C          6.3800   -0.0740   -1.5850 C.2     1  UNL1        0.0540
      9  C          8.9330    0.7690   -1.1040 C.2     1  UNL1        0.0510
     10  C          7.4490   -0.7790   -2.1460 C.2     1  UNL1        0.1660
     11  C          8.7370   -0.3530   -1.9030 C.2     1  UNL1        0.1650
     12  O          7.5200   -1.8940   -2.9530 O.2     1  UNL1       -0.4540
     13  O          9.5800   -1.2260   -2.5730 O.2     1  UNL1       -0.4540
     14  C          8.8540   -2.2710   -3.1770 C.3     1  UNL1        0.4680
@<TRIPOS>BOND
     1    14    12    1
     2    14    13    1
     3    12    10    1
     4    13    11    1
     5    10    11    2
     6    10     8    1
     7    11     9    1
     8     8     6    2
     9     9     7    2
    10     6     7    1
    11     6     5    1
    12     5     1    1
    13     1     2    1
    14     2     3    1
    15     2     4    2
