@<TRIPOS>MOLECULE
/home/cewinharhar/GITHUB/reincatalyze/data/processed/docking_pred/2023-May-22-1902_sub9_nm5_bs15_s42_ex16_mel10_mts1000_k50_ec02_g099_lra9e-4_lrc1e-3/5be73a077ea639c014f12358d863af943f9e92ef_ligand_9.pdbqt
 14 15 0 0 0
SMALL
GASTEIGER

@<TRIPOS>ATOM
      1  C          5.3910    2.8720    0.3240 C.3     1  UNL1        0.0800
      2  C          6.3720    3.6980    1.0810 C.2     1  UNL1        0.1300
      3  C          7.1620    4.7710    0.4210 C.3     1  UNL1        0.0870
      4  O          6.5560    3.5160    2.2740 O.2     1  UNL1       -0.3000
      5  C          5.1760    1.5260    0.9890 C.3     1  UNL1        0.0430
      6  C          6.0130    0.4770    0.3820 C.2     1  UNL1       -0.0440
      7  C          6.3670    0.5120   -0.9710 C.2     1  UNL1        0.0080
      8  C          6.4670   -0.5670    1.1570 C.2     1  UNL1        0.0540
      9  C          7.1560   -0.5010   -1.4850 C.2     1  UNL1        0.0510
     10  C          7.2660   -1.5870    0.6330 C.2     1  UNL1        0.1660
     11  C          7.6130   -1.5540   -0.6990 C.2     1  UNL1        0.1650
     12  O          7.8330   -2.7150    1.1870 O.2     1  UNL1       -0.4540
     13  O          8.3950   -2.6730   -0.9380 O.2     1  UNL1       -0.4540
     14  C          8.6360   -3.3880    0.2510 C.3     1  UNL1        0.4680
@<TRIPOS>BOND
     1     9     7    1
     2     9    11    2
     3     7     6    2
     4    13    11    1
     5    13    14    1
     6    11    10    1
     7    14    12    1
     8     1     5    1
     9     1     2    1
    10     6     5    1
    11     6     8    1
    12     3     2    1
    13    10     8    2
    14    10    12    1
    15     2     4    2
