@<TRIPOS>MOLECULE
/home/cewinharhar/GITHUB/reincatalyze/data/processed/docking_pred/2023-May-22-1902_sub9_nm5_bs15_s42_ex16_mel10_mts1000_k50_ec02_g099_lra9e-4_lrc1e-3/5c54d156b22251270ecdcbd3d684e6dc7dd5ede7_ligand_9.pdbqt
 14 15 0 0 0
SMALL
GASTEIGER

@<TRIPOS>ATOM
      1  C          5.4450    2.7940    0.1870 C.3     1  UNL1        0.0800
      2  C          6.3550    3.5990    1.0500 C.2     1  UNL1        0.1300
      3  C          7.0960    4.7740    0.5190 C.3     1  UNL1        0.0870
      4  O          6.5200    3.3130    2.2250 O.2     1  UNL1       -0.3000
      5  C          5.6010    1.3100    0.4570 C.3     1  UNL1        0.0430
      6  C          6.6910    0.7210   -0.3420 C.2     1  UNL1       -0.0440
      7  C          7.9480    1.3310   -0.4300 C.2     1  UNL1        0.0080
      8  C          6.4790   -0.4580   -1.0200 C.2     1  UNL1        0.0540
      9  C          8.9320    0.7320   -1.1940 C.2     1  UNL1        0.0510
     10  C          7.4780   -1.0600   -1.7910 C.2     1  UNL1        0.1660
     11  C          8.7150   -0.4600   -1.8790 C.2     1  UNL1        0.1650
     12  O          7.5150   -2.2120   -2.5470 O.2     1  UNL1       -0.4540
     13  O          9.4930   -1.2650   -2.6950 O.2     1  UNL1       -0.4540
     14  C          8.8010   -2.4330   -3.0680 C.3     1  UNL1        0.4680
@<TRIPOS>BOND
     1    14    13    1
     2    14    12    1
     3    13    11    1
     4    12    10    1
     5    11    10    2
     6    11     9    1
     7    10     8    1
     8     9     7    2
     9     8     6    2
    10     7     6    1
    11     6     5    1
    12     1     5    1
    13     1     2    1
    14     3     2    1
    15     2     4    2
