@<TRIPOS>MOLECULE
/home/cewinharhar/GITHUB/reincatalyze/data/processed/docking_pred/2023-May-22-1902_sub9_nm5_bs15_s42_ex16_mel10_mts1000_k50_ec02_g099_lra9e-4_lrc1e-3/5c54d156b22251270ecdcbd3d684e6dc7dd5ede7_ligand_9.pdbqt
 14 15 0 0 0
SMALL
GASTEIGER

@<TRIPOS>ATOM
      1  C          5.4240    2.9140    0.1190 C.3     1  UNL1        0.0800
      2  C          6.2460    3.8480    0.9380 C.2     1  UNL1        0.1300
      3  C          7.2290    4.7750    0.3150 C.3     1  UNL1        0.0870
      4  O          6.1360    3.8790    2.1530 O.2     1  UNL1       -0.3000
      5  C          5.1480    1.6240    0.8660 C.3     1  UNL1        0.0430
      6  C          5.9690    0.5110    0.3570 C.2     1  UNL1       -0.0440
      7  C          6.3100   -0.5780    1.1660 C.2     1  UNL1        0.0080
      8  C          6.4150    0.5330   -0.9450 C.2     1  UNL1        0.0540
      9  C          7.0830   -1.5940    0.6330 C.2     1  UNL1        0.0510
     10  C          7.1950   -0.4970   -1.4800 C.2     1  UNL1        0.1660
     11  C          7.5320   -1.5690   -0.6840 C.2     1  UNL1        0.1650
     12  O          7.7530   -0.7050   -2.7230 O.2     1  UNL1       -0.4540
     13  O          8.2970   -2.4220   -1.4630 O.2     1  UNL1       -0.4540
     14  C          8.3860   -1.9570   -2.7890 C.3     1  UNL1        0.4680
@<TRIPOS>BOND
     1    14    12    1
     2    14    13    1
     3    12    10    1
     4    10     8    1
     5    10    11    2
     6    13    11    1
     7     8     6    2
     8    11     9    1
     9     1     5    1
    10     1     2    1
    11     3     2    1
    12     6     5    1
    13     6     7    1
    14     9     7    2
    15     2     4    2
