MODEL 1
REMARK VINA RESULT:      -7.9      0.000      0.000
REMARK SMILES CC(=O)CCc1ccc2c(c1)OCO2
REMARK SMILES IDX 4 1 2 2 1 3 3 4 5 5 6 6 7 7 11 8 8 9 10 10 9 11 12 12 14 13
REMARK SMILES IDX 13 14
REMARK H PARENT
REMARK Flexibility Score: inf
ROOT
ATOM      1  C   UNL     1       5.424   2.914   0.119  1.00  0.00     0.080 C 
ENDROOT
BRANCH   1   2
ATOM      2  C   UNL     1       6.246   3.848   0.938  1.00  0.00     0.130 C 
ATOM      3  C   UNL     1       7.229   4.775   0.315  1.00  0.00     0.087 C 
ATOM      4  O   UNL     1       6.136   3.879   2.153  1.00  0.00    -0.300 OA
ENDBRANCH   1   2
BRANCH   1   5
ATOM      5  C   UNL     1       5.148   1.624   0.866  1.00  0.00     0.043 C 
BRANCH   5   6
ATOM      6  C   UNL     1       5.969   0.511   0.357  1.00  0.00    -0.044 A 
ATOM      7  C   UNL     1       6.310  -0.578   1.166  1.00  0.00     0.008 A 
ATOM      8  C   UNL     1       6.415   0.533  -0.945  1.00  0.00     0.054 A 
ATOM      9  C   UNL     1       7.083  -1.594   0.633  1.00  0.00     0.051 A 
ATOM     10  C   UNL     1       7.195  -0.497  -1.480  1.00  0.00     0.166 A 
ATOM     11  C   UNL     1       7.532  -1.569  -0.684  1.00  0.00     0.165 A 
ATOM     12  O   UNL     1       7.753  -0.705  -2.723  1.00  0.00    -0.454 OA
ATOM     13  O   UNL     1       8.297  -2.422  -1.463  1.00  0.00    -0.454 OA
ATOM     14  C   UNL     1       8.386  -1.957  -2.789  1.00  0.00     0.468 C 
ENDBRANCH   5   6
ENDBRANCH   1   5
TORSDOF 3
ENDMDL
MODEL 2
REMARK VINA RESULT:      -7.8      0.947      1.934
REMARK SMILES CC(=O)CCc1ccc2c(c1)OCO2
REMARK SMILES IDX 4 1 2 2 1 3 3 4 5 5 6 6 7 7 11 8 8 9 10 10 9 11 12 12 14 13
REMARK SMILES IDX 13 14
REMARK H PARENT
REMARK Flexibility Score: inf
ROOT
ATOM      1  C   UNL     1       5.482   2.894   0.210  1.00  0.00     0.080 C 
ENDROOT
BRANCH   1   2
ATOM      2  C   UNL     1       6.290   3.872   0.991  1.00  0.00     0.130 C 
ATOM      3  C   UNL     1       7.272   4.775   0.334  1.00  0.00     0.087 C 
ATOM      4  O   UNL     1       6.168   3.959   2.203  1.00  0.00    -0.300 OA
ENDBRANCH   1   2
BRANCH   1   5
ATOM      5  C   UNL     1       5.334   1.582   0.956  1.00  0.00     0.043 C 
BRANCH   5   6
ATOM      6  C   UNL     1       6.112   0.503   0.322  1.00  0.00    -0.044 A 
ATOM      7  C   UNL     1       6.401   0.514  -1.047  1.00  0.00     0.008 A 
ATOM      8  C   UNL     1       6.572  -0.545   1.086  1.00  0.00     0.054 A 
ATOM      9  C   UNL     1       7.136  -0.526  -1.587  1.00  0.00     0.051 A 
ATOM     10  C   UNL     1       7.315  -1.594   0.536  1.00  0.00     0.166 A 
ATOM     11  C   UNL     1       7.599  -1.584  -0.811  1.00  0.00     0.165 A 
ATOM     12  O   UNL     1       7.876  -2.732   1.076  1.00  0.00    -0.454 OA
ATOM     13  O   UNL     1       8.337  -2.728  -1.073  1.00  0.00    -0.454 OA
ATOM     14  C   UNL     1       8.613  -3.437   0.111  1.00  0.00     0.468 C 
ENDBRANCH   5   6
ENDBRANCH   1   5
TORSDOF 3
ENDMDL
MODEL 3
REMARK VINA RESULT:      -7.7      1.890      2.658
REMARK SMILES CC(=O)CCc1ccc2c(c1)OCO2
REMARK SMILES IDX 4 1 2 2 1 3 3 4 5 5 6 6 7 7 11 8 8 9 10 10 9 11 12 12 14 13
REMARK SMILES IDX 13 14
REMARK H PARENT
REMARK Flexibility Score: inf
ROOT
ATOM      1  C   UNL     1       5.497   1.935   1.254  1.00  0.00     0.080 C 
ENDROOT
BRANCH   1   2
ATOM      2  C   UNL     1       5.060   0.719   1.994  1.00  0.00     0.130 C 
ATOM      3  C   UNL     1       5.950  -0.463   2.148  1.00  0.00     0.087 C 
ATOM      4  O   UNL     1       3.951   0.657   2.500  1.00  0.00    -0.300 OA
ENDBRANCH   1   2
BRANCH   1   5
ATOM      5  C   UNL     1       5.376   1.740  -0.245  1.00  0.00     0.043 C 
BRANCH   5   6
ATOM      6  C   UNL     1       6.547   1.038  -0.800  1.00  0.00    -0.044 A 
ATOM      7  C   UNL     1       7.853   1.473  -0.543  1.00  0.00     0.008 A 
ATOM      8  C   UNL     1       6.365  -0.074  -1.591  1.00  0.00     0.054 A 
ATOM      9  C   UNL     1       8.913   0.775  -1.090  1.00  0.00     0.051 A 
ATOM     10  C   UNL     1       7.441  -0.777  -2.142  1.00  0.00     0.166 A 
ATOM     11  C   UNL     1       8.725  -0.349  -1.890  1.00  0.00     0.165 A 
ATOM     12  O   UNL     1       7.520  -1.893  -2.947  1.00  0.00    -0.454 OA
ATOM     13  O   UNL     1       9.575  -1.221  -2.552  1.00  0.00    -0.454 OA
ATOM     14  C   UNL     1       8.857  -2.267  -3.160  1.00  0.00     0.468 C 
ENDBRANCH   5   6
ENDBRANCH   1   5
TORSDOF 3
ENDMDL
MODEL 4
REMARK VINA RESULT:      -7.5      1.158      1.601
REMARK SMILES CC(=O)CCc1ccc2c(c1)OCO2
REMARK SMILES IDX 4 1 2 2 1 3 3 4 5 5 6 6 7 7 11 8 8 9 10 10 9 11 12 12 14 13
REMARK SMILES IDX 13 14
REMARK H PARENT
REMARK Flexibility Score: inf
ROOT
ATOM      1  C   UNL     1       5.445   2.794   0.187  1.00  0.00     0.080 C 
ENDROOT
BRANCH   1   2
ATOM      2  C   UNL     1       6.355   3.599   1.050  1.00  0.00     0.130 C 
ATOM      3  C   UNL     1       7.096   4.774   0.519  1.00  0.00     0.087 C 
ATOM      4  O   UNL     1       6.520   3.313   2.225  1.00  0.00    -0.300 OA
ENDBRANCH   1   2
BRANCH   1   5
ATOM      5  C   UNL     1       5.601   1.310   0.457  1.00  0.00     0.043 C 
BRANCH   5   6
ATOM      6  C   UNL     1       6.691   0.721  -0.342  1.00  0.00    -0.044 A 
ATOM      7  C   UNL     1       7.948   1.331  -0.430  1.00  0.00     0.008 A 
ATOM      8  C   UNL     1       6.479  -0.458  -1.020  1.00  0.00     0.054 A 
ATOM      9  C   UNL     1       8.932   0.732  -1.194  1.00  0.00     0.051 A 
ATOM     10  C   UNL     1       7.478  -1.060  -1.791  1.00  0.00     0.166 A 
ATOM     11  C   UNL     1       8.715  -0.460  -1.879  1.00  0.00     0.165 A 
ATOM     12  O   UNL     1       7.515  -2.212  -2.547  1.00  0.00    -0.454 OA
ATOM     13  O   UNL     1       9.493  -1.265  -2.695  1.00  0.00    -0.454 OA
ATOM     14  C   UNL     1       8.801  -2.433  -3.068  1.00  0.00     0.468 C 
ENDBRANCH   5   6
ENDBRANCH   1   5
TORSDOF 3
ENDMDL
MODEL 5
REMARK VINA RESULT:      -7.5      1.947      3.030
REMARK SMILES CC(=O)CCc1ccc2c(c1)OCO2
REMARK SMILES IDX 4 1 2 2 1 3 3 4 5 5 6 6 7 7 11 8 8 9 10 10 9 11 12 12 14 13
REMARK SMILES IDX 13 14
REMARK H PARENT
REMARK Flexibility Score: inf
ROOT
ATOM      1  C   UNL     1       5.741   1.325  -0.317  1.00  0.00     0.080 C 
ENDROOT
BRANCH   1   2
ATOM      2  C   UNL     1       5.154   1.285   1.051  1.00  0.00     0.130 C 
ATOM      3  C   UNL     1       5.323   0.104   1.939  1.00  0.00     0.087 C 
ATOM      4  O   UNL     1       4.513   2.228   1.486  1.00  0.00    -0.300 OA
ENDBRANCH   1   2
BRANCH   1   5
ATOM      5  C   UNL     1       7.240   1.100  -0.281  1.00  0.00     0.043 C 
BRANCH   5   6
ATOM      6  C   UNL     1       7.613  -0.194  -0.879  1.00  0.00    -0.044 A 
ATOM      7  C   UNL     1       7.684  -0.368  -2.266  1.00  0.00     0.008 A 
ATOM      8  C   UNL     1       7.903  -1.264  -0.063  1.00  0.00     0.054 A 
ATOM      9  C   UNL     1       8.040  -1.606  -2.770  1.00  0.00     0.051 A 
ATOM     10  C   UNL     1       8.264  -2.513  -0.577  1.00  0.00     0.166 A 
ATOM     11  C   UNL     1       8.333  -2.685  -1.942  1.00  0.00     0.165 A 
ATOM     12  O   UNL     1       8.594  -3.714   0.015  1.00  0.00    -0.454 OA
ATOM     13  O   UNL     1       8.708  -4.001  -2.162  1.00  0.00    -0.454 OA
ATOM     14  C   UNL     1       8.972  -4.664  -0.948  1.00  0.00     0.468 C 
ENDBRANCH   5   6
ENDBRANCH   1   5
TORSDOF 3
ENDMDL
