@<TRIPOS>MOLECULE
/home/cewinharhar/GITHUB/reincatalyze/data/processed/docking_pred/2023-May-22-1902_sub9_nm5_bs15_s42_ex16_mel10_mts1000_k50_ec02_g099_lra9e-4_lrc1e-3/5e677739909452415bd62a3bb65a8cc9d063ea2f_ligand_9.pdbqt
 14 15 0 0 0
SMALL
GASTEIGER

@<TRIPOS>ATOM
      1  C         10.3560    0.7360    2.3880 C.3     1  UNL1        0.0800
      2  C         10.9450    1.8890    3.1240 C.2     1  UNL1        0.1300
      3  C         12.2720    1.7940    3.7900 C.3     1  UNL1        0.0870
      4  O         10.3510    2.9520    3.2020 O.2     1  UNL1       -0.3000
      5  C          8.8410    0.7730    2.4300 C.3     1  UNL1        0.0430
      6  C          8.2450    0.0890    1.2680 C.2     1  UNL1       -0.0440
      7  C          6.9300   -0.3880    1.2930 C.2     1  UNL1        0.0080
      8  C          8.9910   -0.0890    0.1250 C.2     1  UNL1        0.0540
      9  C          6.4240   -1.0210    0.1720 C.2     1  UNL1        0.0510
     10  C          8.4750   -0.7290   -1.0060 C.2     1  UNL1        0.1660
     11  C          7.1810   -1.1990   -0.9820 C.2     1  UNL1        0.1650
     12  O          9.0070   -1.0240   -2.2430 O.2     1  UNL1       -0.4540
     13  O          6.9420   -1.7790   -2.2180 O.2     1  UNL1       -0.4540
     14  C          8.0420   -1.6090   -3.0800 C.3     1  UNL1        0.4680
@<TRIPOS>BOND
     1    14    12    1
     2    14    13    1
     3    12    10    1
     4    13    11    1
     5    10    11    2
     6    10     8    1
     7    11     9    1
     8     8     6    2
     9     9     7    2
    10     6     7    1
    11     6     5    1
    12     1     5    1
    13     1     2    1
    14     2     4    2
    15     2     3    1
