@<TRIPOS>MOLECULE
/home/cewinharhar/GITHUB/reincatalyze/data/processed/docking_pred/2023-May-22-1902_sub9_nm5_bs15_s42_ex16_mel10_mts1000_k50_ec02_g099_lra9e-4_lrc1e-3/5f00cdda1ab61f28c1ea6d7129614616e9231d70_ligand_9.pdbqt
 14 15 0 0 0
SMALL
GASTEIGER

@<TRIPOS>ATOM
      1  C          5.7410    3.1110    0.2700 C.3     1  UNL1        0.0800
      2  C          6.6030    3.6940    1.3360 C.2     1  UNL1        0.1300
      3  C          8.0660    3.4320    1.3870 C.3     1  UNL1        0.0870
      4  O          6.1280    4.4070    2.2050 O.2     1  UNL1       -0.3000
      5  C          5.1410    1.7890    0.7070 C.3     1  UNL1        0.0430
      6  C          5.9480    0.6440    0.2480 C.2     1  UNL1       -0.0440
      7  C          6.2380   -0.4340    1.0920 C.2     1  UNL1        0.0080
      8  C          6.4300    0.6230   -1.0410 C.2     1  UNL1        0.0540
      9  C          6.9990   -1.4810    0.6050 C.2     1  UNL1        0.0510
     10  C          7.1980   -0.4380   -1.5290 C.2     1  UNL1        0.1660
     11  C          7.4850   -1.4990   -0.6990 C.2     1  UNL1        0.1650
     12  O          7.7850   -0.6900   -2.7510 O.2     1  UNL1       -0.4540
     13  O          8.2500   -2.3890   -1.4360 O.2     1  UNL1       -0.4540
     14  C          8.3870   -1.9590   -2.7690 C.3     1  UNL1        0.4680
@<TRIPOS>BOND
     1    14    12    1
     2    14    13    1
     3    12    10    1
     4    10     8    1
     5    10    11    2
     6    13    11    1
     7     8     6    2
     8    11     9    1
     9     6     5    1
    10     6     7    1
    11     1     5    1
    12     1     2    1
    13     9     7    2
    14     2     3    1
    15     2     4    2
