@<TRIPOS>MOLECULE
/home/cewinharhar/GITHUB/reincatalyze/data/processed/docking_pred/2023-May-22-1902_sub9_nm5_bs15_s42_ex16_mel10_mts1000_k50_ec02_g099_lra9e-4_lrc1e-3/5f00cdda1ab61f28c1ea6d7129614616e9231d70_ligand_9.pdbqt
 14 15 0 0 0
SMALL
GASTEIGER

@<TRIPOS>ATOM
      1  C          5.7180    1.2080   -0.4610 C.3     1  UNL1        0.0800
      2  C          5.3200    2.3090    0.4600 C.2     1  UNL1        0.1300
      3  C          6.0170    3.6230    0.4540 C.3     1  UNL1        0.0870
      4  O          4.4020    2.1630    1.2510 O.2     1  UNL1       -0.3000
      5  C          6.4720    0.1200    0.2770 C.3     1  UNL1        0.0430
      6  C          7.8670    0.5100    0.5500 C.2     1  UNL1       -0.0440
      7  C          8.7920    0.6940   -0.4840 C.2     1  UNL1        0.0080
      8  C          8.2800    0.7030    1.8480 C.2     1  UNL1        0.0540
      9  C         10.0880    1.0610   -0.1680 C.2     1  UNL1        0.0510
     10  C          9.5900    1.0750    2.1630 C.2     1  UNL1        0.1660
     11  C         10.5020    1.2550    1.1460 C.2     1  UNL1        0.1650
     12  O         10.2360    1.3240    3.3550 O.2     1  UNL1       -0.4540
     13  O         11.7010    1.6150    1.7420 O.2     1  UNL1       -0.4540
     14  C         11.5530    1.7590    3.1340 C.3     1  UNL1        0.4680
@<TRIPOS>BOND
     1     7     9    1
     2     7     6    2
     3     1     5    1
     4     1     2    1
     5     9    11    2
     6     5     6    1
     7     3     2    1
     8     2     4    2
     9     6     8    1
    10    11    13    1
    11    11    10    1
    12    13    14    1
    13     8    10    2
    14    10    12    1
    15    14    12    1
