@<TRIPOS>MOLECULE
/home/cewinharhar/GITHUB/reincatalyze/data/processed/docking_pred/2023-May-22-1902_sub9_nm5_bs15_s42_ex16_mel10_mts1000_k50_ec02_g099_lra9e-4_lrc1e-3/5f00cdda1ab61f28c1ea6d7129614616e9231d70_ligand_9.pdbqt
 14 15 0 0 0
SMALL
GASTEIGER

@<TRIPOS>ATOM
      1  C          5.7700    3.2780    0.2040 C.3     1  UNL1        0.0800
      2  C          6.6620    3.6870    1.3240 C.2     1  UNL1        0.1300
      3  C          8.1170    3.3750    1.3180 C.3     1  UNL1        0.0870
      4  O          6.2220    4.2940    2.2870 O.2     1  UNL1       -0.3000
      5  C          5.0950    1.9520    0.4940 C.3     1  UNL1        0.0430
      6  C          5.9230    0.8110    0.0640 C.2     1  UNL1       -0.0440
      7  C          6.3730    0.6880   -1.2560 C.2     1  UNL1        0.0080
      8  C          6.2710   -0.1620    0.9740 C.2     1  UNL1        0.0540
      9  C          7.1480   -0.4030   -1.6020 C.2     1  UNL1        0.0510
     10  C          7.0550   -1.2630    0.6190 C.2     1  UNL1        0.1660
     11  C          7.4970   -1.3850   -0.6800 C.2     1  UNL1        0.1650
     12  O          7.5270   -2.3480    1.3270 O.2     1  UNL1       -0.4540
     13  O          8.2400   -2.5540   -0.7420 O.2     1  UNL1       -0.4540
     14  C          8.3610   -3.1470    0.5290 C.3     1  UNL1        0.4680
@<TRIPOS>BOND
     1     9     7    1
     2     9    11    2
     3     7     6    2
     4    13    11    1
     5    13    14    1
     6    11    10    1
     7     6     5    1
     8     6     8    1
     9     1     5    1
    10     1     2    1
    11    14    12    1
    12    10     8    2
    13    10    12    1
    14     3     2    1
    15     2     4    2
