@<TRIPOS>MOLECULE
/home/cewinharhar/GITHUB/reincatalyze/data/processed/docking_pred/2023-May-22-1902_sub9_nm5_bs15_s42_ex16_mel10_mts1000_k50_ec02_g099_lra9e-4_lrc1e-3/5f00cdda1ab61f28c1ea6d7129614616e9231d70_ligand_9.pdbqt
 14 15 0 0 0
SMALL
GASTEIGER

@<TRIPOS>ATOM
      1  C          7.0430   -1.3860   -0.8940 C.3     1  UNL1        0.0800
      2  C          7.5760   -1.7070    0.4590 C.2     1  UNL1        0.1300
      3  C          6.7030   -1.7070    1.6630 C.3     1  UNL1        0.0870
      4  O          8.7550   -1.9800    0.6190 O.2     1  UNL1       -0.3000
      5  C          7.5590   -0.0490   -1.3870 C.3     1  UNL1        0.0430
      6  C          7.0200    1.0700   -0.5930 C.2     1  UNL1       -0.0440
      7  C          5.6480    1.3420   -0.5460 C.2     1  UNL1        0.0080
      8  C          7.8780    1.8720    0.1250 C.2     1  UNL1        0.0540
      9  C          5.2000    2.4060    0.2160 C.2     1  UNL1        0.0510
     10  C          7.4200    2.9460    0.8950 C.2     1  UNL1        0.1660
     11  C          6.0700    3.2150    0.9410 C.2     1  UNL1        0.1650
     12  O          8.0610    3.8760    1.6850 O.2     1  UNL1       -0.4540
     13  O          5.9090    4.3150    1.7670 O.2     1  UNL1       -0.4540
     14  C          7.1360    4.7110    2.3330 C.3     1  UNL1        0.4680
@<TRIPOS>BOND
     1     5     1    1
     2     5     6    1
     3     1     2    1
     4     6     7    2
     5     6     8    1
     6     7     9    1
     7     8    10    2
     8     9    11    2
     9     2     4    2
    10     2     3    1
    11    10    11    1
    12    10    12    1
    13    11    13    1
    14    12    14    1
    15    13    14    1
