@<TRIPOS>MOLECULE
/home/cewinharhar/GITHUB/reincatalyze/data/processed/docking_pred/2023-May-22-1902_sub9_nm5_bs15_s42_ex16_mel10_mts1000_k50_ec02_g099_lra9e-4_lrc1e-3/5f00cdda1ab61f28c1ea6d7129614616e9231d70_ligand_9.pdbqt
 14 15 0 0 0
SMALL
GASTEIGER

@<TRIPOS>ATOM
      1  C          6.2660    3.5400    0.1190 C.3     1  UNL1        0.0800
      2  C          6.6680    3.9220    1.5010 C.2     1  UNL1        0.1300
      3  C          7.9820    3.5190    2.0710 C.3     1  UNL1        0.0870
      4  O          5.9250    4.5800    2.2110 O.2     1  UNL1       -0.3000
      5  C          5.1850    2.4780    0.1340 C.3     1  UNL1        0.0430
      6  C          5.7110    1.1680    0.5590 C.2     1  UNL1       -0.0440
      7  C          5.2510    0.5350    1.7200 C.2     1  UNL1        0.0080
      8  C          6.6760    0.5430   -0.1970 C.2     1  UNL1        0.0540
      9  C          5.7810   -0.6940    2.0690 C.2     1  UNL1        0.0510
     10  C          7.2080   -0.7000    0.1600 C.2     1  UNL1        0.1660
     11  C          6.7570   -1.3230    1.3020 C.2     1  UNL1        0.1650
     12  O          8.1600   -1.5140   -0.4150 O.2     1  UNL1       -0.4540
     13  O          7.4480   -2.5200    1.4050 O.2     1  UNL1       -0.4540
     14  C          8.2820   -2.7230    0.2900 C.3     1  UNL1        0.4680
@<TRIPOS>BOND
     1    12    10    1
     2    12    14    1
     3     8    10    1
     4     8     6    2
     5     1     5    1
     6     1     2    1
     7     5     6    1
     8    10    11    2
     9    14    13    1
    10     6     7    1
    11    11    13    1
    12    11     9    1
    13     2     3    1
    14     2     4    2
    15     7     9    2
