@<TRIPOS>MOLECULE
/home/cewinharhar/GITHUB/reincatalyze/data/processed/docking_pred/2023-May-22-1902_sub9_nm5_bs15_s42_ex16_mel10_mts1000_k50_ec02_g099_lra9e-4_lrc1e-3/5f7ce1df4e505eeb6c5bd28a98530cf3f623dbf2_ligand_9.pdbqt
 14 15 0 0 0
SMALL
GASTEIGER

@<TRIPOS>ATOM
      1  C          5.5100    1.9200    1.2550 C.3     1  UNL1        0.0800
      2  C          5.0600    0.7090    1.9970 C.2     1  UNL1        0.1300
      3  C          5.9360   -0.4830    2.1500 C.3     1  UNL1        0.0870
      4  O          3.9500    0.6600    2.5030 O.2     1  UNL1       -0.3000
      5  C          5.3860    1.7260   -0.2430 C.3     1  UNL1        0.0430
      6  C          6.5580    1.0280   -0.8020 C.2     1  UNL1       -0.0440
      7  C          7.8620    1.4670   -0.5490 C.2     1  UNL1        0.0080
      8  C          6.3760   -0.0860   -1.5900 C.2     1  UNL1        0.0540
      9  C          8.9230    0.7700   -1.0990 C.2     1  UNL1        0.0510
     10  C          7.4510   -0.7860   -2.1440 C.2     1  UNL1        0.1660
     11  C          8.7350   -0.3550   -1.8970 C.2     1  UNL1        0.1650
     12  O          7.5310   -1.9030   -2.9480 O.2     1  UNL1       -0.4540
     13  O          9.5860   -1.2250   -2.5610 O.2     1  UNL1       -0.4540
     14  C          8.8680   -2.2740   -3.1650 C.3     1  UNL1        0.4680
@<TRIPOS>BOND
     1    14    12    1
     2    14    13    1
     3    12    10    1
     4    13    11    1
     5    10    11    2
     6    10     8    1
     7    11     9    1
     8     8     6    2
     9     9     7    2
    10     6     7    1
    11     6     5    1
    12     5     1    1
    13     1     2    1
    14     2     3    1
    15     2     4    2
