@<TRIPOS>MOLECULE
/home/cewinharhar/GITHUB/reincatalyze/data/processed/docking_pred/2023-May-22-1902_sub9_nm5_bs15_s42_ex16_mel10_mts1000_k50_ec02_g099_lra9e-4_lrc1e-3/5f7ce1df4e505eeb6c5bd28a98530cf3f623dbf2_ligand_9.pdbqt
 14 15 0 0 0
SMALL
GASTEIGER

@<TRIPOS>ATOM
      1  C          5.5140    2.8700    0.2350 C.3     1  UNL1        0.0800
      2  C          6.3270    3.8380    1.0220 C.2     1  UNL1        0.1300
      3  C          7.2860    4.7670    0.3660 C.3     1  UNL1        0.0870
      4  O          6.2280    3.8980    2.2370 O.2     1  UNL1       -0.3000
      5  C          5.7960    1.4420    0.6590 C.3     1  UNL1        0.0430
      6  C          6.8170    0.8090   -0.1950 C.2     1  UNL1       -0.0440
      7  C          8.0780    1.3860   -0.3800 C.2     1  UNL1        0.0080
      8  C          6.5340   -0.3800   -0.8290 C.2     1  UNL1        0.0540
      9  C          8.9960    0.7460   -1.1920 C.2     1  UNL1        0.0510
     10  C          7.4660   -1.0230   -1.6490 C.2     1  UNL1        0.1660
     11  C          8.7070   -0.4550   -1.8320 C.2     1  UNL1        0.1650
     12  O          7.4270   -2.1920   -2.3780 O.2     1  UNL1       -0.4540
     13  O          9.4120   -1.2970   -2.6780 O.2     1  UNL1       -0.4540
     14  C          8.6700   -2.4550   -2.9760 C.3     1  UNL1        0.4680
@<TRIPOS>BOND
     1    14    13    1
     2    14    12    1
     3    13    11    1
     4    12    10    1
     5    11    10    2
     6    11     9    1
     7    10     8    1
     8     9     7    2
     9     8     6    2
    10     7     6    1
    11     6     5    1
    12     1     5    1
    13     1     2    1
    14     3     2    1
    15     2     4    2
