@<TRIPOS>MOLECULE
/home/cewinharhar/GITHUB/reincatalyze/data/processed/docking_pred/2023-May-22-1902_sub9_nm5_bs15_s42_ex16_mel10_mts1000_k50_ec02_g099_lra9e-4_lrc1e-3/6047b5c71b47d2a809e14c46b0582b8ae3076bc9_ligand_9.pdbqt
 14 15 0 0 0
SMALL
GASTEIGER

@<TRIPOS>ATOM
      1  C          5.4330    2.8970    0.3260 C.3     1  UNL1        0.0800
      2  C          6.1630    3.9750    1.0510 C.2     1  UNL1        0.1300
      3  C          7.2320    4.7730    0.3940 C.3     1  UNL1        0.0870
      4  O          5.9030    4.2340    2.2150 O.2     1  UNL1       -0.3000
      5  C          5.8350    1.5250    0.8290 C.3     1  UNL1        0.0430
      6  C          6.8020    0.8740   -0.0720 C.2     1  UNL1       -0.0440
      7  C          8.0560    1.4380   -0.3330 C.2     1  UNL1        0.0080
      8  C          6.4760   -0.3190   -0.6760 C.2     1  UNL1        0.0540
      9  C          8.9230    0.7810   -1.1870 C.2     1  UNL1        0.0510
     10  C          7.3560   -0.9800   -1.5380 C.2     1  UNL1        0.1660
     11  C          8.5900   -0.4250   -1.7960 C.2     1  UNL1        0.1650
     12  O          7.2670   -2.1570   -2.2500 O.2     1  UNL1       -0.4540
     13  O          9.2400   -1.2820   -2.6700 O.2     1  UNL1       -0.4540
     14  C          8.4740   -2.4380   -2.9130 C.3     1  UNL1        0.4680
@<TRIPOS>BOND
     1    14    13    1
     2    14    12    1
     3    13    11    1
     4    12    10    1
     5    11    10    2
     6    11     9    1
     7    10     8    1
     8     9     7    2
     9     8     6    2
    10     7     6    1
    11     6     5    1
    12     1     5    1
    13     1     2    1
    14     3     2    1
    15     2     4    2
