@<TRIPOS>MOLECULE
/home/cewinharhar/GITHUB/reincatalyze/data/processed/docking_pred/2023-May-22-1902_sub9_nm5_bs15_s42_ex16_mel10_mts1000_k50_ec02_g099_lra9e-4_lrc1e-3/6047b5c71b47d2a809e14c46b0582b8ae3076bc9_ligand_9.pdbqt
 14 15 0 0 0
SMALL
GASTEIGER

@<TRIPOS>ATOM
      1  C          5.5470    1.9120    1.2790 C.3     1  UNL1        0.0800
      2  C          5.1230    0.6870    2.0140 C.2     1  UNL1        0.1300
      3  C          6.0350   -0.4760    2.1840 C.3     1  UNL1        0.0870
      4  O          4.0070    0.6030    2.5010 O.2     1  UNL1       -0.3000
      5  C          5.4160    1.7270   -0.2200 C.3     1  UNL1        0.0430
      6  C          6.5800    1.0230   -0.7870 C.2     1  UNL1       -0.0440
      7  C          7.8890    1.4500   -0.5350 C.2     1  UNL1        0.0080
      8  C          6.3870   -0.0830   -1.5830 C.2     1  UNL1        0.0540
      9  C          8.9420    0.7500   -1.0940 C.2     1  UNL1        0.0510
     10  C          7.4550   -0.7880   -2.1460 C.2     1  UNL1        0.1660
     11  C          8.7440   -0.3680   -1.8990 C.2     1  UNL1        0.1650
     12  O          7.5240   -1.8990   -2.9590 O.2     1  UNL1       -0.4540
     13  O          9.5850   -1.2390   -2.5720 O.2     1  UNL1       -0.4540
     14  C          8.8580   -2.2790   -3.1830 C.3     1  UNL1        0.4680
@<TRIPOS>BOND
     1    14    12    1
     2    14    13    1
     3    12    10    1
     4    13    11    1
     5    10    11    2
     6    10     8    1
     7    11     9    1
     8     8     6    2
     9     9     7    2
    10     6     7    1
    11     6     5    1
    12     5     1    1
    13     1     2    1
    14     2     3    1
    15     2     4    2
