@<TRIPOS>MOLECULE
/home/cewinharhar/GITHUB/reincatalyze/data/processed/docking_pred/2023-May-22-1902_sub9_nm5_bs15_s42_ex16_mel10_mts1000_k50_ec02_g099_lra9e-4_lrc1e-3/6047b5c71b47d2a809e14c46b0582b8ae3076bc9_ligand_9.pdbqt
 14 15 0 0 0
SMALL
GASTEIGER

@<TRIPOS>ATOM
      1  C          5.4750    2.8980    0.3480 C.3     1  UNL1        0.0800
      2  C          6.2980    3.8900    1.0950 C.2     1  UNL1        0.1300
      3  C          7.2730    4.7750    0.4030 C.3     1  UNL1        0.0870
      4  O          6.1950    4.0050    2.3060 O.2     1  UNL1       -0.3000
      5  C          5.3320    1.6050    1.1260 C.3     1  UNL1        0.0430
      6  C          6.1120    0.5120    0.5190 C.2     1  UNL1       -0.0440
      7  C          6.5040   -0.6080    1.2600 C.2     1  UNL1        0.0080
      8  C          6.4670    0.5840   -0.8090 C.2     1  UNL1        0.0540
      9  C          7.2350   -1.6030    0.6360 C.2     1  UNL1        0.0510
     10  C          7.2050   -0.4250   -1.4350 C.2     1  UNL1        0.1660
     11  C          7.5920   -1.5270   -0.7060 C.2     1  UNL1        0.1650
     12  O          7.6750   -0.5850   -2.7210 O.2     1  UNL1       -0.4540
     13  O          8.2990   -2.3510   -1.5690 O.2     1  UNL1       -0.4540
     14  C          8.2980   -1.8340   -2.8790 C.3     1  UNL1        0.4680
@<TRIPOS>BOND
     1    14    12    1
     2    14    13    1
     3    12    10    1
     4    13    11    1
     5    10     8    1
     6    10    11    2
     7     8     6    2
     8    11     9    1
     9     1     2    1
    10     1     5    1
    11     3     2    1
    12     6     5    1
    13     6     7    1
    14     9     7    2
    15     2     4    2
