@<TRIPOS>MOLECULE
/home/cewinharhar/GITHUB/reincatalyze/data/processed/docking_pred/2023-May-22-1902_sub9_nm5_bs15_s42_ex16_mel10_mts1000_k50_ec02_g099_lra9e-4_lrc1e-3/62f66f9004302081042513b5faa006f3d97c65a4_ligand_9.pdbqt
 14 15 0 0 0
SMALL
GASTEIGER

@<TRIPOS>ATOM
      1  C          6.4290    0.9790    1.0490 C.3     1  UNL1        0.0800
      2  C          5.1780    1.7690    0.8760 C.2     1  UNL1        0.1300
      3  C          4.9100    2.5450   -0.3650 C.3     1  UNL1        0.0870
      4  O          4.3320    1.8040    1.7540 O.2     1  UNL1       -0.3000
      5  C          7.3500    1.1370   -0.1440 C.3     1  UNL1        0.0430
      6  C          7.6440   -0.1580   -0.7830 C.2     1  UNL1       -0.0440
      7  C          7.5840   -0.3200   -2.1720 C.2     1  UNL1        0.0080
      8  C          7.9880   -1.2400   -0.0060 C.2     1  UNL1        0.0540
      9  C          7.8710   -1.5590   -2.7160 C.2     1  UNL1        0.0510
     10  C          8.2780   -2.4900   -0.5600 C.2     1  UNL1        0.1660
     11  C          8.2180   -2.6510   -1.9270 C.2     1  UNL1        0.1650
     12  O          8.6380   -3.7020   -0.0100 O.2     1  UNL1       -0.4540
     13  O          8.5480   -3.9710   -2.1900 O.2     1  UNL1       -0.4540
     14  C          8.9100   -4.6490   -1.0100 C.3     1  UNL1        0.4680
@<TRIPOS>BOND
     1     9     7    1
     2     9    11    2
     3    13    11    1
     4    13    14    1
     5     7     6    2
     6    11    10    1
     7    14    12    1
     8     6     5    1
     9     6     8    1
    10    10    12    1
    11    10     8    2
    12     3     2    1
    13     5     1    1
    14     2     1    1
    15     2     4    2
