@<TRIPOS>MOLECULE
/home/cewinharhar/GITHUB/reincatalyze/data/processed/docking_pred/2023-May-22-1902_sub9_nm5_bs15_s42_ex16_mel10_mts1000_k50_ec02_g099_lra9e-4_lrc1e-3/64ade7361adfbcba1ebdf367c3e16aacabd62181_ligand_9.pdbqt
 14 15 0 0 0
SMALL
GASTEIGER

@<TRIPOS>ATOM
      1  C          8.3900   -6.1800   10.3580 C.3     1  UNL1        0.0800
      2  C          7.9600   -4.8890   10.9640 C.2     1  UNL1        0.1300
      3  C          7.9410   -4.6860   12.4380 C.3     1  UNL1        0.0870
      4  O          7.6070   -3.9540   10.2630 O.2     1  UNL1       -0.3000
      5  C          8.9300   -7.1290   11.4090 C.3     1  UNL1        0.0430
      6  C         10.3240   -7.5180   11.1290 C.2     1  UNL1       -0.0440
      7  C         10.6470   -8.7980   10.6630 C.2     1  UNL1        0.0080
      8  C         11.3390   -6.6100   11.3240 C.2     1  UNL1        0.0540
      9  C         11.9730   -9.1070   10.4160 C.2     1  UNL1        0.0510
     10  C         12.6770   -6.9270   11.0730 C.2     1  UNL1        0.1660
     11  C         12.9960   -8.1860   10.6160 C.2     1  UNL1        0.1650
     12  O         13.8500   -6.2110   11.1870 O.2     1  UNL1       -0.4540
     13  O         14.3730   -8.2170   10.4560 O.2     1  UNL1       -0.4540
     14  C         14.9440   -6.9570   10.7200 C.3     1  UNL1        0.4680
@<TRIPOS>BOND
     1     4     2    2
     2     1     2    1
     3     1     5    1
     4     9    11    2
     5     9     7    1
     6    13    11    1
     7    13    14    1
     8    11    10    1
     9     7     6    2
    10    14    12    1
    11     2     3    1
    12    10    12    1
    13    10     8    2
    14     6     8    1
    15     6     5    1
