@<TRIPOS>MOLECULE
/home/cewinharhar/GITHUB/reincatalyze/data/processed/docking_pred/2023-May-22-1902_sub9_nm5_bs15_s42_ex16_mel10_mts1000_k50_ec02_g099_lra9e-4_lrc1e-3/64ade7361adfbcba1ebdf367c3e16aacabd62181_ligand_9.pdbqt
 14 15 0 0 0
SMALL
GASTEIGER

@<TRIPOS>ATOM
      1  C          8.2070   -5.1890   11.9640 C.3     1  UNL1        0.0800
      2  C          7.5230   -3.9490   11.5050 C.2     1  UNL1        0.1300
      3  C          6.7770   -3.0730   12.4480 C.3     1  UNL1        0.0870
      4  O          7.5540   -3.6130   10.3320 O.2     1  UNL1       -0.3000
      5  C          7.9930   -6.3300   10.9880 C.3     1  UNL1        0.0430
      6  C          8.9370   -7.4360   11.2260 C.2     1  UNL1       -0.0440
      7  C          8.6960   -8.4080   12.2040 C.2     1  UNL1        0.0080
      8  C         10.0850   -7.5280   10.4720 C.2     1  UNL1        0.0540
      9  C          9.6170   -9.4250   12.3810 C.2     1  UNL1        0.0510
     10  C         11.0130   -8.5580   10.6550 C.2     1  UNL1        0.1660
     11  C         10.7770   -9.5140   11.6180 C.2     1  UNL1        0.1650
     12  O         12.2100   -8.8630   10.0440 O.2     1  UNL1       -0.4540
     13  O         11.8450  -10.3960   11.5770 O.2     1  UNL1       -0.4540
     14  C         12.7310  -10.0720   10.5330 C.3     1  UNL1        0.4680
@<TRIPOS>BOND
     1    12    14    1
     2    12    10    1
     3     4     2    2
     4     8    10    1
     5     8     6    2
     6    14    13    1
     7    10    11    2
     8     5     6    1
     9     5     1    1
    10     6     7    1
    11     2     1    1
    12     2     3    1
    13    13    11    1
    14    11     9    1
    15     7     9    2
