@<TRIPOS>MOLECULE
/home/cewinharhar/GITHUB/reincatalyze/data/processed/docking_pred/2023-May-22-1902_sub9_nm5_bs15_s42_ex16_mel10_mts1000_k50_ec02_g099_lra9e-4_lrc1e-3/64ade7361adfbcba1ebdf367c3e16aacabd62181_ligand_9.pdbqt
 14 15 0 0 0
SMALL
GASTEIGER

@<TRIPOS>ATOM
      1  C          8.0810   -5.9700   11.6100 C.3     1  UNL1        0.0800
      2  C          8.3210   -4.5660   12.0470 C.2     1  UNL1        0.1300
      3  C          7.2420   -3.5420   12.0100 C.3     1  UNL1        0.0870
      4  O          9.4180   -4.2140   12.4490 O.2     1  UNL1       -0.3000
      5  C          8.7670   -6.2600   10.2890 C.3     1  UNL1        0.0430
      6  C          9.9700   -7.0920   10.4690 C.2     1  UNL1       -0.0440
      7  C          9.8850   -8.4800   10.6250 C.2     1  UNL1        0.0080
      8  C         11.2120   -6.5000   10.4830 C.2     1  UNL1        0.0540
      9  C         11.0480   -9.2100   10.7900 C.2     1  UNL1        0.0510
     10  C         12.3860   -7.2420   10.6490 C.2     1  UNL1        0.1660
     11  C         12.3030   -8.6080   10.8040 C.2     1  UNL1        0.1650
     12  O         13.7190   -6.8940   10.6980 O.2     1  UNL1       -0.4540
     13  O         13.6000   -9.0750   10.9460 O.2     1  UNL1       -0.4540
     14  C         14.5350   -8.0330   10.7940 C.3     1  UNL1        0.4680
@<TRIPOS>BOND
     1     5     6    1
     2     5     1    1
     3     6     8    2
     4     6     7    1
     5     8    10    1
     6     7     9    2
     7    10    12    1
     8    10    11    2
     9    12    14    1
    10     9    11    1
    11    14    13    1
    12    11    13    1
    13     1     2    1
    14     3     2    1
    15     2     4    2
