@<TRIPOS>MOLECULE
/home/cewinharhar/GITHUB/reincatalyze/data/processed/docking_pred/2023-May-22-1902_sub9_nm5_bs15_s42_ex16_mel10_mts1000_k50_ec02_g099_lra9e-4_lrc1e-3/64ade7361adfbcba1ebdf367c3e16aacabd62181_ligand_9.pdbqt
 14 15 0 0 0
SMALL
GASTEIGER

@<TRIPOS>ATOM
      1  C          9.2030   -6.6060   10.0810 C.3     1  UNL1        0.0800
      2  C          8.2710   -5.8390   10.9540 C.2     1  UNL1        0.1300
      3  C          7.6060   -6.4660   12.1270 C.3     1  UNL1        0.0870
      4  O          8.0240   -4.6650   10.7280 O.2     1  UNL1       -0.3000
      5  C         10.5320   -6.8450   10.7700 C.3     1  UNL1        0.0430
      6  C         10.8910   -8.2740   10.7830 C.2     1  UNL1       -0.0440
      7  C         10.0310   -9.2420   11.3140 C.2     1  UNL1        0.0080
      8  C         12.0990   -8.6780   10.2610 C.2     1  UNL1        0.0540
      9  C         10.4220  -10.5680   11.2980 C.2     1  UNL1        0.0510
     10  C         12.4890  -10.0210   10.2460 C.2     1  UNL1        0.1660
     11  C         11.6440  -10.9730   10.7690 C.2     1  UNL1        0.1650
     12  O         13.6200  -10.6660    9.7920 O.2     1  UNL1       -0.4540
     13  O         12.2790  -12.1970   10.6230 O.2     1  UNL1       -0.4540
     14  C         13.4940  -12.0580    9.9260 C.3     1  UNL1        0.4680
@<TRIPOS>BOND
     1    12    14    1
     2    12    10    1
     3    14    13    1
     4     1     5    1
     5     1     2    1
     6    10     8    1
     7    10    11    2
     8     8     6    2
     9    13    11    1
    10     4     2    2
    11    11     9    1
    12     5     6    1
    13     6     7    1
    14     2     3    1
    15     9     7    2
