@<TRIPOS>MOLECULE
/home/cewinharhar/GITHUB/reincatalyze/data/processed/docking_pred/2023-May-22-1902_sub9_nm5_bs15_s42_ex16_mel10_mts1000_k50_ec02_g099_lra9e-4_lrc1e-3/64ade7361adfbcba1ebdf367c3e16aacabd62181_ligand_9.pdbqt
 14 15 0 0 0
SMALL
GASTEIGER

@<TRIPOS>ATOM
      1  C          8.3220   -6.2520   10.3910 C.3     1  UNL1        0.0800
      2  C          8.0540   -4.9200   11.0020 C.2     1  UNL1        0.1300
      3  C          8.3240   -4.6520   12.4400 C.3     1  UNL1        0.0870
      4  O          7.6000   -4.0040   10.3350 O.2     1  UNL1       -0.3000
      5  C          8.9050   -7.2160   11.4050 C.3     1  UNL1        0.0430
      6  C         10.2260   -7.7180   10.9850 C.2     1  UNL1       -0.0440
      7  C         11.2680   -6.8460   10.6470 C.2     1  UNL1        0.0080
      8  C         10.4520   -9.0740   10.9220 C.2     1  UNL1        0.0540
      9  C         12.4860   -7.3750   10.2610 C.2     1  UNL1        0.0510
     10  C         11.6850   -9.6040   10.5320 C.2     1  UNL1        0.1660
     11  C         12.7110   -8.7470   10.1980 C.2     1  UNL1        0.1650
     12  O         12.1520  -10.8930   10.3900 O.2     1  UNL1       -0.4540
     13  O         13.7970   -9.5370    9.8560 O.2     1  UNL1       -0.4540
     14  C         13.5150  -10.9020   10.0520 C.3     1  UNL1        0.4680
@<TRIPOS>BOND
     1    13    14    1
     2    13    11    1
     3    14    12    1
     4    11     9    2
     5    11    10    1
     6     9     7    1
     7     4     2    2
     8    12    10    1
     9     1     2    1
    10     1     5    1
    11    10     8    2
    12     7     6    2
    13     8     6    1
    14     6     5    1
    15     2     3    1
