@<TRIPOS>MOLECULE
/home/cewinharhar/GITHUB/reincatalyze/data/processed/docking_pred/2023-May-22-1902_sub9_nm5_bs15_s42_ex16_mel10_mts1000_k50_ec02_g099_lra9e-4_lrc1e-3/650932a4c96e02f0afcc120cab6b741f416c7ae8_ligand_9.pdbqt
 14 15 0 0 0
SMALL
GASTEIGER

@<TRIPOS>ATOM
      1  C          5.4880    2.8910    0.2720 C.3     1  UNL1        0.0800
      2  C          6.3210    3.8420    1.0600 C.2     1  UNL1        0.1300
      3  C          7.2750    4.7750    0.4030 C.3     1  UNL1        0.0870
      4  O          6.2450    3.8810    2.2770 O.2     1  UNL1       -0.3000
      5  C          5.2680    1.5950    1.0260 C.3     1  UNL1        0.0430
      6  C          6.0700    0.4930    0.4640 C.2     1  UNL1       -0.0440
      7  C          6.4820   -0.5890    1.2510 C.2     1  UNL1        0.0080
      8  C          6.4260    0.5170   -0.8650 C.2     1  UNL1        0.0540
      9  C          7.2320   -1.5940    0.6690 C.2     1  UNL1        0.0510
     10  C          7.1840   -0.5020   -1.4490 C.2     1  UNL1        0.1660
     11  C          7.5910   -1.5660   -0.6750 C.2     1  UNL1        0.1650
     12  O          7.6590   -0.7060   -2.7270 O.2     1  UNL1       -0.4540
     13  O          8.3140   -2.4110   -1.5040 O.2     1  UNL1       -0.4540
     14  C          8.3050   -1.9480   -2.8330 C.3     1  UNL1        0.4680
@<TRIPOS>BOND
     1    14    12    1
     2    14    13    1
     3    12    10    1
     4    13    11    1
     5    10     8    1
     6    10    11    2
     7     8     6    2
     8    11     9    1
     9     1     5    1
    10     1     2    1
    11     3     2    1
    12     6     5    1
    13     6     7    1
    14     9     7    2
    15     2     4    2
