@<TRIPOS>MOLECULE
/home/cewinharhar/GITHUB/reincatalyze/data/processed/docking_pred/2023-May-22-1902_sub9_nm5_bs15_s42_ex16_mel10_mts1000_k50_ec02_g099_lra9e-4_lrc1e-3/650932a4c96e02f0afcc120cab6b741f416c7ae8_ligand_9.pdbqt
 14 15 0 0 0
SMALL
GASTEIGER

@<TRIPOS>ATOM
      1  C          5.4920    1.9270    1.2680 C.3     1  UNL1        0.0800
      2  C          5.0320    0.7120    1.9960 C.2     1  UNL1        0.1300
      3  C          5.8880   -0.4990    2.1140 C.3     1  UNL1        0.0870
      4  O          3.9300    0.6740    2.5200 O.2     1  UNL1       -0.3000
      5  C          5.3770    1.7460   -0.2320 C.3     1  UNL1        0.0430
      6  C          6.5480    1.0470   -0.7900 C.2     1  UNL1       -0.0440
      7  C          7.8530    1.4790   -0.5270 C.2     1  UNL1        0.0080
      8  C          6.3660   -0.0610   -1.5860 C.2     1  UNL1        0.0540
      9  C          8.9140    0.7820   -1.0770 C.2     1  UNL1        0.0510
     10  C          7.4420   -0.7620   -2.1390 C.2     1  UNL1        0.1660
     11  C          8.7260   -0.3370   -1.8820 C.2     1  UNL1        0.1650
     12  O          7.5210   -1.8740   -2.9500 O.2     1  UNL1       -0.4540
     13  O          9.5770   -1.2060   -2.5480 O.2     1  UNL1       -0.4540
     14  C          8.8580   -2.2490   -3.1630 C.3     1  UNL1        0.4680
@<TRIPOS>BOND
     1    14    12    1
     2    14    13    1
     3    12    10    1
     4    13    11    1
     5    10    11    2
     6    10     8    1
     7    11     9    1
     8     8     6    2
     9     9     7    2
    10     6     7    1
    11     6     5    1
    12     5     1    1
    13     1     2    1
    14     2     3    1
    15     2     4    2
