@<TRIPOS>MOLECULE
/home/cewinharhar/GITHUB/reincatalyze/data/processed/docking_pred/2023-May-22-1902_sub9_nm5_bs15_s42_ex16_mel10_mts1000_k50_ec02_g099_lra9e-4_lrc1e-3/650932a4c96e02f0afcc120cab6b741f416c7ae8_ligand_9.pdbqt
 14 15 0 0 0
SMALL
GASTEIGER

@<TRIPOS>ATOM
      1  C          5.7540    1.3460   -0.3530 C.3     1  UNL1        0.0800
      2  C          5.1240    1.3030    0.9960 C.2     1  UNL1        0.1300
      3  C          5.3770    0.1820    1.9400 C.3     1  UNL1        0.0870
      4  O          4.3770    2.1940    1.3670 O.2     1  UNL1       -0.3000
      5  C          7.2470    1.0990   -0.2720 C.3     1  UNL1        0.0430
      6  C          7.6210   -0.1950   -0.8710 C.2     1  UNL1       -0.0440
      7  C          7.7010   -0.3640   -2.2580 C.2     1  UNL1        0.0080
      8  C          7.9010   -1.2680   -0.0560 C.2     1  UNL1        0.0540
      9  C          8.0570   -1.6020   -2.7630 C.2     1  UNL1        0.0510
     10  C          8.2620   -2.5160   -0.5710 C.2     1  UNL1        0.1660
     11  C          8.3400   -2.6850   -1.9360 C.2     1  UNL1        0.1650
     12  O          8.5830   -3.7200    0.0200 O.2     1  UNL1       -0.4540
     13  O          8.7130   -4.0010   -2.1570 O.2     1  UNL1       -0.4540
     14  C          8.9650   -4.6680   -0.9430 C.3     1  UNL1        0.4680
@<TRIPOS>BOND
     1     9     7    1
     2     9    11    2
     3     7     6    2
     4    13    11    1
     5    13    14    1
     6    11    10    1
     7    14    12    1
     8     6     5    1
     9     6     8    1
    10    10     8    2
    11    10    12    1
    12     1     5    1
    13     1     2    1
    14     2     4    2
    15     2     3    1
