MODEL 1
REMARK VINA RESULT:      -7.8      0.000      0.000
REMARK SMILES CC(=O)CCc1ccc2c(c1)OCO2
REMARK SMILES IDX 4 1 2 2 1 3 3 4 5 5 6 6 7 7 11 8 8 9 10 10 9 11 12 12 14 13
REMARK SMILES IDX 13 14
REMARK H PARENT
REMARK Flexibility Score: inf
ROOT
ATOM      1  C   UNL     1       5.488   2.891   0.272  1.00  0.00     0.080 C 
ENDROOT
BRANCH   1   2
ATOM      2  C   UNL     1       6.321   3.842   1.060  1.00  0.00     0.130 C 
ATOM      3  C   UNL     1       7.275   4.775   0.403  1.00  0.00     0.087 C 
ATOM      4  O   UNL     1       6.245   3.881   2.277  1.00  0.00    -0.300 OA
ENDBRANCH   1   2
BRANCH   1   5
ATOM      5  C   UNL     1       5.268   1.595   1.026  1.00  0.00     0.043 C 
BRANCH   5   6
ATOM      6  C   UNL     1       6.070   0.493   0.464  1.00  0.00    -0.044 A 
ATOM      7  C   UNL     1       6.482  -0.589   1.251  1.00  0.00     0.008 A 
ATOM      8  C   UNL     1       6.426   0.517  -0.865  1.00  0.00     0.054 A 
ATOM      9  C   UNL     1       7.232  -1.594   0.669  1.00  0.00     0.051 A 
ATOM     10  C   UNL     1       7.184  -0.502  -1.449  1.00  0.00     0.166 A 
ATOM     11  C   UNL     1       7.591  -1.566  -0.675  1.00  0.00     0.165 A 
ATOM     12  O   UNL     1       7.659  -0.706  -2.727  1.00  0.00    -0.454 OA
ATOM     13  O   UNL     1       8.314  -2.411  -1.504  1.00  0.00    -0.454 OA
ATOM     14  C   UNL     1       8.305  -1.948  -2.833  1.00  0.00     0.468 C 
ENDBRANCH   5   6
ENDBRANCH   1   5
TORSDOF 3
ENDMDL
MODEL 2
REMARK VINA RESULT:      -7.8      0.994      1.983
REMARK SMILES CC(=O)CCc1ccc2c(c1)OCO2
REMARK SMILES IDX 4 1 2 2 1 3 3 4 5 5 6 6 7 7 11 8 8 9 10 10 9 11 12 12 14 13
REMARK SMILES IDX 13 14
REMARK H PARENT
REMARK Flexibility Score: inf
ROOT
ATOM      1  C   UNL     1       5.378   2.984   0.174  1.00  0.00     0.080 C 
ENDROOT
BRANCH   1   2
ATOM      2  C   UNL     1       6.239   3.871   1.005  1.00  0.00     0.130 C 
ATOM      3  C   UNL     1       7.249   4.775   0.393  1.00  0.00     0.087 C 
ATOM      4  O   UNL     1       6.140   3.880   2.221  1.00  0.00    -0.300 OA
ENDBRANCH   1   2
BRANCH   1   5
ATOM      5  C   UNL     1       5.130   1.656   0.861  1.00  0.00     0.043 C 
BRANCH   5   6
ATOM      6  C   UNL     1       5.987   0.589   0.313  1.00  0.00    -0.044 A 
ATOM      7  C   UNL     1       6.453   0.628  -1.006  1.00  0.00     0.008 A 
ATOM      8  C   UNL     1       6.346  -0.475   1.110  1.00  0.00     0.054 A 
ATOM      9  C   UNL     1       7.255  -0.401  -1.465  1.00  0.00     0.051 A 
ATOM     10  C   UNL     1       7.157  -1.512   0.642  1.00  0.00     0.166 A 
ATOM     11  C   UNL     1       7.615  -1.475  -0.657  1.00  0.00     0.165 A 
ATOM     12  O   UNL     1       7.645  -2.661   1.227  1.00  0.00    -0.454 OA
ATOM     13  O   UNL     1       8.384  -2.613  -0.843  1.00  0.00    -0.454 OA
ATOM     14  C   UNL     1       8.505  -3.347   0.353  1.00  0.00     0.468 C 
ENDBRANCH   5   6
ENDBRANCH   1   5
TORSDOF 3
ENDMDL
MODEL 3
REMARK VINA RESULT:      -7.7      1.907      2.659
REMARK SMILES CC(=O)CCc1ccc2c(c1)OCO2
REMARK SMILES IDX 4 1 2 2 1 3 3 4 5 5 6 6 7 7 11 8 8 9 10 10 9 11 12 12 14 13
REMARK SMILES IDX 13 14
REMARK H PARENT
REMARK Flexibility Score: inf
ROOT
ATOM      1  C   UNL     1       5.492   1.927   1.268  1.00  0.00     0.080 C 
ENDROOT
BRANCH   1   2
ATOM      2  C   UNL     1       5.032   0.712   1.996  1.00  0.00     0.130 C 
ATOM      3  C   UNL     1       5.888  -0.499   2.114  1.00  0.00     0.087 C 
ATOM      4  O   UNL     1       3.930   0.674   2.520  1.00  0.00    -0.300 OA
ENDBRANCH   1   2
BRANCH   1   5
ATOM      5  C   UNL     1       5.377   1.746  -0.232  1.00  0.00     0.043 C 
BRANCH   5   6
ATOM      6  C   UNL     1       6.548   1.047  -0.790  1.00  0.00    -0.044 A 
ATOM      7  C   UNL     1       7.853   1.479  -0.527  1.00  0.00     0.008 A 
ATOM      8  C   UNL     1       6.366  -0.061  -1.586  1.00  0.00     0.054 A 
ATOM      9  C   UNL     1       8.914   0.782  -1.077  1.00  0.00     0.051 A 
ATOM     10  C   UNL     1       7.442  -0.762  -2.139  1.00  0.00     0.166 A 
ATOM     11  C   UNL     1       8.726  -0.337  -1.882  1.00  0.00     0.165 A 
ATOM     12  O   UNL     1       7.521  -1.874  -2.950  1.00  0.00    -0.454 OA
ATOM     13  O   UNL     1       9.577  -1.206  -2.548  1.00  0.00    -0.454 OA
ATOM     14  C   UNL     1       8.858  -2.249  -3.163  1.00  0.00     0.468 C 
ENDBRANCH   5   6
ENDBRANCH   1   5
TORSDOF 3
ENDMDL
MODEL 4
REMARK VINA RESULT:      -7.5      1.982      3.038
REMARK SMILES CC(=O)CCc1ccc2c(c1)OCO2
REMARK SMILES IDX 4 1 2 2 1 3 3 4 5 5 6 6 7 7 11 8 8 9 10 10 9 11 12 12 14 13
REMARK SMILES IDX 13 14
REMARK H PARENT
REMARK Flexibility Score: inf
ROOT
ATOM      1  C   UNL     1       5.754   1.346  -0.353  1.00  0.00     0.080 C 
ENDROOT
BRANCH   1   2
ATOM      2  C   UNL     1       5.124   1.303   0.996  1.00  0.00     0.130 C 
ATOM      3  C   UNL     1       5.377   0.182   1.940  1.00  0.00     0.087 C 
ATOM      4  O   UNL     1       4.377   2.194   1.367  1.00  0.00    -0.300 OA
ENDBRANCH   1   2
BRANCH   1   5
ATOM      5  C   UNL     1       7.247   1.099  -0.272  1.00  0.00     0.043 C 
BRANCH   5   6
ATOM      6  C   UNL     1       7.621  -0.195  -0.871  1.00  0.00    -0.044 A 
ATOM      7  C   UNL     1       7.701  -0.364  -2.258  1.00  0.00     0.008 A 
ATOM      8  C   UNL     1       7.901  -1.268  -0.056  1.00  0.00     0.054 A 
ATOM      9  C   UNL     1       8.057  -1.602  -2.763  1.00  0.00     0.051 A 
ATOM     10  C   UNL     1       8.262  -2.516  -0.571  1.00  0.00     0.166 A 
ATOM     11  C   UNL     1       8.340  -2.685  -1.936  1.00  0.00     0.165 A 
ATOM     12  O   UNL     1       8.583  -3.720   0.020  1.00  0.00    -0.454 OA
ATOM     13  O   UNL     1       8.713  -4.001  -2.157  1.00  0.00    -0.454 OA
ATOM     14  C   UNL     1       8.965  -4.668  -0.943  1.00  0.00     0.468 C 
ENDBRANCH   5   6
ENDBRANCH   1   5
TORSDOF 3
ENDMDL
MODEL 5
REMARK VINA RESULT:      -7.5      1.831      2.831
REMARK SMILES CC(=O)CCc1ccc2c(c1)OCO2
REMARK SMILES IDX 4 1 2 2 1 3 3 4 5 5 6 6 7 7 11 8 8 9 10 10 9 11 12 12 14 13
REMARK SMILES IDX 13 14
REMARK H PARENT
REMARK Flexibility Score: inf
ROOT
ATOM      1  C   UNL     1       6.164   0.792   1.080  1.00  0.00     0.080 C 
ENDROOT
BRANCH   1   2
ATOM      2  C   UNL     1       5.019   1.736   0.947  1.00  0.00     0.130 C 
ATOM      3  C   UNL     1       4.889   2.645  -0.223  1.00  0.00     0.087 C 
ATOM      4  O   UNL     1       4.150   1.791   1.801  1.00  0.00    -0.300 OA
ENDBRANCH   1   2
BRANCH   1   5
ATOM      5  C   UNL     1       7.188   1.010  -0.016  1.00  0.00     0.043 C 
BRANCH   5   6
ATOM      6  C   UNL     1       7.544  -0.251  -0.690  1.00  0.00    -0.044 A 
ATOM      7  C   UNL     1       7.539  -0.364  -2.085  1.00  0.00     0.008 A 
ATOM      8  C   UNL     1       7.894  -1.351   0.061  1.00  0.00     0.054 A 
ATOM      9  C   UNL     1       7.883  -1.572  -2.662  1.00  0.00     0.051 A 
ATOM     10  C   UNL     1       8.242  -2.570  -0.527  1.00  0.00     0.166 A 
ATOM     11  C   UNL     1       8.236  -2.682  -1.900  1.00  0.00     0.165 A 
ATOM     12  O   UNL     1       8.620  -3.790  -0.007  1.00  0.00    -0.454 OA
ATOM     13  O   UNL     1       8.616  -3.982  -2.197  1.00  0.00    -0.454 OA
ATOM     14  C   UNL     1       8.956  -4.692  -1.031  1.00  0.00     0.468 C 
ENDBRANCH   5   6
ENDBRANCH   1   5
TORSDOF 3
ENDMDL
