@<TRIPOS>MOLECULE
/home/cewinharhar/GITHUB/reincatalyze/data/processed/docking_pred/2023-May-22-1902_sub9_nm5_bs15_s42_ex16_mel10_mts1000_k50_ec02_g099_lra9e-4_lrc1e-3/650932a4c96e02f0afcc120cab6b741f416c7ae8_ligand_9.pdbqt
 14 15 0 0 0
SMALL
GASTEIGER

@<TRIPOS>ATOM
      1  C          6.1640    0.7920    1.0800 C.3     1  UNL1        0.0800
      2  C          5.0190    1.7360    0.9470 C.2     1  UNL1        0.1300
      3  C          4.8890    2.6450   -0.2230 C.3     1  UNL1        0.0870
      4  O          4.1500    1.7910    1.8010 O.2     1  UNL1       -0.3000
      5  C          7.1880    1.0100   -0.0160 C.3     1  UNL1        0.0430
      6  C          7.5440   -0.2510   -0.6900 C.2     1  UNL1       -0.0440
      7  C          7.5390   -0.3640   -2.0850 C.2     1  UNL1        0.0080
      8  C          7.8940   -1.3510    0.0610 C.2     1  UNL1        0.0540
      9  C          7.8830   -1.5720   -2.6620 C.2     1  UNL1        0.0510
     10  C          8.2420   -2.5700   -0.5270 C.2     1  UNL1        0.1660
     11  C          8.2360   -2.6820   -1.9000 C.2     1  UNL1        0.1650
     12  O          8.6200   -3.7900   -0.0070 O.2     1  UNL1       -0.4540
     13  O          8.6160   -3.9820   -2.1970 O.2     1  UNL1       -0.4540
     14  C          8.9560   -4.6920   -1.0310 C.3     1  UNL1        0.4680
@<TRIPOS>BOND
     1     9     7    1
     2     9    11    2
     3    13    11    1
     4    13    14    1
     5     7     6    2
     6    11    10    1
     7    14    12    1
     8     6     5    1
     9     6     8    1
    10    10    12    1
    11    10     8    2
    12     3     2    1
    13     5     1    1
    14     2     1    1
    15     2     4    2
