MODEL 1
REMARK VINA RESULT:      -7.5      0.000      0.000
REMARK SMILES CC(=O)CCc1ccc2c(c1)OCO2
REMARK SMILES IDX 4 1 2 2 1 3 3 4 5 5 6 6 7 7 11 8 8 9 10 10 9 11 12 12 14 13
REMARK SMILES IDX 13 14
REMARK H PARENT
REMARK Flexibility Score: inf
ROOT
ATOM      1  C   UNL     1       5.741   3.111   0.270  1.00  0.00     0.080 C 
ENDROOT
BRANCH   1   2
ATOM      2  C   UNL     1       6.603   3.694   1.336  1.00  0.00     0.130 C 
ATOM      3  C   UNL     1       8.066   3.432   1.387  1.00  0.00     0.087 C 
ATOM      4  O   UNL     1       6.128   4.407   2.205  1.00  0.00    -0.300 OA
ENDBRANCH   1   2
BRANCH   1   5
ATOM      5  C   UNL     1       5.141   1.789   0.707  1.00  0.00     0.043 C 
BRANCH   5   6
ATOM      6  C   UNL     1       5.948   0.644   0.248  1.00  0.00    -0.044 A 
ATOM      7  C   UNL     1       6.238  -0.434   1.092  1.00  0.00     0.008 A 
ATOM      8  C   UNL     1       6.430   0.623  -1.041  1.00  0.00     0.054 A 
ATOM      9  C   UNL     1       6.999  -1.481   0.605  1.00  0.00     0.051 A 
ATOM     10  C   UNL     1       7.198  -0.438  -1.529  1.00  0.00     0.166 A 
ATOM     11  C   UNL     1       7.485  -1.499  -0.699  1.00  0.00     0.165 A 
ATOM     12  O   UNL     1       7.785  -0.690  -2.751  1.00  0.00    -0.454 OA
ATOM     13  O   UNL     1       8.250  -2.389  -1.436  1.00  0.00    -0.454 OA
ATOM     14  C   UNL     1       8.387  -1.959  -2.769  1.00  0.00     0.468 C 
ENDBRANCH   5   6
ENDBRANCH   1   5
TORSDOF 3
ENDMDL
MODEL 2
REMARK VINA RESULT:      -7.3      1.393      1.735
REMARK SMILES CC(=O)CCc1ccc2c(c1)OCO2
REMARK SMILES IDX 4 1 2 2 1 3 3 4 5 5 6 6 7 7 11 8 8 9 10 10 9 11 12 12 14 13
REMARK SMILES IDX 13 14
REMARK H PARENT
REMARK Flexibility Score: inf
ROOT
ATOM      1  C   UNL     1       6.266   3.540   0.119  1.00  0.00     0.080 C 
ENDROOT
BRANCH   1   2
ATOM      2  C   UNL     1       6.668   3.922   1.501  1.00  0.00     0.130 C 
ATOM      3  C   UNL     1       7.982   3.519   2.071  1.00  0.00     0.087 C 
ATOM      4  O   UNL     1       5.925   4.580   2.211  1.00  0.00    -0.300 OA
ENDBRANCH   1   2
BRANCH   1   5
ATOM      5  C   UNL     1       5.185   2.478   0.134  1.00  0.00     0.043 C 
BRANCH   5   6
ATOM      6  C   UNL     1       5.711   1.168   0.559  1.00  0.00    -0.044 A 
ATOM      7  C   UNL     1       5.251   0.535   1.720  1.00  0.00     0.008 A 
ATOM      8  C   UNL     1       6.676   0.543  -0.197  1.00  0.00     0.054 A 
ATOM      9  C   UNL     1       5.781  -0.694   2.069  1.00  0.00     0.051 A 
ATOM     10  C   UNL     1       7.208  -0.700   0.160  1.00  0.00     0.166 A 
ATOM     11  C   UNL     1       6.757  -1.323   1.302  1.00  0.00     0.165 A 
ATOM     12  O   UNL     1       8.160  -1.514  -0.415  1.00  0.00    -0.454 OA
ATOM     13  O   UNL     1       7.448  -2.520   1.405  1.00  0.00    -0.454 OA
ATOM     14  C   UNL     1       8.282  -2.723   0.290  1.00  0.00     0.468 C 
ENDBRANCH   5   6
ENDBRANCH   1   5
TORSDOF 3
ENDMDL
MODEL 3
REMARK VINA RESULT:      -7.3      0.999      1.988
REMARK SMILES CC(=O)CCc1ccc2c(c1)OCO2
REMARK SMILES IDX 4 1 2 2 1 3 3 4 5 5 6 6 7 7 11 8 8 9 10 10 9 11 12 12 14 13
REMARK SMILES IDX 13 14
REMARK H PARENT
REMARK Flexibility Score: inf
ROOT
ATOM      1  C   UNL     1       5.770   3.278   0.204  1.00  0.00     0.080 C 
ENDROOT
BRANCH   1   2
ATOM      2  C   UNL     1       6.662   3.687   1.324  1.00  0.00     0.130 C 
ATOM      3  C   UNL     1       8.117   3.375   1.318  1.00  0.00     0.087 C 
ATOM      4  O   UNL     1       6.222   4.294   2.287  1.00  0.00    -0.300 OA
ENDBRANCH   1   2
BRANCH   1   5
ATOM      5  C   UNL     1       5.095   1.952   0.494  1.00  0.00     0.043 C 
BRANCH   5   6
ATOM      6  C   UNL     1       5.923   0.811   0.064  1.00  0.00    -0.044 A 
ATOM      7  C   UNL     1       6.373   0.688  -1.256  1.00  0.00     0.008 A 
ATOM      8  C   UNL     1       6.271  -0.162   0.974  1.00  0.00     0.054 A 
ATOM      9  C   UNL     1       7.148  -0.403  -1.602  1.00  0.00     0.051 A 
ATOM     10  C   UNL     1       7.055  -1.263   0.619  1.00  0.00     0.166 A 
ATOM     11  C   UNL     1       7.497  -1.385  -0.680  1.00  0.00     0.165 A 
ATOM     12  O   UNL     1       7.527  -2.348   1.327  1.00  0.00    -0.454 OA
ATOM     13  O   UNL     1       8.240  -2.554  -0.742  1.00  0.00    -0.454 OA
ATOM     14  C   UNL     1       8.361  -3.147   0.529  1.00  0.00     0.468 C 
ENDBRANCH   5   6
ENDBRANCH   1   5
TORSDOF 3
ENDMDL
MODEL 4
REMARK VINA RESULT:      -7.1      1.520      5.316
REMARK SMILES CC(=O)CCc1ccc2c(c1)OCO2
REMARK SMILES IDX 4 1 2 2 1 3 3 4 5 5 6 6 7 7 11 8 8 9 10 10 9 11 12 12 14 13
REMARK SMILES IDX 13 14
REMARK H PARENT
REMARK Flexibility Score: inf
ROOT
ATOM      1  C   UNL     1       7.043  -1.386  -0.894  1.00  0.00     0.080 C 
ENDROOT
BRANCH   1   2
ATOM      2  C   UNL     1       7.576  -1.707   0.459  1.00  0.00     0.130 C 
ATOM      3  C   UNL     1       6.703  -1.707   1.663  1.00  0.00     0.087 C 
ATOM      4  O   UNL     1       8.755  -1.980   0.619  1.00  0.00    -0.300 OA
ENDBRANCH   1   2
BRANCH   1   5
ATOM      5  C   UNL     1       7.559  -0.049  -1.387  1.00  0.00     0.043 C 
BRANCH   5   6
ATOM      6  C   UNL     1       7.020   1.070  -0.593  1.00  0.00    -0.044 A 
ATOM      7  C   UNL     1       5.648   1.342  -0.546  1.00  0.00     0.008 A 
ATOM      8  C   UNL     1       7.878   1.872   0.125  1.00  0.00     0.054 A 
ATOM      9  C   UNL     1       5.200   2.406   0.216  1.00  0.00     0.051 A 
ATOM     10  C   UNL     1       7.420   2.946   0.895  1.00  0.00     0.166 A 
ATOM     11  C   UNL     1       6.070   3.215   0.941  1.00  0.00     0.165 A 
ATOM     12  O   UNL     1       8.061   3.876   1.685  1.00  0.00    -0.454 OA
ATOM     13  O   UNL     1       5.909   4.315   1.767  1.00  0.00    -0.454 OA
ATOM     14  C   UNL     1       7.136   4.711   2.333  1.00  0.00     0.468 C 
ENDBRANCH   5   6
ENDBRANCH   1   5
TORSDOF 3
ENDMDL
MODEL 5
REMARK VINA RESULT:      -7.1      3.173      4.272
REMARK SMILES CC(=O)CCc1ccc2c(c1)OCO2
REMARK SMILES IDX 4 1 2 2 1 3 3 4 5 5 6 6 7 7 11 8 8 9 10 10 9 11 12 12 14 13
REMARK SMILES IDX 13 14
REMARK H PARENT
REMARK Flexibility Score: inf
ROOT
ATOM      1  C   UNL     1       5.718   1.208  -0.461  1.00  0.00     0.080 C 
ENDROOT
BRANCH   1   2
ATOM      2  C   UNL     1       5.320   2.309   0.460  1.00  0.00     0.130 C 
ATOM      3  C   UNL     1       6.017   3.623   0.454  1.00  0.00     0.087 C 
ATOM      4  O   UNL     1       4.402   2.163   1.251  1.00  0.00    -0.300 OA
ENDBRANCH   1   2
BRANCH   1   5
ATOM      5  C   UNL     1       6.472   0.120   0.277  1.00  0.00     0.043 C 
BRANCH   5   6
ATOM      6  C   UNL     1       7.867   0.510   0.550  1.00  0.00    -0.044 A 
ATOM      7  C   UNL     1       8.792   0.694  -0.484  1.00  0.00     0.008 A 
ATOM      8  C   UNL     1       8.280   0.703   1.848  1.00  0.00     0.054 A 
ATOM      9  C   UNL     1      10.088   1.061  -0.168  1.00  0.00     0.051 A 
ATOM     10  C   UNL     1       9.590   1.075   2.163  1.00  0.00     0.166 A 
ATOM     11  C   UNL     1      10.502   1.255   1.146  1.00  0.00     0.165 A 
ATOM     12  O   UNL     1      10.236   1.324   3.355  1.00  0.00    -0.454 OA
ATOM     13  O   UNL     1      11.701   1.615   1.742  1.00  0.00    -0.454 OA
ATOM     14  C   UNL     1      11.553   1.759   3.134  1.00  0.00     0.468 C 
ENDBRANCH   5   6
ENDBRANCH   1   5
TORSDOF 3
ENDMDL
