@<TRIPOS>MOLECULE
/home/cewinharhar/GITHUB/reincatalyze/data/processed/docking_pred/2023-May-22-1902_sub9_nm5_bs15_s42_ex16_mel10_mts1000_k50_ec02_g099_lra9e-4_lrc1e-3/677496c5c46bc5e4ac1ff58ba47d0b72a83fedc5_ligand_9.pdbqt
 14 15 0 0 0
SMALL
GASTEIGER

@<TRIPOS>ATOM
      1  C          5.4130    1.3850    0.5130 C.3     1  UNL1        0.0800
      2  C          5.1250    0.4810    1.6610 C.2     1  UNL1        0.1300
      3  C          5.8310   -0.8170    1.8300 C.3     1  UNL1        0.0870
      4  O          4.2930    0.7830    2.5020 O.2     1  UNL1       -0.3000
      5  C          6.4760    2.4050    0.8690 C.3     1  UNL1        0.0430
      6  C          7.8290    1.8210    0.8300 C.2     1  UNL1       -0.0440
      7  C          8.3730    1.3100   -0.3530 C.2     1  UNL1        0.0080
      8  C          8.5850    1.7750    1.9800 C.2     1  UNL1        0.0540
      9  C          9.6490    0.7750   -0.3290 C.2     1  UNL1        0.0510
     10  C          9.8740    1.2330    1.9990 C.2     1  UNL1        0.1660
     11  C         10.4100    0.7290    0.8350 C.2     1  UNL1        0.1650
     12  O         10.8110    1.0730    2.9970 O.2     1  UNL1       -0.4540
     13  O         11.6780    0.2650    1.1460 O.2     1  UNL1       -0.4540
     14  C         12.0080    0.5460    2.4850 C.3     1  UNL1        0.4680
@<TRIPOS>BOND
     1     7     9    1
     2     7     6    2
     3     9    11    2
     4     1     5    1
     5     1     2    1
     6     6     5    1
     7     6     8    1
     8    11    13    1
     9    11    10    1
    10    13    14    1
    11     2     3    1
    12     2     4    2
    13     8    10    2
    14    10    12    1
    15    14    12    1
