@<TRIPOS>MOLECULE
/home/cewinharhar/GITHUB/reincatalyze/data/processed/docking_pred/2023-May-22-1902_sub9_nm5_bs15_s42_ex16_mel10_mts1000_k50_ec02_g099_lra9e-4_lrc1e-3/677496c5c46bc5e4ac1ff58ba47d0b72a83fedc5_ligand_9.pdbqt
 14 15 0 0 0
SMALL
GASTEIGER

@<TRIPOS>ATOM
      1  C          6.0290    3.3060    0.0770 C.3     1  UNL1        0.0800
      2  C          6.5760    3.7720    1.3810 C.2     1  UNL1        0.1300
      3  C          7.9550    3.4260    1.8180 C.3     1  UNL1        0.0870
      4  O          5.9030    4.4560    2.1350 O.2     1  UNL1       -0.3000
      5  C          5.0130    2.1970    0.2700 C.3     1  UNL1        0.0430
      6  C          5.6580    0.9230    0.6370 C.2     1  UNL1       -0.0440
      7  C          5.3960    0.2940    1.8590 C.2     1  UNL1        0.0080
      8  C          6.5390    0.3290   -0.2380 C.2     1  UNL1        0.0540
      9  C          6.0300   -0.9010    2.1480 C.2     1  UNL1        0.0510
     10  C          7.1770   -0.8800    0.0590 C.2     1  UNL1        0.1660
     11  C          6.9200   -1.4990    1.2620 C.2     1  UNL1        0.1650
     12  O          8.0800   -1.6600   -0.6310 O.2     1  UNL1       -0.4540
     13  O          7.6780   -2.6590    1.2850 O.2     1  UNL1       -0.4540
     14  C          8.3580   -2.8460    0.0670 C.3     1  UNL1        0.4680
@<TRIPOS>BOND
     1    12    10    1
     2    12    14    1
     3     8    10    1
     4     8     6    2
     5    10    11    2
     6    14    13    1
     7     1     5    1
     8     1     2    1
     9     5     6    1
    10     6     7    1
    11    11    13    1
    12    11     9    1
    13     2     3    1
    14     2     4    2
    15     7     9    2
