@<TRIPOS>MOLECULE
/home/cewinharhar/GITHUB/reincatalyze/data/processed/docking_pred/2023-May-22-1902_sub9_nm5_bs15_s42_ex16_mel10_mts1000_k50_ec02_g099_lra9e-4_lrc1e-3/677496c5c46bc5e4ac1ff58ba47d0b72a83fedc5_ligand_9.pdbqt
 14 15 0 0 0
SMALL
GASTEIGER

@<TRIPOS>ATOM
      1  C          7.0600   -1.3600   -0.8720 C.3     1  UNL1        0.0800
      2  C          7.5820   -1.6850    0.4850 C.2     1  UNL1        0.1300
      3  C          6.6970   -1.6920    1.6810 C.3     1  UNL1        0.0870
      4  O          8.7590   -1.9570    0.6560 O.2     1  UNL1       -0.3000
      5  C          7.5840   -0.0220   -1.3560 C.3     1  UNL1        0.0430
      6  C          7.0320    1.0970   -0.5710 C.2     1  UNL1       -0.0440
      7  C          5.6580    1.3610   -0.5360 C.2     1  UNL1        0.0080
      8  C          7.8800    1.9070    0.1510 C.2     1  UNL1        0.0540
      9  C          5.1990    2.4250    0.2190 C.2     1  UNL1        0.0510
     10  C          7.4100    2.9800    0.9130 C.2     1  UNL1        0.1660
     11  C          6.0580    3.2420    0.9470 C.2     1  UNL1        0.1650
     12  O          8.0390    3.9180    1.7050 O.2     1  UNL1       -0.4540
     13  O          5.8840    4.3450    1.7680 O.2     1  UNL1       -0.4540
     14  C          7.1040    4.7490    2.3420 C.3     1  UNL1        0.4680
@<TRIPOS>BOND
     1     5     1    1
     2     5     6    1
     3     1     2    1
     4     6     7    2
     5     6     8    1
     6     7     9    1
     7     8    10    2
     8     9    11    2
     9     2     4    2
    10     2     3    1
    11    10    11    1
    12    10    12    1
    13    11    13    1
    14    12    14    1
    15    13    14    1
