@<TRIPOS>MOLECULE
/home/cewinharhar/GITHUB/reincatalyze/data/processed/docking_pred/2023-May-22-1902_sub9_nm5_bs15_s42_ex16_mel10_mts1000_k50_ec02_g099_lra9e-4_lrc1e-3/677496c5c46bc5e4ac1ff58ba47d0b72a83fedc5_ligand_9.pdbqt
 14 15 0 0 0
SMALL
GASTEIGER

@<TRIPOS>ATOM
      1  C          5.7510    3.2700    0.1800 C.3     1  UNL1        0.0800
      2  C          6.6060    3.7260    1.3110 C.2     1  UNL1        0.1300
      3  C          8.0540    3.3910    1.3790 C.3     1  UNL1        0.0870
      4  O          6.1400    4.3920    2.2200 O.2     1  UNL1       -0.3000
      5  C          5.0350    1.9770    0.5180 C.3     1  UNL1        0.0430
      6  C          5.8450    0.7960    0.1700 C.2     1  UNL1       -0.0440
      7  C          6.1300   -0.2000    1.1100 C.2     1  UNL1        0.0080
      8  C          6.3360    0.6590   -1.1090 C.2     1  UNL1        0.0540
      9  C          6.8950   -1.2870    0.7250 C.2     1  UNL1        0.0510
     10  C          7.1080   -0.4410   -1.4930 C.2     1  UNL1        0.1660
     11  C          7.3900   -1.4220   -0.5680 C.2     1  UNL1        0.1650
     12  O          7.7030   -0.8020   -2.6830 O.2     1  UNL1       -0.4540
     13  O          8.1600   -2.3750   -1.2170 O.2     1  UNL1       -0.4540
     14  C          8.3060   -2.0670   -2.5830 C.3     1  UNL1        0.4680
@<TRIPOS>BOND
     1    12    14    1
     2    12    10    1
     3    14    13    1
     4    10     8    1
     5    10    11    2
     6    13    11    1
     7     8     6    2
     8    11     9    1
     9     6     5    1
    10     6     7    1
    11     1     5    1
    12     1     2    1
    13     9     7    2
    14     2     3    1
    15     2     4    2
