@<TRIPOS>MOLECULE
/home/cewinharhar/GITHUB/reincatalyze/data/processed/docking_pred/2023-May-22-1902_sub9_nm5_bs15_s42_ex16_mel10_mts1000_k50_ec02_g099_lra9e-4_lrc1e-3/677496c5c46bc5e4ac1ff58ba47d0b72a83fedc5_ligand_9.pdbqt
 14 15 0 0 0
SMALL
GASTEIGER

@<TRIPOS>ATOM
      1  C          5.7250    3.2070    0.1540 C.3     1  UNL1        0.0800
      2  C          6.5540    3.6840    1.2960 C.2     1  UNL1        0.1300
      3  C          8.0090    3.3890    1.3810 C.3     1  UNL1        0.0870
      4  O          6.0580    4.3340    2.2020 O.2     1  UNL1       -0.3000
      5  C          5.0810    1.8700    0.4610 C.3     1  UNL1        0.0430
      6  C          5.9270    0.7430    0.0300 C.2     1  UNL1       -0.0440
      7  C          6.3730    0.6250   -1.2910 C.2     1  UNL1        0.0080
      8  C          6.2970   -0.2190    0.9420 C.2     1  UNL1        0.0540
      9  C          7.1660   -0.4540   -1.6370 C.2     1  UNL1        0.0510
     10  C          7.1000   -1.3080    0.5870 C.2     1  UNL1        0.1660
     11  C          7.5380   -1.4260   -0.7140 C.2     1  UNL1        0.1650
     12  O          7.5960   -2.3810    1.2960 O.2     1  UNL1       -0.4540
     13  O          8.3020   -2.5810   -0.7760 O.2     1  UNL1       -0.4540
     14  C          8.4400   -3.1680    0.4960 C.3     1  UNL1        0.4680
@<TRIPOS>BOND
     1     9     7    1
     2     9    11    2
     3     7     6    2
     4    13    11    1
     5    13    14    1
     6    11    10    1
     7     6     5    1
     8     6     8    1
     9     1     5    1
    10     1     2    1
    11    14    12    1
    12    10     8    2
    13    10    12    1
    14     2     3    1
    15     2     4    2
