@<TRIPOS>MOLECULE
/home/cewinharhar/GITHUB/reincatalyze/data/processed/docking_pred/2023-May-22-1902_sub9_nm5_bs15_s42_ex16_mel10_mts1000_k50_ec02_g099_lra9e-4_lrc1e-3/67ebe37560d6b2ff0daae954040d2bc7ae74be81_ligand_9.pdbqt
 14 15 0 0 0
SMALL
GASTEIGER

@<TRIPOS>ATOM
      1  C          5.4570    2.9230    0.0980 C.3     1  UNL1        0.0800
      2  C          6.2870    3.8340    0.9350 C.2     1  UNL1        0.1300
      3  C          7.2680    4.7740    0.3300 C.3     1  UNL1        0.0870
      4  O          6.1840    3.8350    2.1510 O.2     1  UNL1       -0.3000
      5  C          5.1840    1.6150    0.8130 C.3     1  UNL1        0.0430
      6  C          6.0160    0.5190    0.2860 C.2     1  UNL1       -0.0440
      7  C          6.3440   -0.5940    1.0680 C.2     1  UNL1        0.0080
      8  C          6.4850    0.5800   -1.0070 C.2     1  UNL1        0.0540
      9  C          7.1280   -1.5920    0.5190 C.2     1  UNL1        0.0510
     10  C          7.2760   -0.4330   -1.5580 C.2     1  UNL1        0.1660
     11  C          7.6010   -1.5270   -0.7880 C.2     1  UNL1        0.1650
     12  O          7.8560   -0.6030   -2.7970 O.2     1  UNL1       -0.4540
     13  O          8.3810   -2.3560   -1.5790 O.2     1  UNL1       -0.4540
     14  C          8.4920   -1.8520   -2.8880 C.3     1  UNL1        0.4680
@<TRIPOS>BOND
     1    14    12    1
     2    14    13    1
     3    12    10    1
     4    13    11    1
     5    10     8    1
     6    10    11    2
     7     8     6    2
     8    11     9    1
     9     1     5    1
    10     1     2    1
    11     6     5    1
    12     6     7    1
    13     3     2    1
    14     9     7    2
    15     2     4    2
