@<TRIPOS>MOLECULE
/home/cewinharhar/GITHUB/reincatalyze/data/processed/docking_pred/2023-May-22-1902_sub9_nm5_bs15_s42_ex16_mel10_mts1000_k50_ec02_g099_lra9e-4_lrc1e-3/67ebe37560d6b2ff0daae954040d2bc7ae74be81_ligand_9.pdbqt
 14 15 0 0 0
SMALL
GASTEIGER

@<TRIPOS>ATOM
      1  C          5.5910    2.9040    0.1540 C.3     1  UNL1        0.0800
      2  C          6.2510    4.0000    0.9160 C.2     1  UNL1        0.1300
      3  C          7.3860    4.7750    0.3450 C.3     1  UNL1        0.0870
      4  O          5.8770    4.2960    2.0390 O.2     1  UNL1       -0.3000
      5  C          5.5230    1.6290    0.9720 C.3     1  UNL1        0.0430
      6  C          6.2450    0.5220    0.3200 C.2     1  UNL1       -0.0440
      7  C          6.4690    0.5060   -1.0620 C.2     1  UNL1        0.0080
      8  C          6.7180   -0.5240    1.0780 C.2     1  UNL1        0.0540
      9  C          7.1540   -0.5590   -1.6180 C.2     1  UNL1        0.0510
     10  C          7.4100   -1.5990    0.5110 C.2     1  UNL1        0.1660
     11  C          7.6290   -1.6160   -0.8480 C.2     1  UNL1        0.1650
     12  O          7.9710   -2.7410    1.0420 O.2     1  UNL1       -0.4540
     13  O          8.3280   -2.7800   -1.1260 O.2     1  UNL1       -0.4540
     14  C          8.6450   -3.4780    0.0550 C.3     1  UNL1        0.4680
@<TRIPOS>BOND
     1     9     7    1
     2     9    11    2
     3    13    11    1
     4    13    14    1
     5     7     6    2
     6    11    10    1
     7    14    12    1
     8     1     2    1
     9     1     5    1
    10     6     5    1
    11     6     8    1
    12     3     2    1
    13    10    12    1
    14    10     8    2
    15     2     4    2
