@<TRIPOS>MOLECULE
/home/cewinharhar/GITHUB/reincatalyze/data/processed/docking_pred/2023-May-22-1902_sub9_nm5_bs15_s42_ex16_mel10_mts1000_k50_ec02_g099_lra9e-4_lrc1e-3/67ebe37560d6b2ff0daae954040d2bc7ae74be81_ligand_9.pdbqt
 14 15 0 0 0
SMALL
GASTEIGER

@<TRIPOS>ATOM
      1  C          5.4150    2.8550    0.0410 C.3     1  UNL1        0.0800
      2  C          6.1010    3.8850    0.8700 C.2     1  UNL1        0.1300
      3  C          7.1480    4.7750    0.3020 C.3     1  UNL1        0.0870
      4  O          5.8200    4.0290    2.0490 O.2     1  UNL1       -0.3000
      5  C          5.7220    1.4560    0.5360 C.3     1  UNL1        0.0430
      6  C          6.7880    0.8170   -0.2560 C.2     1  UNL1       -0.0440
      7  C          8.0640    1.3830   -0.3600 C.2     1  UNL1        0.0080
      8  C          6.5340   -0.3660   -0.9120 C.2     1  UNL1        0.0540
      9  C          9.0240    0.7380   -1.1170 C.2     1  UNL1        0.0510
     10  C          7.5090   -1.0150   -1.6760 C.2     1  UNL1        0.1660
     11  C          8.7650   -0.4580   -1.7790 C.2     1  UNL1        0.1650
     12  O          7.5050   -2.1800   -2.4120 O.2     1  UNL1       -0.4540
     13  O          9.5130   -1.3020   -2.5850 O.2     1  UNL1       -0.4540
     14  C          8.7800   -2.4530   -2.9330 C.3     1  UNL1        0.4680
@<TRIPOS>BOND
     1    14    13    1
     2    14    12    1
     3    13    11    1
     4    12    10    1
     5    11    10    2
     6    11     9    1
     7    10     8    1
     8     9     7    2
     9     8     6    2
    10     7     6    1
    11     6     5    1
    12     1     5    1
    13     1     2    1
    14     3     2    1
    15     2     4    2
