@<TRIPOS>MOLECULE
/home/cewinharhar/GITHUB/reincatalyze/data/processed/docking_pred/2023-May-22-1902_sub9_nm5_bs15_s42_ex16_mel10_mts1000_k50_ec02_g099_lra9e-4_lrc1e-3/681e80220216c71ec10eb1429598bf11558fcb24_ligand_9.pdbqt
 14 15 0 0 0
SMALL
GASTEIGER

@<TRIPOS>ATOM
      1  C          5.7680    2.6360    0.3250 C.3     1  UNL1        0.0800
      2  C          6.3430    3.8200    1.0220 C.2     1  UNL1        0.1300
      3  C          7.2450    4.7750    0.3240 C.3     1  UNL1        0.0870
      4  O          6.0890    4.0420    2.1950 O.2     1  UNL1       -0.3000
      5  C          6.1940    1.3440    0.9930 C.3     1  UNL1        0.0430
      6  C          6.6560    0.3470    0.0100 C.2     1  UNL1       -0.0440
      7  C          6.4840    0.5400   -1.3660 C.2     1  UNL1        0.0080
      8  C          7.2750   -0.8030    0.4440 C.2     1  UNL1        0.0540
      9  C          6.9390   -0.4300   -2.2410 C.2     1  UNL1        0.0510
     10  C          7.7340   -1.7790   -0.4450 C.2     1  UNL1        0.1660
     11  C          7.5640   -1.5910   -1.7980 C.2     1  UNL1        0.1650
     12  O          8.3700   -2.9890   -0.2650 O.2     1  UNL1       -0.4540
     13  O          8.1060   -2.7010   -2.4280 O.2     1  UNL1       -0.4540
     14  C          8.7090   -3.5690   -1.4990 C.3     1  UNL1        0.4680
@<TRIPOS>BOND
     1    13    11    1
     2    13    14    1
     3     9    11    2
     4     9     7    1
     5    11    10    1
     6    14    12    1
     7     7     6    2
     8    10    12    1
     9    10     8    2
    10     6     8    1
    11     6     5    1
    12     3     2    1
    13     1     5    1
    14     1     2    1
    15     2     4    2
