MODEL 1
REMARK VINA RESULT:      -7.8      0.000      0.000
REMARK SMILES CC(=O)CCc1ccc2c(c1)OCO2
REMARK SMILES IDX 4 1 2 2 1 3 3 4 5 5 6 6 7 7 11 8 8 9 10 10 9 11 12 12 14 13
REMARK SMILES IDX 13 14
REMARK H PARENT
REMARK Flexibility Score: inf
ROOT
ATOM      1  C   UNL     1       5.370   2.987   0.172  1.00  0.00     0.080 C 
ENDROOT
BRANCH   1   2
ATOM      2  C   UNL     1       6.273   3.851   0.983  1.00  0.00     0.130 C 
ATOM      3  C   UNL     1       7.250   4.774   0.346  1.00  0.00     0.087 C 
ATOM      4  O   UNL     1       6.236   3.826   2.203  1.00  0.00    -0.300 OA
ENDBRANCH   1   2
BRANCH   1   5
ATOM      5  C   UNL     1       5.128   1.654   0.852  1.00  0.00     0.043 C 
BRANCH   5   6
ATOM      6  C   UNL     1       5.979   0.591   0.289  1.00  0.00    -0.044 A 
ATOM      7  C   UNL     1       6.387   0.611  -1.050  1.00  0.00     0.008 A 
ATOM      8  C   UNL     1       6.389  -0.450   1.090  1.00  0.00     0.054 A 
ATOM      9  C   UNL     1       7.187  -0.414  -1.523  1.00  0.00     0.051 A 
ATOM     10  C   UNL     1       7.198  -1.483   0.607  1.00  0.00     0.166 A 
ATOM     11  C   UNL     1       7.600  -1.465  -0.710  1.00  0.00     0.165 A 
ATOM     12  O   UNL     1       7.731  -2.612   1.194  1.00  0.00    -0.454 OA
ATOM     13  O   UNL     1       8.380  -2.594  -0.907  1.00  0.00    -0.454 OA
ATOM     14  C   UNL     1       8.564  -3.301   0.297  1.00  0.00     0.468 C 
ENDBRANCH   5   6
ENDBRANCH   1   5
TORSDOF 3
ENDMDL
MODEL 2
REMARK VINA RESULT:      -7.6      2.416      3.054
REMARK SMILES CC(=O)CCc1ccc2c(c1)OCO2
REMARK SMILES IDX 4 1 2 2 1 3 3 4 5 5 6 6 7 7 11 8 8 9 10 10 9 11 12 12 14 13
REMARK SMILES IDX 13 14
REMARK H PARENT
REMARK Flexibility Score: inf
ROOT
ATOM      1  C   UNL     1       5.529   1.880   1.292  1.00  0.00     0.080 C 
ENDROOT
BRANCH   1   2
ATOM      2  C   UNL     1       5.076   0.659   2.016  1.00  0.00     0.130 C 
ATOM      3  C   UNL     1       5.954  -0.533   2.163  1.00  0.00     0.087 C 
ATOM      4  O   UNL     1       3.962   0.601   2.511  1.00  0.00    -0.300 OA
ENDBRANCH   1   2
BRANCH   1   5
ATOM      5  C   UNL     1       5.399   1.710  -0.208  1.00  0.00     0.043 C 
BRANCH   5   6
ATOM      6  C   UNL     1       6.566   1.016  -0.783  1.00  0.00    -0.044 A 
ATOM      7  C   UNL     1       7.872   1.465  -0.554  1.00  0.00     0.008 A 
ATOM      8  C   UNL     1       6.379  -0.102  -1.563  1.00  0.00     0.054 A 
ATOM      9  C   UNL     1       8.928   0.774  -1.118  1.00  0.00     0.051 A 
ATOM     10  C   UNL     1       7.450  -0.798  -2.131  1.00  0.00     0.166 A 
ATOM     11  C   UNL     1       8.735  -0.357  -1.907  1.00  0.00     0.165 A 
ATOM     12  O   UNL     1       7.524  -1.919  -2.931  1.00  0.00    -0.454 OA
ATOM     13  O   UNL     1       9.580  -1.224  -2.580  1.00  0.00    -0.454 OA
ATOM     14  C   UNL     1       8.860  -2.282  -3.168  1.00  0.00     0.468 C 
ENDBRANCH   5   6
ENDBRANCH   1   5
TORSDOF 3
ENDMDL
MODEL 3
REMARK VINA RESULT:      -7.5      1.665      1.955
REMARK SMILES CC(=O)CCc1ccc2c(c1)OCO2
REMARK SMILES IDX 4 1 2 2 1 3 3 4 5 5 6 6 7 7 11 8 8 9 10 10 9 11 12 12 14 13
REMARK SMILES IDX 13 14
REMARK H PARENT
REMARK Flexibility Score: inf
ROOT
ATOM      1  C   UNL     1       5.429   2.919   0.241  1.00  0.00     0.080 C 
ENDROOT
BRANCH   1   2
ATOM      2  C   UNL     1       6.167   3.957   1.014  1.00  0.00     0.130 C 
ATOM      3  C   UNL     1       7.243   4.775   0.394  1.00  0.00     0.087 C 
ATOM      4  O   UNL     1       5.908   4.166   2.188  1.00  0.00    -0.300 OA
ENDBRANCH   1   2
BRANCH   1   5
ATOM      5  C   UNL     1       5.775   1.524   0.723  1.00  0.00     0.043 C 
BRANCH   5   6
ATOM      6  C   UNL     1       6.786   0.884  -0.137  1.00  0.00    -0.044 A 
ATOM      7  C   UNL     1       8.064   1.432  -0.300  1.00  0.00     0.008 A 
ATOM      8  C   UNL     1       6.478  -0.283  -0.800  1.00  0.00     0.054 A 
ATOM      9  C   UNL     1       8.972   0.786  -1.119  1.00  0.00     0.051 A 
ATOM     10  C   UNL     1       7.400  -0.932  -1.627  1.00  0.00     0.166 A 
ATOM     11  C   UNL     1       8.657  -0.392  -1.788  1.00  0.00     0.165 A 
ATOM     12  O   UNL     1       7.336  -2.083  -2.383  1.00  0.00    -0.454 OA
ATOM     13  O   UNL     1       9.346  -1.233  -2.648  1.00  0.00    -0.454 OA
ATOM     14  C   UNL     1       8.577  -2.365  -2.977  1.00  0.00     0.468 C 
ENDBRANCH   5   6
ENDBRANCH   1   5
TORSDOF 3
ENDMDL
MODEL 4
REMARK VINA RESULT:      -7.5      1.789      2.477
REMARK SMILES CC(=O)CCc1ccc2c(c1)OCO2
REMARK SMILES IDX 4 1 2 2 1 3 3 4 5 5 6 6 7 7 11 8 8 9 10 10 9 11 12 12 14 13
REMARK SMILES IDX 13 14
REMARK H PARENT
REMARK Flexibility Score: inf
ROOT
ATOM      1  C   UNL     1       5.747   1.311  -0.331  1.00  0.00     0.080 C 
ENDROOT
BRANCH   1   2
ATOM      2  C   UNL     1       5.169   1.289   1.042  1.00  0.00     0.130 C 
ATOM      3  C   UNL     1       5.344   0.119   1.943  1.00  0.00     0.087 C 
ATOM      4  O   UNL     1       4.530   2.237   1.468  1.00  0.00    -0.300 OA
ENDBRANCH   1   2
BRANCH   1   5
ATOM      5  C   UNL     1       7.246   1.091  -0.301  1.00  0.00     0.043 C 
BRANCH   5   6
ATOM      6  C   UNL     1       7.620  -0.206  -0.891  1.00  0.00    -0.044 A 
ATOM      7  C   UNL     1       7.696  -0.386  -2.277  1.00  0.00     0.008 A 
ATOM      8  C   UNL     1       7.906  -1.273  -0.070  1.00  0.00     0.054 A 
ATOM      9  C   UNL     1       8.054  -1.626  -2.774  1.00  0.00     0.051 A 
ATOM     10  C   UNL     1       8.267  -2.524  -0.577  1.00  0.00     0.166 A 
ATOM     11  C   UNL     1       8.341  -2.703  -1.941  1.00  0.00     0.165 A 
ATOM     12  O   UNL     1       8.593  -3.723   0.022  1.00  0.00    -0.454 OA
ATOM     13  O   UNL     1       8.716  -4.020  -2.153  1.00  0.00    -0.454 OA
ATOM     14  C   UNL     1       8.975  -4.678  -0.936  1.00  0.00     0.468 C 
ENDBRANCH   5   6
ENDBRANCH   1   5
TORSDOF 3
ENDMDL
MODEL 5
REMARK VINA RESULT:      -7.4      0.906      1.046
REMARK SMILES CC(=O)CCc1ccc2c(c1)OCO2
REMARK SMILES IDX 4 1 2 2 1 3 3 4 5 5 6 6 7 7 11 8 8 9 10 10 9 11 12 12 14 13
REMARK SMILES IDX 13 14
REMARK H PARENT
REMARK Flexibility Score: inf
ROOT
ATOM      1  C   UNL     1       5.768   2.636   0.325  1.00  0.00     0.080 C 
ENDROOT
BRANCH   1   2
ATOM      2  C   UNL     1       6.343   3.820   1.022  1.00  0.00     0.130 C 
ATOM      3  C   UNL     1       7.245   4.775   0.324  1.00  0.00     0.087 C 
ATOM      4  O   UNL     1       6.089   4.042   2.195  1.00  0.00    -0.300 OA
ENDBRANCH   1   2
BRANCH   1   5
ATOM      5  C   UNL     1       6.194   1.344   0.993  1.00  0.00     0.043 C 
BRANCH   5   6
ATOM      6  C   UNL     1       6.656   0.347   0.010  1.00  0.00    -0.044 A 
ATOM      7  C   UNL     1       6.484   0.540  -1.366  1.00  0.00     0.008 A 
ATOM      8  C   UNL     1       7.275  -0.803   0.444  1.00  0.00     0.054 A 
ATOM      9  C   UNL     1       6.939  -0.430  -2.241  1.00  0.00     0.051 A 
ATOM     10  C   UNL     1       7.734  -1.779  -0.445  1.00  0.00     0.166 A 
ATOM     11  C   UNL     1       7.564  -1.591  -1.798  1.00  0.00     0.165 A 
ATOM     12  O   UNL     1       8.370  -2.989  -0.265  1.00  0.00    -0.454 OA
ATOM     13  O   UNL     1       8.106  -2.701  -2.428  1.00  0.00    -0.454 OA
ATOM     14  C   UNL     1       8.709  -3.569  -1.499  1.00  0.00     0.468 C 
ENDBRANCH   5   6
ENDBRANCH   1   5
TORSDOF 3
ENDMDL
