@<TRIPOS>MOLECULE
/home/cewinharhar/GITHUB/reincatalyze/data/processed/docking_pred/2023-May-22-1902_sub9_nm5_bs15_s42_ex16_mel10_mts1000_k50_ec02_g099_lra9e-4_lrc1e-3/69e2ce579100b0ee4b56c8bb4a95d1562fd611af_ligand_9.pdbqt
 14 15 0 0 0
SMALL
GASTEIGER

@<TRIPOS>ATOM
      1  C          5.7550    1.3610   -0.3180 C.3     1  UNL1        0.0800
      2  C          5.1350    1.2930    1.0350 C.2     1  UNL1        0.1300
      3  C          5.3790    0.1450    1.9490 C.3     1  UNL1        0.0870
      4  O          4.4030    2.1840    1.4340 O.2     1  UNL1       -0.3000
      5  C          7.2490    1.1100   -0.2510 C.3     1  UNL1        0.0430
      6  C          7.6140   -0.1840   -0.8560 C.2     1  UNL1       -0.0440
      7  C          7.6780   -0.3520   -2.2440 C.2     1  UNL1        0.0080
      8  C          7.9010   -1.2580   -0.0460 C.2     1  UNL1        0.0540
      9  C          8.0270   -1.5890   -2.7550 C.2     1  UNL1        0.0510
     10  C          8.2540   -2.5070   -0.5670 C.2     1  UNL1        0.1660
     11  C          8.3170   -2.6730   -1.9330 C.2     1  UNL1        0.1650
     12  O          8.5800   -3.7120    0.0190 O.2     1  UNL1       -0.4540
     13  O          8.6850   -3.9900   -2.1590 O.2     1  UNL1       -0.4540
     14  C          8.9500   -4.6590   -0.9490 C.3     1  UNL1        0.4680
@<TRIPOS>BOND
     1     9     7    1
     2     9    11    2
     3     7     6    2
     4    13    11    1
     5    13    14    1
     6    11    10    1
     7    14    12    1
     8     6     5    1
     9     6     8    1
    10    10     8    2
    11    10    12    1
    12     1     5    1
    13     1     2    1
    14     2     4    2
    15     2     3    1
