@<TRIPOS>MOLECULE
/home/cewinharhar/GITHUB/reincatalyze/data/processed/docking_pred/2023-May-22-1902_sub9_nm5_bs15_s42_ex16_mel10_mts1000_k50_ec02_g099_lra9e-4_lrc1e-3/69e2ce579100b0ee4b56c8bb4a95d1562fd611af_ligand_9.pdbqt
 14 15 0 0 0
SMALL
GASTEIGER

@<TRIPOS>ATOM
      1  C          5.3990    2.8590    0.1180 C.3     1  UNL1        0.0800
      2  C          6.2690    3.7420    0.9440 C.2     1  UNL1        0.1300
      3  C          7.1430    4.7750    0.3270 C.3     1  UNL1        0.0870
      4  O          6.2900    3.6410    2.1600 O.2     1  UNL1       -0.3000
      5  C          5.5980    1.3990    0.4750 C.3     1  UNL1        0.0430
      6  C          6.6870    0.7890   -0.3080 C.2     1  UNL1       -0.0440
      7  C          7.9560    1.3750   -0.3800 C.2     1  UNL1        0.0080
      8  C          6.4620   -0.3870   -0.9880 C.2     1  UNL1        0.0540
      9  C          8.9390    0.7560   -1.1310 C.2     1  UNL1        0.0510
     10  C          7.4600   -1.0090   -1.7440 C.2     1  UNL1        0.1660
     11  C          8.7080   -0.4320   -1.8170 C.2     1  UNL1        0.1650
     12  O          7.4850   -2.1620   -2.4990 O.2     1  UNL1       -0.4540
     13  O          9.4830   -1.2530   -2.6220 O.2     1  UNL1       -0.4540
     14  C          8.7730   -2.4080   -3.0020 C.3     1  UNL1        0.4680
@<TRIPOS>BOND
     1    14    13    1
     2    14    12    1
     3    13    11    1
     4    12    10    1
     5    11    10    2
     6    11     9    1
     7    10     8    1
     8     9     7    2
     9     8     6    2
    10     7     6    1
    11     6     5    1
    12     1     5    1
    13     1     2    1
    14     3     2    1
    15     2     4    2
