@<TRIPOS>MOLECULE
/home/cewinharhar/GITHUB/reincatalyze/data/processed/docking_pred/2023-May-22-1902_sub9_nm5_bs15_s42_ex16_mel10_mts1000_k50_ec02_g099_lra9e-4_lrc1e-3/69e2ce579100b0ee4b56c8bb4a95d1562fd611af_ligand_9.pdbqt
 14 15 0 0 0
SMALL
GASTEIGER

@<TRIPOS>ATOM
      1  C          5.4310    2.8960    0.0610 C.3     1  UNL1        0.0800
      2  C          6.2490    3.8080    0.9090 C.2     1  UNL1        0.1300
      3  C          7.2130    4.7720    0.3150 C.3     1  UNL1        0.0870
      4  O          6.1510    3.7880    2.1260 O.2     1  UNL1       -0.3000
      5  C          5.1590    1.5830    0.7680 C.3     1  UNL1        0.0430
      6  C          6.0000    0.4940    0.2390 C.2     1  UNL1       -0.0440
      7  C          6.3180   -0.6280    1.0130 C.2     1  UNL1        0.0080
      8  C          6.4870    0.5700   -1.0460 C.2     1  UNL1        0.0540
      9  C          7.1110   -1.6190    0.4640 C.2     1  UNL1        0.0510
     10  C          7.2880   -0.4350   -1.5970 C.2     1  UNL1        0.1660
     11  C          7.6030   -1.5380   -0.8350 C.2     1  UNL1        0.1650
     12  O          7.8860   -0.5900   -2.8290 O.2     1  UNL1       -0.4540
     13  O          8.3950   -2.3570   -1.6250 O.2     1  UNL1       -0.4540
     14  C          8.5250   -1.8370   -2.9260 C.3     1  UNL1        0.4680
@<TRIPOS>BOND
     1    14    12    1
     2    14    13    1
     3    12    10    1
     4    13    11    1
     5    10     8    1
     6    10    11    2
     7     8     6    2
     8    11     9    1
     9     1     5    1
    10     1     2    1
    11     6     5    1
    12     6     7    1
    13     3     2    1
    14     9     7    2
    15     2     4    2
