@<TRIPOS>MOLECULE
/home/cewinharhar/GITHUB/reincatalyze/data/processed/docking_pred/2023-May-22-1902_sub9_nm5_bs15_s42_ex16_mel10_mts1000_k50_ec02_g099_lra9e-4_lrc1e-3/6b061a7890d75c8b26c884693b3b8f9ee5a9c423_ligand_9.pdbqt
 14 15 0 0 0
SMALL
GASTEIGER

@<TRIPOS>ATOM
      1  C          5.5480    1.9010    1.2820 C.3     1  UNL1        0.0800
      2  C          5.1090    0.6800    2.0130 C.2     1  UNL1        0.1300
      3  C          6.0080   -0.4940    2.1820 C.3     1  UNL1        0.0870
      4  O          3.9920    0.6060    2.4980 O.2     1  UNL1       -0.3000
      5  C          5.4170    1.7220   -0.2170 C.3     1  UNL1        0.0430
      6  C          6.5810    1.0210   -0.7870 C.2     1  UNL1       -0.0440
      7  C          7.8900    1.4530   -0.5420 C.2     1  UNL1        0.0080
      8  C          6.3890   -0.0870   -1.5800 C.2     1  UNL1        0.0540
      9  C          8.9430    0.7550   -1.1030 C.2     1  UNL1        0.0510
     10  C          7.4580   -0.7900   -2.1450 C.2     1  UNL1        0.1660
     11  C          8.7450   -0.3650   -1.9040 C.2     1  UNL1        0.1650
     12  O          7.5270   -1.9030   -2.9550 O.2     1  UNL1       -0.4540
     13  O          9.5870   -1.2360   -2.5780 O.2     1  UNL1       -0.4540
     14  C          8.8610   -2.2790   -3.1830 C.3     1  UNL1        0.4680
@<TRIPOS>BOND
     1    14    12    1
     2    14    13    1
     3    12    10    1
     4    13    11    1
     5    10    11    2
     6    10     8    1
     7    11     9    1
     8     8     6    2
     9     9     7    2
    10     6     7    1
    11     6     5    1
    12     5     1    1
    13     1     2    1
    14     2     3    1
    15     2     4    2
