@<TRIPOS>MOLECULE
/home/cewinharhar/GITHUB/reincatalyze/data/processed/docking_pred/2023-May-22-1902_sub9_nm5_bs15_s42_ex16_mel10_mts1000_k50_ec02_g099_lra9e-4_lrc1e-3/6ceeb54199aca0c96a32aff90fdf9e1d9b8e1f8c_ligand_9.pdbqt
 14 15 0 0 0
SMALL
GASTEIGER

@<TRIPOS>ATOM
      1  C          5.5150    1.9140    1.2800 C.3     1  UNL1        0.0800
      2  C          5.0450    0.6980    2.0000 C.2     1  UNL1        0.1300
      3  C          5.9020   -0.5100    2.1330 C.3     1  UNL1        0.0870
      4  O          3.9350    0.6590    2.5050 O.2     1  UNL1       -0.3000
      5  C          5.3960    1.7450   -0.2220 C.3     1  UNL1        0.0430
      6  C          6.5610    1.0420   -0.7870 C.2     1  UNL1       -0.0440
      7  C          7.8690    1.4750   -0.5410 C.2     1  UNL1        0.0080
      8  C          6.3700   -0.0710   -1.5750 C.2     1  UNL1        0.0540
      9  C          8.9240    0.7740   -1.0970 C.2     1  UNL1        0.0510
     10  C          7.4400   -0.7760   -2.1340 C.2     1  UNL1        0.1660
     11  C          8.7270   -0.3500   -1.8940 C.2     1  UNL1        0.1650
     12  O          7.5100   -1.8930   -2.9400 O.2     1  UNL1       -0.4540
     13  O          9.5700   -1.2230   -2.5620 O.2     1  UNL1       -0.4540
     14  C          8.8450   -2.2700   -3.1640 C.3     1  UNL1        0.4680
@<TRIPOS>BOND
     1    14    12    1
     2    14    13    1
     3    12    10    1
     4    13    11    1
     5    10    11    2
     6    10     8    1
     7    11     9    1
     8     8     6    2
     9     9     7    2
    10     6     7    1
    11     6     5    1
    12     5     1    1
    13     1     2    1
    14     2     3    1
    15     2     4    2
