@<TRIPOS>MOLECULE
/home/cewinharhar/GITHUB/reincatalyze/data/processed/docking_pred/2023-May-22-1902_sub9_nm5_bs15_s42_ex16_mel10_mts1000_k50_ec02_g099_lra9e-4_lrc1e-3/6d158fe290fd5017d73aec191e5eef2bb245b649_ligand_9.pdbqt
 14 15 0 0 0
SMALL
GASTEIGER

@<TRIPOS>ATOM
      1  C          5.3710    2.9820    0.2070 C.3     1  UNL1        0.0800
      2  C          6.2130    3.9120    1.0090 C.2     1  UNL1        0.1300
      3  C          7.2450    4.7750    0.3740 C.3     1  UNL1        0.0870
      4  O          6.0800    3.9920    2.2190 O.2     1  UNL1       -0.3000
      5  C          5.1740    1.6600    0.9230 C.3     1  UNL1        0.0430
      6  C          6.0130    0.5950    0.3450 C.2     1  UNL1       -0.0440
      7  C          6.4450    0.6430   -0.9860 C.2     1  UNL1        0.0080
      8  C          6.3880   -0.4760    1.1240 C.2     1  UNL1        0.0540
      9  C          7.2310   -0.3850   -1.4730 C.2     1  UNL1        0.0510
     10  C          7.1840   -1.5120    0.6260 C.2     1  UNL1        0.1660
     11  C          7.6080   -1.4670   -0.6830 C.2     1  UNL1        0.1650
     12  O          7.6830   -2.6670    1.1900 O.2     1  UNL1       -0.4540
     13  O          8.3680   -2.6060   -0.8980 O.2     1  UNL1       -0.4540
     14  C          8.5170   -3.3490    0.2880 C.3     1  UNL1        0.4680
@<TRIPOS>BOND
     1     9     7    1
     2     9    11    2
     3     7     6    2
     4    13    11    1
     5    13    14    1
     6    11    10    1
     7     1     5    1
     8     1     2    1
     9    14    12    1
    10     6     5    1
    11     6     8    1
    12     3     2    1
    13    10     8    2
    14    10    12    1
    15     2     4    2
