MODEL 1
REMARK VINA RESULT:      -7.9      0.000      0.000
REMARK SMILES CC(=O)CCc1ccc2c(c1)OCO2
REMARK SMILES IDX 4 1 2 2 1 3 3 4 5 5 6 6 7 7 11 8 8 9 10 10 9 11 12 12 14 13
REMARK SMILES IDX 13 14
REMARK H PARENT
REMARK Flexibility Score: inf
ROOT
ATOM      1  C   UNL     1       5.483   2.902   0.105  1.00  0.00     0.080 C 
ENDROOT
BRANCH   1   2
ATOM      2  C   UNL     1       6.280   3.824   0.961  1.00  0.00     0.130 C 
ATOM      3  C   UNL     1       7.265   4.774   0.379  1.00  0.00     0.087 C 
ATOM      4  O   UNL     1       6.147   3.825   2.174  1.00  0.00    -0.300 OA
ENDBRANCH   1   2
BRANCH   1   5
ATOM      5  C   UNL     1       5.189   1.600   0.824  1.00  0.00     0.043 C 
BRANCH   5   6
ATOM      6  C   UNL     1       6.032   0.498   0.326  1.00  0.00    -0.044 A 
ATOM      7  C   UNL     1       6.405  -0.570   1.150  1.00  0.00     0.008 A 
ATOM      8  C   UNL     1       6.467   0.509  -0.980  1.00  0.00     0.054 A 
ATOM      9  C   UNL     1       7.197  -1.576   0.628  1.00  0.00     0.051 A 
ATOM     10  C   UNL     1       7.268  -0.511  -1.503  1.00  0.00     0.166 A 
ATOM     11  C   UNL     1       7.636  -1.562  -0.692  1.00  0.00     0.165 A 
ATOM     12  O   UNL     1       7.821  -0.727  -2.748  1.00  0.00    -0.454 OA
ATOM     13  O   UNL     1       8.415  -2.410  -1.464  1.00  0.00    -0.454 OA
ATOM     14  C   UNL     1       8.482  -1.965  -2.798  1.00  0.00     0.468 C 
ENDBRANCH   5   6
ENDBRANCH   1   5
TORSDOF 3
ENDMDL
MODEL 2
REMARK VINA RESULT:      -7.7      0.973      1.964
REMARK SMILES CC(=O)CCc1ccc2c(c1)OCO2
REMARK SMILES IDX 4 1 2 2 1 3 3 4 5 5 6 6 7 7 11 8 8 9 10 10 9 11 12 12 14 13
REMARK SMILES IDX 13 14
REMARK H PARENT
REMARK Flexibility Score: inf
ROOT
ATOM      1  C   UNL     1       5.371   2.982   0.207  1.00  0.00     0.080 C 
ENDROOT
BRANCH   1   2
ATOM      2  C   UNL     1       6.213   3.912   1.009  1.00  0.00     0.130 C 
ATOM      3  C   UNL     1       7.245   4.775   0.374  1.00  0.00     0.087 C 
ATOM      4  O   UNL     1       6.080   3.992   2.219  1.00  0.00    -0.300 OA
ENDBRANCH   1   2
BRANCH   1   5
ATOM      5  C   UNL     1       5.174   1.660   0.923  1.00  0.00     0.043 C 
BRANCH   5   6
ATOM      6  C   UNL     1       6.013   0.595   0.345  1.00  0.00    -0.044 A 
ATOM      7  C   UNL     1       6.445   0.643  -0.986  1.00  0.00     0.008 A 
ATOM      8  C   UNL     1       6.388  -0.476   1.124  1.00  0.00     0.054 A 
ATOM      9  C   UNL     1       7.231  -0.385  -1.473  1.00  0.00     0.051 A 
ATOM     10  C   UNL     1       7.184  -1.512   0.626  1.00  0.00     0.166 A 
ATOM     11  C   UNL     1       7.608  -1.467  -0.683  1.00  0.00     0.165 A 
ATOM     12  O   UNL     1       7.683  -2.667   1.190  1.00  0.00    -0.454 OA
ATOM     13  O   UNL     1       8.368  -2.606  -0.898  1.00  0.00    -0.454 OA
ATOM     14  C   UNL     1       8.517  -3.349   0.288  1.00  0.00     0.468 C 
ENDBRANCH   5   6
ENDBRANCH   1   5
TORSDOF 3
ENDMDL
MODEL 3
REMARK VINA RESULT:      -7.6      1.889      2.633
REMARK SMILES CC(=O)CCc1ccc2c(c1)OCO2
REMARK SMILES IDX 4 1 2 2 1 3 3 4 5 5 6 6 7 7 11 8 8 9 10 10 9 11 12 12 14 13
REMARK SMILES IDX 13 14
REMARK H PARENT
REMARK Flexibility Score: inf
ROOT
ATOM      1  C   UNL     1       5.500   1.924   1.278  1.00  0.00     0.080 C 
ENDROOT
BRANCH   1   2
ATOM      2  C   UNL     1       5.039   0.706   2.002  1.00  0.00     0.130 C 
ATOM      3  C   UNL     1       5.900  -0.501   2.126  1.00  0.00     0.087 C 
ATOM      4  O   UNL     1       3.934   0.663   2.516  1.00  0.00    -0.300 OA
ENDBRANCH   1   2
BRANCH   1   5
ATOM      5  C   UNL     1       5.383   1.750  -0.223  1.00  0.00     0.043 C 
BRANCH   5   6
ATOM      6  C   UNL     1       6.552   1.049  -0.785  1.00  0.00    -0.044 A 
ATOM      7  C   UNL     1       7.858   1.483  -0.530  1.00  0.00     0.008 A 
ATOM      8  C   UNL     1       6.367  -0.060  -1.577  1.00  0.00     0.054 A 
ATOM      9  C   UNL     1       8.917   0.786  -1.084  1.00  0.00     0.051 A 
ATOM     10  C   UNL     1       7.440  -0.762  -2.134  1.00  0.00     0.166 A 
ATOM     11  C   UNL     1       8.725  -0.335  -1.885  1.00  0.00     0.165 A 
ATOM     12  O   UNL     1       7.516  -1.876  -2.943  1.00  0.00    -0.454 OA
ATOM     13  O   UNL     1       9.573  -1.206  -2.553  1.00  0.00    -0.454 OA
ATOM     14  C   UNL     1       8.852  -2.250  -3.162  1.00  0.00     0.468 C 
ENDBRANCH   5   6
ENDBRANCH   1   5
TORSDOF 3
ENDMDL
MODEL 4
REMARK VINA RESULT:      -7.6      1.121      1.526
REMARK SMILES CC(=O)CCc1ccc2c(c1)OCO2
REMARK SMILES IDX 4 1 2 2 1 3 3 4 5 5 6 6 7 7 11 8 8 9 10 10 9 11 12 12 14 13
REMARK SMILES IDX 13 14
REMARK H PARENT
REMARK Flexibility Score: inf
ROOT
ATOM      1  C   UNL     1       5.397   2.854   0.187  1.00  0.00     0.080 C 
ENDROOT
BRANCH   1   2
ATOM      2  C   UNL     1       6.277   3.743   0.997  1.00  0.00     0.130 C 
ATOM      3  C   UNL     1       7.140   4.775   0.363  1.00  0.00     0.087 C 
ATOM      4  O   UNL     1       6.314   3.648   2.213  1.00  0.00    -0.300 OA
ENDBRANCH   1   2
BRANCH   1   5
ATOM      5  C   UNL     1       5.614   1.396   0.539  1.00  0.00     0.043 C 
BRANCH   5   6
ATOM      6  C   UNL     1       6.697   0.796  -0.261  1.00  0.00    -0.044 A 
ATOM      7  C   UNL     1       7.961   1.391  -0.348  1.00  0.00     0.008 A 
ATOM      8  C   UNL     1       6.472  -0.379  -0.942  1.00  0.00     0.054 A 
ATOM      9  C   UNL     1       8.938   0.782  -1.113  1.00  0.00     0.051 A 
ATOM     10  C   UNL     1       7.464  -0.991  -1.714  1.00  0.00     0.166 A 
ATOM     11  C   UNL     1       8.707  -0.405  -1.800  1.00  0.00     0.165 A 
ATOM     12  O   UNL     1       7.487  -2.142  -2.473  1.00  0.00    -0.454 OA
ATOM     13  O   UNL     1       9.476  -1.217  -2.619  1.00  0.00    -0.454 OA
ATOM     14  C   UNL     1       8.770  -2.376  -2.994  1.00  0.00     0.468 C 
ENDBRANCH   5   6
ENDBRANCH   1   5
TORSDOF 3
ENDMDL
MODEL 5
REMARK VINA RESULT:      -7.4      1.937      2.998
REMARK SMILES CC(=O)CCc1ccc2c(c1)OCO2
REMARK SMILES IDX 4 1 2 2 1 3 3 4 5 5 6 6 7 7 11 8 8 9 10 10 9 11 12 12 14 13
REMARK SMILES IDX 13 14
REMARK H PARENT
REMARK Flexibility Score: inf
ROOT
ATOM      1  C   UNL     1       5.766   1.345  -0.299  1.00  0.00     0.080 C 
ENDROOT
BRANCH   1   2
ATOM      2  C   UNL     1       5.178   1.290   1.069  1.00  0.00     0.130 C 
ATOM      3  C   UNL     1       5.349   0.101   1.946  1.00  0.00     0.087 C 
ATOM      4  O   UNL     1       4.534   2.228   1.512  1.00  0.00    -0.300 OA
ENDBRANCH   1   2
BRANCH   1   5
ATOM      5  C   UNL     1       7.259   1.089  -0.267  1.00  0.00     0.043 C 
BRANCH   5   6
ATOM      6  C   UNL     1       7.606  -0.206  -0.878  1.00  0.00    -0.044 A 
ATOM      7  C   UNL     1       7.628  -0.379  -2.266  1.00  0.00     0.008 A 
ATOM      8  C   UNL     1       7.919  -1.278  -0.073  1.00  0.00     0.054 A 
ATOM      9  C   UNL     1       7.961  -1.618  -2.783  1.00  0.00     0.051 A 
ATOM     10  C   UNL     1       8.256  -2.528  -0.600  1.00  0.00     0.166 A 
ATOM     11  C   UNL     1       8.277  -2.700  -1.966  1.00  0.00     0.165 A 
ATOM     12  O   UNL     1       8.600  -3.731  -0.020  1.00  0.00    -0.454 OA
ATOM     13  O   UNL     1       8.638  -4.018  -2.199  1.00  0.00    -0.454 OA
ATOM     14  C   UNL     1       8.941  -4.682  -0.996  1.00  0.00     0.468 C 
ENDBRANCH   5   6
ENDBRANCH   1   5
TORSDOF 3
ENDMDL
