@<TRIPOS>MOLECULE
/home/cewinharhar/GITHUB/reincatalyze/data/processed/docking_pred/2023-May-22-1902_sub9_nm5_bs15_s42_ex16_mel10_mts1000_k50_ec02_g099_lra9e-4_lrc1e-3/6dc168e099aae66a1c19408847f7f9495b2b5216_ligand_9.pdbqt
 14 15 0 0 0
SMALL
GASTEIGER

@<TRIPOS>ATOM
      1  C          5.7300    3.1970    0.1860 C.3     1  UNL1        0.0800
      2  C          6.5580    3.6820    1.3250 C.2     1  UNL1        0.1300
      3  C          8.0180    3.4110    1.4010 C.3     1  UNL1        0.0870
      4  O          6.0570    4.3210    2.2360 O.2     1  UNL1       -0.3000
      5  C          5.0930    1.8580    0.5000 C.3     1  UNL1        0.0430
      6  C          5.9360    0.7330    0.0550 C.2     1  UNL1       -0.0440
      7  C          6.3840    0.6310   -1.2660 C.2     1  UNL1        0.0080
      8  C          6.2980   -0.2440    0.9540 C.2     1  UNL1        0.0540
      9  C          7.1740   -0.4460   -1.6260 C.2     1  UNL1        0.0510
     10  C          7.0970   -1.3310    0.5860 C.2     1  UNL1        0.1660
     11  C          7.5380   -1.4330   -0.7150 C.2     1  UNL1        0.1650
     12  O          7.5860   -2.4160    1.2810 O.2     1  UNL1       -0.4540
     13  O          8.2970   -2.5900   -0.7910 O.2     1  UNL1       -0.4540
     14  C          8.4290   -3.1950    0.4720 C.3     1  UNL1        0.4680
@<TRIPOS>BOND
     1     9     7    1
     2     9    11    2
     3     7     6    2
     4    13    11    1
     5    13    14    1
     6    11    10    1
     7     6     5    1
     8     6     8    1
     9     1     5    1
    10     1     2    1
    11    14    12    1
    12    10     8    2
    13    10    12    1
    14     2     3    1
    15     2     4    2
