MODEL 1
REMARK VINA RESULT:      -7.5      0.000      0.000
REMARK SMILES CC(=O)CCc1ccc2c(c1)OCO2
REMARK SMILES IDX 4 1 2 2 1 3 3 4 5 5 6 6 7 7 11 8 8 9 10 10 9 11 12 12 14 13
REMARK SMILES IDX 13 14
REMARK H PARENT
REMARK Flexibility Score: inf
ROOT
ATOM      1  C   UNL     1       5.696   3.098   0.194  1.00  0.00     0.080 C 
ENDROOT
BRANCH   1   2
ATOM      2  C   UNL     1       6.525   3.728   1.260  1.00  0.00     0.130 C 
ATOM      3  C   UNL     1       7.989   3.483   1.358  1.00  0.00     0.087 C 
ATOM      4  O   UNL     1       6.022   4.469   2.089  1.00  0.00    -0.300 OA
ENDBRANCH   1   2
BRANCH   1   5
ATOM      5  C   UNL     1       5.116   1.777   0.658  1.00  0.00     0.043 C 
BRANCH   5   6
ATOM      6  C   UNL     1       5.936   0.635   0.215  1.00  0.00    -0.044 A 
ATOM      7  C   UNL     1       6.254  -0.418   1.080  1.00  0.00     0.008 A 
ATOM      8  C   UNL     1       6.404   0.592  -1.079  1.00  0.00     0.054 A 
ATOM      9  C   UNL     1       7.027  -1.464   0.608  1.00  0.00     0.051 A 
ATOM     10  C   UNL     1       7.184  -0.468  -1.551  1.00  0.00     0.166 A 
ATOM     11  C   UNL     1       7.498  -1.504  -0.700  1.00  0.00     0.165 A 
ATOM     12  O   UNL     1       7.761  -0.738  -2.774  1.00  0.00    -0.454 OA
ATOM     13  O   UNL     1       8.269  -2.399  -1.426  1.00  0.00    -0.454 OA
ATOM     14  C   UNL     1       8.383  -1.997  -2.770  1.00  0.00     0.468 C 
ENDBRANCH   5   6
ENDBRANCH   1   5
TORSDOF 3
ENDMDL
MODEL 2
REMARK VINA RESULT:      -7.4      0.983      1.976
REMARK SMILES CC(=O)CCc1ccc2c(c1)OCO2
REMARK SMILES IDX 4 1 2 2 1 3 3 4 5 5 6 6 7 7 11 8 8 9 10 10 9 11 12 12 14 13
REMARK SMILES IDX 13 14
REMARK H PARENT
REMARK Flexibility Score: inf
ROOT
ATOM      1  C   UNL     1       5.730   3.197   0.186  1.00  0.00     0.080 C 
ENDROOT
BRANCH   1   2
ATOM      2  C   UNL     1       6.558   3.682   1.325  1.00  0.00     0.130 C 
ATOM      3  C   UNL     1       8.018   3.411   1.401  1.00  0.00     0.087 C 
ATOM      4  O   UNL     1       6.057   4.321   2.236  1.00  0.00    -0.300 OA
ENDBRANCH   1   2
BRANCH   1   5
ATOM      5  C   UNL     1       5.093   1.858   0.500  1.00  0.00     0.043 C 
BRANCH   5   6
ATOM      6  C   UNL     1       5.936   0.733   0.055  1.00  0.00    -0.044 A 
ATOM      7  C   UNL     1       6.384   0.631  -1.266  1.00  0.00     0.008 A 
ATOM      8  C   UNL     1       6.298  -0.244   0.954  1.00  0.00     0.054 A 
ATOM      9  C   UNL     1       7.174  -0.446  -1.626  1.00  0.00     0.051 A 
ATOM     10  C   UNL     1       7.097  -1.331   0.586  1.00  0.00     0.166 A 
ATOM     11  C   UNL     1       7.538  -1.433  -0.715  1.00  0.00     0.165 A 
ATOM     12  O   UNL     1       7.586  -2.416   1.281  1.00  0.00    -0.454 OA
ATOM     13  O   UNL     1       8.297  -2.590  -0.791  1.00  0.00    -0.454 OA
ATOM     14  C   UNL     1       8.429  -3.195   0.472  1.00  0.00     0.468 C 
ENDBRANCH   5   6
ENDBRANCH   1   5
TORSDOF 3
ENDMDL
MODEL 3
REMARK VINA RESULT:      -7.4      1.389      1.731
REMARK SMILES CC(=O)CCc1ccc2c(c1)OCO2
REMARK SMILES IDX 4 1 2 2 1 3 3 4 5 5 6 6 7 7 11 8 8 9 10 10 9 11 12 12 14 13
REMARK SMILES IDX 13 14
REMARK H PARENT
REMARK Flexibility Score: inf
ROOT
ATOM      1  C   UNL     1       6.236   3.510   0.113  1.00  0.00     0.080 C 
ENDROOT
BRANCH   1   2
ATOM      2  C   UNL     1       6.676   3.886   1.485  1.00  0.00     0.130 C 
ATOM      3  C   UNL     1       8.018   3.513   2.005  1.00  0.00     0.087 C 
ATOM      4  O   UNL     1       5.940   4.515   2.228  1.00  0.00    -0.300 OA
ENDBRANCH   1   2
BRANCH   1   5
ATOM      5  C   UNL     1       5.160   2.443   0.152  1.00  0.00     0.043 C 
BRANCH   5   6
ATOM      6  C   UNL     1       5.699   1.138   0.575  1.00  0.00    -0.044 A 
ATOM      7  C   UNL     1       5.267   0.512   1.749  1.00  0.00     0.008 A 
ATOM      8  C   UNL     1       6.649   0.510  -0.198  1.00  0.00     0.054 A 
ATOM      9  C   UNL     1       5.808  -0.713   2.095  1.00  0.00     0.051 A 
ATOM     10  C   UNL     1       7.193  -0.729   0.156  1.00  0.00     0.166 A 
ATOM     11  C   UNL     1       6.768  -1.345   1.312  1.00  0.00     0.165 A 
ATOM     12  O   UNL     1       8.135  -1.545  -0.434  1.00  0.00    -0.454 OA
ATOM     13  O   UNL     1       7.465  -2.539   1.409  1.00  0.00    -0.454 OA
ATOM     14  C   UNL     1       8.275  -2.748   0.276  1.00  0.00     0.468 C 
ENDBRANCH   5   6
ENDBRANCH   1   5
TORSDOF 3
ENDMDL
MODEL 4
REMARK VINA RESULT:      -7.2      1.493      5.332
REMARK SMILES CC(=O)CCc1ccc2c(c1)OCO2
REMARK SMILES IDX 4 1 2 2 1 3 3 4 5 5 6 6 7 7 11 8 8 9 10 10 9 11 12 12 14 13
REMARK SMILES IDX 13 14
REMARK H PARENT
REMARK Flexibility Score: inf
ROOT
ATOM      1  C   UNL     1       7.026  -1.363  -0.962  1.00  0.00     0.080 C 
ENDROOT
BRANCH   1   2
ATOM      2  C   UNL     1       7.560  -1.686   0.390  1.00  0.00     0.130 C 
ATOM      3  C   UNL     1       6.693  -1.660   1.599  1.00  0.00     0.087 C 
ATOM      4  O   UNL     1       8.733  -1.984   0.546  1.00  0.00    -0.300 OA
ENDBRANCH   1   2
BRANCH   1   5
ATOM      5  C   UNL     1       7.529  -0.017  -1.445  1.00  0.00     0.043 C 
BRANCH   5   6
ATOM      6  C   UNL     1       7.002   1.090  -0.627  1.00  0.00    -0.044 A 
ATOM      7  C   UNL     1       5.631   1.363  -0.560  1.00  0.00     0.008 A 
ATOM      8  C   UNL     1       7.869   1.877   0.096  1.00  0.00     0.054 A 
ATOM      9  C   UNL     1       5.194   2.414   0.225  1.00  0.00     0.051 A 
ATOM     10  C   UNL     1       7.422   2.938   0.889  1.00  0.00     0.166 A 
ATOM     11  C   UNL     1       6.074   3.209   0.954  1.00  0.00     0.165 A 
ATOM     12  O   UNL     1       8.074   3.854   1.688  1.00  0.00    -0.454 OA
ATOM     13  O   UNL     1       5.924   4.296   1.801  1.00  0.00    -0.454 OA
ATOM     14  C   UNL     1       7.157   4.679   2.360  1.00  0.00     0.468 C 
ENDBRANCH   5   6
ENDBRANCH   1   5
TORSDOF 3
ENDMDL
MODEL 5
REMARK VINA RESULT:      -7.1      3.293      4.284
REMARK SMILES CC(=O)CCc1ccc2c(c1)OCO2
REMARK SMILES IDX 4 1 2 2 1 3 3 4 5 5 6 6 7 7 11 8 8 9 10 10 9 11 12 12 14 13
REMARK SMILES IDX 13 14
REMARK H PARENT
REMARK Flexibility Score: inf
ROOT
ATOM      1  C   UNL     1       5.403   1.445   0.541  1.00  0.00     0.080 C 
ENDROOT
BRANCH   1   2
ATOM      2  C   UNL     1       5.126   0.507   1.664  1.00  0.00     0.130 C 
ATOM      3  C   UNL     1       5.849  -0.786   1.797  1.00  0.00     0.087 C 
ATOM      4  O   UNL     1       4.290   0.774   2.512  1.00  0.00    -0.300 OA
ENDBRANCH   1   2
BRANCH   1   5
ATOM      5  C   UNL     1       6.481   2.445   0.912  1.00  0.00     0.043 C 
BRANCH   5   6
ATOM      6  C   UNL     1       7.825   1.844   0.859  1.00  0.00    -0.044 A 
ATOM      7  C   UNL     1       8.352   1.328  -0.331  1.00  0.00     0.008 A 
ATOM      8  C   UNL     1       8.592   1.785   2.001  1.00  0.00     0.054 A 
ATOM      9  C   UNL     1       9.620   0.777  -0.320  1.00  0.00     0.051 A 
ATOM     10  C   UNL     1       9.874   1.227   2.006  1.00  0.00     0.166 A 
ATOM     11  C   UNL     1      10.392   0.719   0.836  1.00  0.00     0.165 A 
ATOM     12  O   UNL     1      10.819   1.053   2.995  1.00  0.00    -0.454 OA
ATOM     13  O   UNL     1      11.658   0.239   1.133  1.00  0.00    -0.454 OA
ATOM     14  C   UNL     1      12.004   0.512   2.470  1.00  0.00     0.468 C 
ENDBRANCH   5   6
ENDBRANCH   1   5
TORSDOF 3
ENDMDL
