@<TRIPOS>MOLECULE
/home/cewinharhar/GITHUB/reincatalyze/data/processed/docking_pred/2023-May-22-1902_sub9_nm5_bs15_s42_ex16_mel10_mts1000_k50_ec02_g099_lra9e-4_lrc1e-3/6dc168e099aae66a1c19408847f7f9495b2b5216_ligand_9.pdbqt
 14 15 0 0 0
SMALL
GASTEIGER

@<TRIPOS>ATOM
      1  C          6.2360    3.5100    0.1130 C.3     1  UNL1        0.0800
      2  C          6.6760    3.8860    1.4850 C.2     1  UNL1        0.1300
      3  C          8.0180    3.5130    2.0050 C.3     1  UNL1        0.0870
      4  O          5.9400    4.5150    2.2280 O.2     1  UNL1       -0.3000
      5  C          5.1600    2.4430    0.1520 C.3     1  UNL1        0.0430
      6  C          5.6990    1.1380    0.5750 C.2     1  UNL1       -0.0440
      7  C          5.2670    0.5120    1.7490 C.2     1  UNL1        0.0080
      8  C          6.6490    0.5100   -0.1980 C.2     1  UNL1        0.0540
      9  C          5.8080   -0.7130    2.0950 C.2     1  UNL1        0.0510
     10  C          7.1930   -0.7290    0.1560 C.2     1  UNL1        0.1660
     11  C          6.7680   -1.3450    1.3120 C.2     1  UNL1        0.1650
     12  O          8.1350   -1.5450   -0.4340 O.2     1  UNL1       -0.4540
     13  O          7.4650   -2.5390    1.4090 O.2     1  UNL1       -0.4540
     14  C          8.2750   -2.7480    0.2760 C.3     1  UNL1        0.4680
@<TRIPOS>BOND
     1    12    10    1
     2    12    14    1
     3     8    10    1
     4     8     6    2
     5     1     5    1
     6     1     2    1
     7     5     6    1
     8    10    11    2
     9    14    13    1
    10     6     7    1
    11    11    13    1
    12    11     9    1
    13     2     3    1
    14     2     4    2
    15     7     9    2
