@<TRIPOS>MOLECULE
/home/cewinharhar/GITHUB/reincatalyze/data/processed/docking_pred/2023-May-22-1902_sub9_nm5_bs15_s42_ex16_mel10_mts1000_k50_ec02_g099_lra9e-4_lrc1e-3/6dc168e099aae66a1c19408847f7f9495b2b5216_ligand_9.pdbqt
 14 15 0 0 0
SMALL
GASTEIGER

@<TRIPOS>ATOM
      1  C          7.0260   -1.3630   -0.9620 C.3     1  UNL1        0.0800
      2  C          7.5600   -1.6860    0.3900 C.2     1  UNL1        0.1300
      3  C          6.6930   -1.6600    1.5990 C.3     1  UNL1        0.0870
      4  O          8.7330   -1.9840    0.5460 O.2     1  UNL1       -0.3000
      5  C          7.5290   -0.0170   -1.4450 C.3     1  UNL1        0.0430
      6  C          7.0020    1.0900   -0.6270 C.2     1  UNL1       -0.0440
      7  C          5.6310    1.3630   -0.5600 C.2     1  UNL1        0.0080
      8  C          7.8690    1.8770    0.0960 C.2     1  UNL1        0.0540
      9  C          5.1940    2.4140    0.2250 C.2     1  UNL1        0.0510
     10  C          7.4220    2.9380    0.8890 C.2     1  UNL1        0.1660
     11  C          6.0740    3.2090    0.9540 C.2     1  UNL1        0.1650
     12  O          8.0740    3.8540    1.6880 O.2     1  UNL1       -0.4540
     13  O          5.9240    4.2960    1.8010 O.2     1  UNL1       -0.4540
     14  C          7.1570    4.6790    2.3600 C.3     1  UNL1        0.4680
@<TRIPOS>BOND
     1     5     1    1
     2     5     6    1
     3     1     2    1
     4     6     7    2
     5     6     8    1
     6     7     9    1
     7     8    10    2
     8     9    11    2
     9     2     4    2
    10     2     3    1
    11    10    11    1
    12    10    12    1
    13    11    13    1
    14    12    14    1
    15    13    14    1
