@<TRIPOS>MOLECULE
/home/cewinharhar/GITHUB/reincatalyze/data/processed/docking_pred/2023-May-22-1902_sub9_nm5_bs15_s42_ex16_mel10_mts1000_k50_ec02_g099_lra9e-4_lrc1e-3/6dc168e099aae66a1c19408847f7f9495b2b5216_ligand_9.pdbqt
 14 15 0 0 0
SMALL
GASTEIGER

@<TRIPOS>ATOM
      1  C          5.4030    1.4450    0.5410 C.3     1  UNL1        0.0800
      2  C          5.1260    0.5070    1.6640 C.2     1  UNL1        0.1300
      3  C          5.8490   -0.7860    1.7970 C.3     1  UNL1        0.0870
      4  O          4.2900    0.7740    2.5120 O.2     1  UNL1       -0.3000
      5  C          6.4810    2.4450    0.9120 C.3     1  UNL1        0.0430
      6  C          7.8250    1.8440    0.8590 C.2     1  UNL1       -0.0440
      7  C          8.3520    1.3280   -0.3310 C.2     1  UNL1        0.0080
      8  C          8.5920    1.7850    2.0010 C.2     1  UNL1        0.0540
      9  C          9.6200    0.7770   -0.3200 C.2     1  UNL1        0.0510
     10  C          9.8740    1.2270    2.0060 C.2     1  UNL1        0.1660
     11  C         10.3920    0.7190    0.8360 C.2     1  UNL1        0.1650
     12  O         10.8190    1.0530    2.9950 O.2     1  UNL1       -0.4540
     13  O         11.6580    0.2390    1.1330 O.2     1  UNL1       -0.4540
     14  C         12.0040    0.5120    2.4700 C.3     1  UNL1        0.4680
@<TRIPOS>BOND
     1     7     9    1
     2     7     6    2
     3     9    11    2
     4     1     5    1
     5     1     2    1
     6    11    13    1
     7    11    10    1
     8     6     5    1
     9     6     8    1
    10    13    14    1
    11     2     3    1
    12     2     4    2
    13     8    10    2
    14    10    12    1
    15    14    12    1
