@<TRIPOS>MOLECULE
/home/cewinharhar/GITHUB/reincatalyze/data/processed/docking_pred/2023-May-22-1902_sub9_nm5_bs15_s42_ex16_mel10_mts1000_k50_ec02_g099_lra9e-4_lrc1e-3/6dc168e099aae66a1c19408847f7f9495b2b5216_ligand_9.pdbqt
 14 15 0 0 0
SMALL
GASTEIGER

@<TRIPOS>ATOM
      1  C          5.6960    3.0980    0.1940 C.3     1  UNL1        0.0800
      2  C          6.5250    3.7280    1.2600 C.2     1  UNL1        0.1300
      3  C          7.9890    3.4830    1.3580 C.3     1  UNL1        0.0870
      4  O          6.0220    4.4690    2.0890 O.2     1  UNL1       -0.3000
      5  C          5.1160    1.7770    0.6580 C.3     1  UNL1        0.0430
      6  C          5.9360    0.6350    0.2150 C.2     1  UNL1       -0.0440
      7  C          6.2540   -0.4180    1.0800 C.2     1  UNL1        0.0080
      8  C          6.4040    0.5920   -1.0790 C.2     1  UNL1        0.0540
      9  C          7.0270   -1.4640    0.6080 C.2     1  UNL1        0.0510
     10  C          7.1840   -0.4680   -1.5510 C.2     1  UNL1        0.1660
     11  C          7.4980   -1.5040   -0.7000 C.2     1  UNL1        0.1650
     12  O          7.7610   -0.7380   -2.7740 O.2     1  UNL1       -0.4540
     13  O          8.2690   -2.3990   -1.4260 O.2     1  UNL1       -0.4540
     14  C          8.3830   -1.9970   -2.7700 C.3     1  UNL1        0.4680
@<TRIPOS>BOND
     1    12    14    1
     2    12    10    1
     3    14    13    1
     4    10     8    1
     5    10    11    2
     6    13    11    1
     7     8     6    2
     8    11     9    1
     9     1     5    1
    10     1     2    1
    11     6     5    1
    12     6     7    1
    13     9     7    2
    14     2     3    1
    15     2     4    2
