@<TRIPOS>MOLECULE
/home/cewinharhar/GITHUB/reincatalyze/data/processed/docking_pred/2023-May-22-1902_sub9_nm5_bs15_s42_ex16_mel10_mts1000_k50_ec02_g099_lra9e-4_lrc1e-3/6e01533e6265e20f53eb8495178921d7241890ed_ligand_9.pdbqt
 14 15 0 0 0
SMALL
GASTEIGER

@<TRIPOS>ATOM
      1  C          5.4540    2.9260    0.1270 C.3     1  UNL1        0.0800
      2  C          6.2530    3.8800    0.9450 C.2     1  UNL1        0.1300
      3  C          7.2700    4.7750    0.3300 C.3     1  UNL1        0.0870
      4  O          6.0960    3.9540    2.1530 O.2     1  UNL1       -0.3000
      5  C          5.1990    1.6350    0.8800 C.3     1  UNL1        0.0430
      6  C          6.0120    0.5250    0.3510 C.2     1  UNL1       -0.0440
      7  C          6.3480   -0.5790    1.1430 C.2     1  UNL1        0.0080
      8  C          6.4550    0.5640   -0.9510 C.2     1  UNL1        0.0540
      9  C          7.1130   -1.5910    0.5930 C.2     1  UNL1        0.0510
     10  C          7.2280   -0.4630   -1.5030 C.2     1  UNL1        0.1660
     11  C          7.5600   -1.5490   -0.7240 C.2     1  UNL1        0.1650
     12  O          7.7820   -0.6550   -2.7510 O.2     1  UNL1       -0.4540
     13  O          8.3180   -2.3950   -1.5180 O.2     1  UNL1       -0.4540
     14  C          8.4070   -1.9100   -2.8370 C.3     1  UNL1        0.4680
@<TRIPOS>BOND
     1    14    12    1
     2    14    13    1
     3    12    10    1
     4    13    11    1
     5    10     8    1
     6    10    11    2
     7     8     6    2
     8    11     9    1
     9     1     5    1
    10     1     2    1
    11     3     2    1
    12     6     5    1
    13     6     7    1
    14     9     7    2
    15     2     4    2
