MODEL 1
REMARK VINA RESULT:      -7.8      0.000      0.000
REMARK SMILES CC(=O)CCc1ccc2c(c1)OCO2
REMARK SMILES IDX 4 1 2 2 1 3 3 4 5 5 6 6 7 7 11 8 8 9 10 10 9 11 12 12 14 13
REMARK SMILES IDX 13 14
REMARK H PARENT
REMARK Flexibility Score: inf
ROOT
ATOM      1  C   UNL     1       5.454   2.926   0.127  1.00  0.00     0.080 C 
ENDROOT
BRANCH   1   2
ATOM      2  C   UNL     1       6.253   3.880   0.945  1.00  0.00     0.130 C 
ATOM      3  C   UNL     1       7.270   4.775   0.330  1.00  0.00     0.087 C 
ATOM      4  O   UNL     1       6.096   3.954   2.153  1.00  0.00    -0.300 OA
ENDBRANCH   1   2
BRANCH   1   5
ATOM      5  C   UNL     1       5.199   1.635   0.880  1.00  0.00     0.043 C 
BRANCH   5   6
ATOM      6  C   UNL     1       6.012   0.525   0.351  1.00  0.00    -0.044 A 
ATOM      7  C   UNL     1       6.348  -0.579   1.143  1.00  0.00     0.008 A 
ATOM      8  C   UNL     1       6.455   0.564  -0.951  1.00  0.00     0.054 A 
ATOM      9  C   UNL     1       7.113  -1.591   0.593  1.00  0.00     0.051 A 
ATOM     10  C   UNL     1       7.228  -0.463  -1.503  1.00  0.00     0.166 A 
ATOM     11  C   UNL     1       7.560  -1.549  -0.724  1.00  0.00     0.165 A 
ATOM     12  O   UNL     1       7.782  -0.655  -2.751  1.00  0.00    -0.454 OA
ATOM     13  O   UNL     1       8.318  -2.395  -1.518  1.00  0.00    -0.454 OA
ATOM     14  C   UNL     1       8.407  -1.910  -2.837  1.00  0.00     0.468 C 
ENDBRANCH   5   6
ENDBRANCH   1   5
TORSDOF 3
ENDMDL
MODEL 2
REMARK VINA RESULT:      -7.6      1.053      2.050
REMARK SMILES CC(=O)CCc1ccc2c(c1)OCO2
REMARK SMILES IDX 4 1 2 2 1 3 3 4 5 5 6 6 7 7 11 8 8 9 10 10 9 11 12 12 14 13
REMARK SMILES IDX 13 14
REMARK H PARENT
REMARK Flexibility Score: inf
ROOT
ATOM      1  C   UNL     1       5.356   2.974   0.172  1.00  0.00     0.080 C 
ENDROOT
BRANCH   1   2
ATOM      2  C   UNL     1       6.302   3.792   0.982  1.00  0.00     0.130 C 
ATOM      3  C   UNL     1       7.223   4.775   0.350  1.00  0.00     0.087 C 
ATOM      4  O   UNL     1       6.349   3.677   2.196  1.00  0.00    -0.300 OA
ENDBRANCH   1   2
BRANCH   1   5
ATOM      5  C   UNL     1       5.057   1.650   0.847  1.00  0.00     0.043 C 
BRANCH   5   6
ATOM      6  C   UNL     1       5.935   0.575   0.354  1.00  0.00    -0.044 A 
ATOM      7  C   UNL     1       6.436   0.578  -0.953  1.00  0.00     0.008 A 
ATOM      8  C   UNL     1       6.281  -0.462   1.191  1.00  0.00     0.054 A 
ATOM      9  C   UNL     1       7.257  -0.458  -1.360  1.00  0.00     0.051 A 
ATOM     10  C   UNL     1       7.112  -1.506   0.775  1.00  0.00     0.166 A 
ATOM     11  C   UNL     1       7.603  -1.504  -0.511  1.00  0.00     0.165 A 
ATOM     12  O   UNL     1       7.593  -2.633   1.408  1.00  0.00    -0.454 OA
ATOM     13  O   UNL     1       8.385  -2.641  -0.643  1.00  0.00    -0.454 OA
ATOM     14  C   UNL     1       8.479  -3.338   0.577  1.00  0.00     0.468 C 
ENDBRANCH   5   6
ENDBRANCH   1   5
TORSDOF 3
ENDMDL
MODEL 3
REMARK VINA RESULT:      -7.6      1.900      2.664
REMARK SMILES CC(=O)CCc1ccc2c(c1)OCO2
REMARK SMILES IDX 4 1 2 2 1 3 3 4 5 5 6 6 7 7 11 8 8 9 10 10 9 11 12 12 14 13
REMARK SMILES IDX 13 14
REMARK H PARENT
REMARK Flexibility Score: inf
ROOT
ATOM      1  C   UNL     1       5.517   1.920   1.269  1.00  0.00     0.080 C 
ENDROOT
BRANCH   1   2
ATOM      2  C   UNL     1       5.065   0.704   2.001  1.00  0.00     0.130 C 
ATOM      3  C   UNL     1       5.942  -0.488   2.153  1.00  0.00     0.087 C 
ATOM      4  O   UNL     1       3.952   0.650   2.499  1.00  0.00    -0.300 OA
ENDBRANCH   1   2
BRANCH   1   5
ATOM      5  C   UNL     1       5.394   1.737  -0.231  1.00  0.00     0.043 C 
BRANCH   5   6
ATOM      6  C   UNL     1       6.562   1.037  -0.794  1.00  0.00    -0.044 A 
ATOM      7  C   UNL     1       7.868   1.475  -0.548  1.00  0.00     0.008 A 
ATOM      8  C   UNL     1       6.376  -0.077  -1.581  1.00  0.00     0.054 A 
ATOM      9  C   UNL     1       8.926   0.778  -1.102  1.00  0.00     0.051 A 
ATOM     10  C   UNL     1       7.449  -0.779  -2.139  1.00  0.00     0.166 A 
ATOM     11  C   UNL     1       8.734  -0.348  -1.898  1.00  0.00     0.165 A 
ATOM     12  O   UNL     1       7.524  -1.896  -2.943  1.00  0.00    -0.454 OA
ATOM     13  O   UNL     1       9.581  -1.219  -2.564  1.00  0.00    -0.454 OA
ATOM     14  C   UNL     1       8.860  -2.269  -3.165  1.00  0.00     0.468 C 
ENDBRANCH   5   6
ENDBRANCH   1   5
TORSDOF 3
ENDMDL
MODEL 4
REMARK VINA RESULT:      -7.2      1.815      2.751
REMARK SMILES CC(=O)CCc1ccc2c(c1)OCO2
REMARK SMILES IDX 4 1 2 2 1 3 3 4 5 5 6 6 7 7 11 8 8 9 10 10 9 11 12 12 14 13
REMARK SMILES IDX 13 14
REMARK H PARENT
REMARK Flexibility Score: inf
ROOT
ATOM      1  C   UNL     1       6.370   1.031   1.141  1.00  0.00     0.080 C 
ENDROOT
BRANCH   1   2
ATOM      2  C   UNL     1       5.105   1.794   0.955  1.00  0.00     0.130 C 
ATOM      3  C   UNL     1       4.875   2.642  -0.246  1.00  0.00     0.087 C 
ATOM      4  O   UNL     1       4.215   1.746   1.788  1.00  0.00    -0.300 OA
ENDBRANCH   1   2
BRANCH   1   5
ATOM      5  C   UNL     1       7.322   1.251  -0.018  1.00  0.00     0.043 C 
BRANCH   5   6
ATOM      6  C   UNL     1       7.616  -0.005  -0.730  1.00  0.00    -0.044 A 
ATOM      7  C   UNL     1       7.540  -0.091  -2.125  1.00  0.00     0.008 A 
ATOM      8  C   UNL     1       7.976  -1.126  -0.018  1.00  0.00     0.054 A 
ATOM      9  C   UNL     1       7.827  -1.296  -2.740  1.00  0.00     0.051 A 
ATOM     10  C   UNL     1       8.267  -2.342  -0.643  1.00  0.00     0.166 A 
ATOM     11  C   UNL     1       8.191  -2.428  -2.016  1.00  0.00     0.165 A 
ATOM     12  O   UNL     1       8.641  -3.579  -0.165  1.00  0.00    -0.454 OA
ATOM     13  O   UNL     1       8.526  -3.729  -2.355  1.00  0.00    -0.454 OA
ATOM     14  C   UNL     1       8.906  -4.469  -1.219  1.00  0.00     0.468 C 
ENDBRANCH   5   6
ENDBRANCH   1   5
TORSDOF 3
ENDMDL
MODEL 5
REMARK VINA RESULT:      -7.2      1.950      3.012
REMARK SMILES CC(=O)CCc1ccc2c(c1)OCO2
REMARK SMILES IDX 4 1 2 2 1 3 3 4 5 5 6 6 7 7 11 8 8 9 10 10 9 11 12 12 14 13
REMARK SMILES IDX 13 14
REMARK H PARENT
REMARK Flexibility Score: inf
ROOT
ATOM      1  C   UNL     1       5.719   1.354  -0.257  1.00  0.00     0.080 C 
ENDROOT
BRANCH   1   2
ATOM      2  C   UNL     1       5.127   1.260   1.107  1.00  0.00     0.130 C 
ATOM      3  C   UNL     1       5.382   0.091   1.990  1.00  0.00     0.087 C 
ATOM      4  O   UNL     1       4.410   2.147   1.542  1.00  0.00    -0.300 OA
ENDBRANCH   1   2
BRANCH   1   5
ATOM      5  C   UNL     1       7.217   1.125  -0.223  1.00  0.00     0.043 C 
BRANCH   5   6
ATOM      6  C   UNL     1       7.589  -0.148  -0.866  1.00  0.00    -0.044 A 
ATOM      7  C   UNL     1       7.620  -0.285  -2.259  1.00  0.00     0.008 A 
ATOM      8  C   UNL     1       7.919  -1.235  -0.088  1.00  0.00     0.054 A 
ATOM      9  C   UNL     1       7.978  -1.503  -2.806  1.00  0.00     0.051 A 
ATOM     10  C   UNL     1       8.280  -2.465  -0.646  1.00  0.00     0.166 A 
ATOM     11  C   UNL     1       8.310  -2.600  -2.016  1.00  0.00     0.165 A 
ATOM     12  O   UNL     1       8.644  -3.675  -0.096  1.00  0.00    -0.454 OA
ATOM     13  O   UNL     1       8.696  -3.904  -2.282  1.00  0.00    -0.454 OA
ATOM     14  C   UNL     1       9.006  -4.594  -1.095  1.00  0.00     0.468 C 
ENDBRANCH   5   6
ENDBRANCH   1   5
TORSDOF 3
ENDMDL
