@<TRIPOS>MOLECULE
/home/cewinharhar/GITHUB/reincatalyze/data/processed/docking_pred/2023-May-22-1902_sub9_nm5_bs15_s42_ex16_mel10_mts1000_k50_ec02_g099_lra9e-4_lrc1e-3/6e01533e6265e20f53eb8495178921d7241890ed_ligand_9.pdbqt
 14 15 0 0 0
SMALL
GASTEIGER

@<TRIPOS>ATOM
      1  C          5.7190    1.3540   -0.2570 C.3     1  UNL1        0.0800
      2  C          5.1270    1.2600    1.1070 C.2     1  UNL1        0.1300
      3  C          5.3820    0.0910    1.9900 C.3     1  UNL1        0.0870
      4  O          4.4100    2.1470    1.5420 O.2     1  UNL1       -0.3000
      5  C          7.2170    1.1250   -0.2230 C.3     1  UNL1        0.0430
      6  C          7.5890   -0.1480   -0.8660 C.2     1  UNL1       -0.0440
      7  C          7.6200   -0.2850   -2.2590 C.2     1  UNL1        0.0080
      8  C          7.9190   -1.2350   -0.0880 C.2     1  UNL1        0.0540
      9  C          7.9780   -1.5030   -2.8060 C.2     1  UNL1        0.0510
     10  C          8.2800   -2.4650   -0.6460 C.2     1  UNL1        0.1660
     11  C          8.3100   -2.6000   -2.0160 C.2     1  UNL1        0.1650
     12  O          8.6440   -3.6750   -0.0960 O.2     1  UNL1       -0.4540
     13  O          8.6960   -3.9040   -2.2820 O.2     1  UNL1       -0.4540
     14  C          9.0060   -4.5940   -1.0950 C.3     1  UNL1        0.4680
@<TRIPOS>BOND
     1     9     7    1
     2     9    11    2
     3    13    11    1
     4    13    14    1
     5     7     6    2
     6    11    10    1
     7    14    12    1
     8     6     5    1
     9     6     8    1
    10    10    12    1
    11    10     8    2
    12     1     5    1
    13     1     2    1
    14     2     4    2
    15     2     3    1
