@<TRIPOS>MOLECULE
/home/cewinharhar/GITHUB/reincatalyze/data/processed/docking_pred/2023-May-22-1902_sub9_nm5_bs15_s42_ex16_mel10_mts1000_k50_ec02_g099_lra9e-4_lrc1e-3/6e6a373552f8835a6ba7a6c6fa001d8bbefa4498_ligand_9.pdbqt
 14 15 0 0 0
SMALL
GASTEIGER

@<TRIPOS>ATOM
      1  C          5.4210    2.9280    0.1130 C.3     1  UNL1        0.0800
      2  C          6.3110    3.7760    0.9550 C.2     1  UNL1        0.1300
      3  C          7.2370    4.7730    0.3530 C.3     1  UNL1        0.0870
      4  O          6.3050    3.6770    2.1710 O.2     1  UNL1       -0.3000
      5  C          5.1100    1.6110    0.7960 C.3     1  UNL1        0.0430
      6  C          5.9680    0.5210    0.2980 C.2     1  UNL1       -0.0440
      7  C          6.3560   -0.5410    1.1230 C.2     1  UNL1        0.0080
      8  C          6.4030    0.5380   -1.0080 C.2     1  UNL1        0.0540
      9  C          7.1620   -1.5360    0.6000 C.2     1  UNL1        0.0510
     10  C          7.2180   -0.4710   -1.5310 C.2     1  UNL1        0.1660
     11  C          7.6010   -1.5160   -0.7200 C.2     1  UNL1        0.1650
     12  O          7.7740   -0.6790   -2.7750 O.2     1  UNL1       -0.4540
     13  O          8.3910   -2.3530   -1.4920 O.2     1  UNL1       -0.4540
     14  C          8.4530   -1.9080   -2.8260 C.3     1  UNL1        0.4680
@<TRIPOS>BOND
     1    14    12    1
     2    14    13    1
     3    12    10    1
     4    10     8    1
     5    10    11    2
     6    13    11    1
     7     8     6    2
     8    11     9    1
     9     1     5    1
    10     1     2    1
    11     6     5    1
    12     6     7    1
    13     3     2    1
    14     9     7    2
    15     2     4    2
