@<TRIPOS>MOLECULE
/home/cewinharhar/GITHUB/reincatalyze/data/processed/docking_pred/2023-May-22-1902_sub9_nm5_bs15_s42_ex16_mel10_mts1000_k50_ec02_g099_lra9e-4_lrc1e-3/6e6a373552f8835a6ba7a6c6fa001d8bbefa4498_ligand_9.pdbqt
 14 15 0 0 0
SMALL
GASTEIGER

@<TRIPOS>ATOM
      1  C          5.8280    1.3810   -0.4170 C.3     1  UNL1        0.0800
      2  C          5.1640    1.3670    0.9160 C.2     1  UNL1        0.1300
      3  C          5.3430    0.2360    1.8660 C.3     1  UNL1        0.0870
      4  O          4.4490    2.2900    1.2700 O.2     1  UNL1       -0.3000
      5  C          7.3070    1.0700   -0.2990 C.3     1  UNL1        0.0430
      6  C          7.6420   -0.2310   -0.9050 C.2     1  UNL1       -0.0440
      7  C          7.6620   -0.4100   -2.2930 C.2     1  UNL1        0.0080
      8  C          7.9460   -1.3030   -0.0970 C.2     1  UNL1        0.0540
      9  C          7.9850   -1.6530   -2.8050 C.2     1  UNL1        0.0510
     10  C          8.2720   -2.5580   -0.6190 C.2     1  UNL1        0.1660
     11  C          8.2910   -2.7350   -1.9850 C.2     1  UNL1        0.1650
     12  O          8.6050   -3.7610   -0.0350 O.2     1  UNL1       -0.4540
     13  O          8.6410   -4.0560   -2.2130 O.2     1  UNL1       -0.4540
     14  C          8.9380   -4.7190   -1.0070 C.3     1  UNL1        0.4680
@<TRIPOS>BOND
     1     9     7    1
     2     9    11    2
     3     7     6    2
     4    13    11    1
     5    13    14    1
     6    11    10    1
     7    14    12    1
     8     6     5    1
     9     6     8    1
    10    10     8    2
    11    10    12    1
    12     1     5    1
    13     1     2    1
    14     2     4    2
    15     2     3    1
