@<TRIPOS>MOLECULE
/home/cewinharhar/GITHUB/reincatalyze/data/processed/docking_pred/2023-May-22-1902_sub9_nm5_bs15_s42_ex16_mel10_mts1000_k50_ec02_g099_lra9e-4_lrc1e-3/6e6a373552f8835a6ba7a6c6fa001d8bbefa4498_ligand_9.pdbqt
 14 15 0 0 0
SMALL
GASTEIGER

@<TRIPOS>ATOM
      1  C          5.4080    2.9560    0.0770 C.3     1  UNL1        0.0800
      2  C          6.2790    3.8100    0.9330 C.2     1  UNL1        0.1300
      3  C          7.2480    4.7730    0.3450 C.3     1  UNL1        0.0870
      4  O          6.2220    3.7420    2.1500 O.2     1  UNL1       -0.3000
      5  C          5.1160    1.6260    0.7430 C.3     1  UNL1        0.0430
      6  C          5.9670    0.5480    0.2080 C.2     1  UNL1       -0.0440
      7  C          6.3680    0.5290   -1.1320 C.2     1  UNL1        0.0080
      8  C          6.3850   -0.4670    1.0390 C.2     1  UNL1        0.0540
      9  C          7.1680   -0.5080   -1.5780 C.2     1  UNL1        0.0510
     10  C          7.1940   -1.5120    0.5830 C.2     1  UNL1        0.1660
     11  C          7.5880   -1.5330   -0.7360 C.2     1  UNL1        0.1650
     12  O          7.7330   -2.6210    1.2010 O.2     1  UNL1       -0.4540
     13  O          8.3700   -2.6650   -0.9030 O.2     1  UNL1       -0.4540
     14  C          8.5630   -3.3350    0.3200 C.3     1  UNL1        0.4680
@<TRIPOS>BOND
     1     9     7    1
     2     9    11    2
     3     7     6    2
     4    13    11    1
     5    13    14    1
     6    11    10    1
     7     1     5    1
     8     1     2    1
     9     6     5    1
    10     6     8    1
    11    14    12    1
    12     3     2    1
    13    10     8    2
    14    10    12    1
    15     2     4    2
