@<TRIPOS>MOLECULE
/home/cewinharhar/GITHUB/reincatalyze/data/processed/docking_pred/2023-May-22-1902_sub9_nm5_bs15_s42_ex16_mel10_mts1000_k50_ec02_g099_lra9e-4_lrc1e-3/6e6a373552f8835a6ba7a6c6fa001d8bbefa4498_ligand_9.pdbqt
 14 15 0 0 0
SMALL
GASTEIGER

@<TRIPOS>ATOM
      1  C          5.5170    1.9240    1.2590 C.3     1  UNL1        0.0800
      2  C          5.0890    0.7040    2.0000 C.2     1  UNL1        0.1300
      3  C          5.9950   -0.4630    2.1700 C.3     1  UNL1        0.0870
      4  O          3.9740    0.6270    2.4900 O.2     1  UNL1       -0.3000
      5  C          5.3940    1.7290   -0.2390 C.3     1  UNL1        0.0430
      6  C          6.5630    1.0230   -0.7960 C.2     1  UNL1       -0.0440
      7  C          7.8700    1.4500   -0.5340 C.2     1  UNL1        0.0080
      8  C          6.3750   -0.0840   -1.5910 C.2     1  UNL1        0.0540
      9  C          8.9270    0.7470   -1.0830 C.2     1  UNL1        0.0510
     10  C          7.4480   -0.7910   -2.1430 C.2     1  UNL1        0.1660
     11  C          8.7340   -0.3720   -1.8870 C.2     1  UNL1        0.1650
     12  O          7.5220   -1.9050   -2.9520 O.2     1  UNL1       -0.4540
     13  O          9.5800   -1.2460   -2.5510 O.2     1  UNL1       -0.4540
     14  C          8.8570   -2.2860   -3.1640 C.3     1  UNL1        0.4680
@<TRIPOS>BOND
     1    14    12    1
     2    14    13    1
     3    12    10    1
     4    13    11    1
     5    10    11    2
     6    10     8    1
     7    11     9    1
     8     8     6    2
     9     9     7    2
    10     6     7    1
    11     6     5    1
    12     5     1    1
    13     1     2    1
    14     2     3    1
    15     2     4    2
