MODEL 1
REMARK VINA RESULT:      -8.0      0.000      0.000
REMARK SMILES CC(=O)CCc1ccc2c(c1)OCO2
REMARK SMILES IDX 4 1 2 2 1 3 3 4 5 5 6 6 7 7 11 8 8 9 10 10 9 11 12 12 14 13
REMARK SMILES IDX 13 14
REMARK H PARENT
REMARK Flexibility Score: inf
ROOT
ATOM      1  C   UNL     1       5.429   2.935   0.069  1.00  0.00     0.080 C 
ENDROOT
BRANCH   1   2
ATOM      2  C   UNL     1       6.295   3.789   0.929  1.00  0.00     0.130 C 
ATOM      3  C   UNL     1       7.247   4.773   0.347  1.00  0.00     0.087 C 
ATOM      4  O   UNL     1       6.249   3.704   2.145  1.00  0.00    -0.300 OA
ENDBRANCH   1   2
BRANCH   1   5
ATOM      5  C   UNL     1       5.106   1.619   0.747  1.00  0.00     0.043 C 
BRANCH   5   6
ATOM      6  C   UNL     1       5.960   0.525   0.251  1.00  0.00    -0.044 A 
ATOM      7  C   UNL     1       6.313  -0.557   1.067  1.00  0.00     0.008 A 
ATOM      8  C   UNL     1       6.425   0.555  -1.044  1.00  0.00     0.054 A 
ATOM      9  C   UNL     1       7.116  -1.555   0.547  1.00  0.00     0.051 A 
ATOM     10  C   UNL     1       7.236  -0.457  -1.565  1.00  0.00     0.166 A 
ATOM     11  C   UNL     1       7.585  -1.521  -0.763  1.00  0.00     0.165 A 
ATOM     12  O   UNL     1       7.817  -0.653  -2.800  1.00  0.00    -0.454 OA
ATOM     13  O   UNL     1       8.380  -2.357  -1.530  1.00  0.00    -0.454 OA
ATOM     14  C   UNL     1       8.479  -1.891  -2.855  1.00  0.00     0.468 C 
ENDBRANCH   5   6
ENDBRANCH   1   5
TORSDOF 3
ENDMDL
MODEL 2
REMARK VINA RESULT:      -7.8      0.978      1.962
REMARK SMILES CC(=O)CCc1ccc2c(c1)OCO2
REMARK SMILES IDX 4 1 2 2 1 3 3 4 5 5 6 6 7 7 11 8 8 9 10 10 9 11 12 12 14 13
REMARK SMILES IDX 13 14
REMARK H PARENT
REMARK Flexibility Score: inf
ROOT
ATOM      1  C   UNL     1       5.482   2.894   0.210  1.00  0.00     0.080 C 
ENDROOT
BRANCH   1   2
ATOM      2  C   UNL     1       6.290   3.872   0.991  1.00  0.00     0.130 C 
ATOM      3  C   UNL     1       7.272   4.775   0.334  1.00  0.00     0.087 C 
ATOM      4  O   UNL     1       6.168   3.959   2.203  1.00  0.00    -0.300 OA
ENDBRANCH   1   2
BRANCH   1   5
ATOM      5  C   UNL     1       5.334   1.582   0.956  1.00  0.00     0.043 C 
BRANCH   5   6
ATOM      6  C   UNL     1       6.112   0.503   0.322  1.00  0.00    -0.044 A 
ATOM      7  C   UNL     1       6.401   0.514  -1.047  1.00  0.00     0.008 A 
ATOM      8  C   UNL     1       6.572  -0.545   1.086  1.00  0.00     0.054 A 
ATOM      9  C   UNL     1       7.136  -0.526  -1.587  1.00  0.00     0.051 A 
ATOM     10  C   UNL     1       7.315  -1.594   0.536  1.00  0.00     0.166 A 
ATOM     11  C   UNL     1       7.599  -1.584  -0.811  1.00  0.00     0.165 A 
ATOM     12  O   UNL     1       7.876  -2.732   1.076  1.00  0.00    -0.454 OA
ATOM     13  O   UNL     1       8.337  -2.728  -1.073  1.00  0.00    -0.454 OA
ATOM     14  C   UNL     1       8.613  -3.437   0.111  1.00  0.00     0.468 C 
ENDBRANCH   5   6
ENDBRANCH   1   5
TORSDOF 3
ENDMDL
MODEL 3
REMARK VINA RESULT:      -7.6      1.875      2.614
REMARK SMILES CC(=O)CCc1ccc2c(c1)OCO2
REMARK SMILES IDX 4 1 2 2 1 3 3 4 5 5 6 6 7 7 11 8 8 9 10 10 9 11 12 12 14 13
REMARK SMILES IDX 13 14
REMARK H PARENT
REMARK Flexibility Score: inf
ROOT
ATOM      1  C   UNL     1       5.497   1.935   1.254  1.00  0.00     0.080 C 
ENDROOT
BRANCH   1   2
ATOM      2  C   UNL     1       5.060   0.719   1.994  1.00  0.00     0.130 C 
ATOM      3  C   UNL     1       5.950  -0.463   2.148  1.00  0.00     0.087 C 
ATOM      4  O   UNL     1       3.951   0.657   2.500  1.00  0.00    -0.300 OA
ENDBRANCH   1   2
BRANCH   1   5
ATOM      5  C   UNL     1       5.376   1.740  -0.245  1.00  0.00     0.043 C 
BRANCH   5   6
ATOM      6  C   UNL     1       6.547   1.038  -0.800  1.00  0.00    -0.044 A 
ATOM      7  C   UNL     1       7.853   1.473  -0.543  1.00  0.00     0.008 A 
ATOM      8  C   UNL     1       6.365  -0.074  -1.591  1.00  0.00     0.054 A 
ATOM      9  C   UNL     1       8.913   0.775  -1.090  1.00  0.00     0.051 A 
ATOM     10  C   UNL     1       7.441  -0.777  -2.142  1.00  0.00     0.166 A 
ATOM     11  C   UNL     1       8.725  -0.349  -1.890  1.00  0.00     0.165 A 
ATOM     12  O   UNL     1       7.520  -1.893  -2.947  1.00  0.00    -0.454 OA
ATOM     13  O   UNL     1       9.575  -1.221  -2.552  1.00  0.00    -0.454 OA
ATOM     14  C   UNL     1       8.857  -2.267  -3.160  1.00  0.00     0.468 C 
ENDBRANCH   5   6
ENDBRANCH   1   5
TORSDOF 3
ENDMDL
MODEL 4
REMARK VINA RESULT:      -7.5      1.951      3.026
REMARK SMILES CC(=O)CCc1ccc2c(c1)OCO2
REMARK SMILES IDX 4 1 2 2 1 3 3 4 5 5 6 6 7 7 11 8 8 9 10 10 9 11 12 12 14 13
REMARK SMILES IDX 13 14
REMARK H PARENT
REMARK Flexibility Score: inf
ROOT
ATOM      1  C   UNL     1       5.742   1.313  -0.374  1.00  0.00     0.080 C 
ENDROOT
BRANCH   1   2
ATOM      2  C   UNL     1       5.165   1.317   1.000  1.00  0.00     0.130 C 
ATOM      3  C   UNL     1       5.368   0.178   1.935  1.00  0.00     0.087 C 
ATOM      4  O   UNL     1       4.504   2.261   1.400  1.00  0.00    -0.300 OA
ENDBRANCH   1   2
BRANCH   1   5
ATOM      5  C   UNL     1       7.242   1.100  -0.340  1.00  0.00     0.043 C 
BRANCH   5   6
ATOM      6  C   UNL     1       7.623  -0.200  -0.920  1.00  0.00    -0.044 A 
ATOM      7  C   UNL     1       7.710  -0.387  -2.305  1.00  0.00     0.008 A 
ATOM      8  C   UNL     1       7.903  -1.261  -0.090  1.00  0.00     0.054 A 
ATOM      9  C   UNL     1       8.073  -1.630  -2.792  1.00  0.00     0.051 A 
ATOM     10  C   UNL     1       8.270  -2.515  -0.588  1.00  0.00     0.166 A 
ATOM     11  C   UNL     1       8.355  -2.701  -1.950  1.00  0.00     0.165 A 
ATOM     12  O   UNL     1       8.592  -3.710   0.020  1.00  0.00    -0.454 OA
ATOM     13  O   UNL     1       8.733  -4.019  -2.152  1.00  0.00    -0.454 OA
ATOM     14  C   UNL     1       8.982  -4.670  -0.928  1.00  0.00     0.468 C 
ENDBRANCH   5   6
ENDBRANCH   1   5
TORSDOF 3
ENDMDL
MODEL 5
REMARK VINA RESULT:      -7.4      1.815      2.825
REMARK SMILES CC(=O)CCc1ccc2c(c1)OCO2
REMARK SMILES IDX 4 1 2 2 1 3 3 4 5 5 6 6 7 7 11 8 8 9 10 10 9 11 12 12 14 13
REMARK SMILES IDX 13 14
REMARK H PARENT
REMARK Flexibility Score: inf
ROOT
ATOM      1  C   UNL     1       6.283   0.874   1.051  1.00  0.00     0.080 C 
ENDROOT
BRANCH   1   2
ATOM      2  C   UNL     1       5.087   1.754   0.931  1.00  0.00     0.130 C 
ATOM      3  C   UNL     1       4.894   2.653  -0.237  1.00  0.00     0.087 C 
ATOM      4  O   UNL     1       4.226   1.761   1.796  1.00  0.00    -0.300 OA
ENDBRANCH   1   2
BRANCH   1   5
ATOM      5  C   UNL     1       7.228   1.068  -0.118  1.00  0.00     0.043 C 
BRANCH   5   6
ATOM      6  C   UNL     1       7.573  -0.213  -0.760  1.00  0.00    -0.044 A 
ATOM      7  C   UNL     1       7.573  -0.359  -2.152  1.00  0.00     0.008 A 
ATOM      8  C   UNL     1       7.907  -1.298   0.018  1.00  0.00     0.054 A 
ATOM      9  C   UNL     1       7.906  -1.585  -2.698  1.00  0.00     0.051 A 
ATOM     10  C   UNL     1       8.243  -2.536  -0.539  1.00  0.00     0.166 A 
ATOM     11  C   UNL     1       8.242  -2.680  -1.908  1.00  0.00     0.165 A 
ATOM     12  O   UNL     1       8.605  -3.747   0.012  1.00  0.00    -0.454 OA
ATOM     13  O   UNL     1       8.609  -3.991  -2.173  1.00  0.00    -0.454 OA
ATOM     14  C   UNL     1       8.936  -4.677  -0.988  1.00  0.00     0.468 C 
ENDBRANCH   5   6
ENDBRANCH   1   5
TORSDOF 3
ENDMDL
