@<TRIPOS>MOLECULE
/home/cewinharhar/GITHUB/reincatalyze/data/processed/docking_pred/2023-May-22-1902_sub9_nm5_bs15_s42_ex16_mel10_mts1000_k50_ec02_g099_lra9e-4_lrc1e-3/6eca206a948153dc2868ed9d680cd756ab453321_ligand_9.pdbqt
 14 15 0 0 0
SMALL
GASTEIGER

@<TRIPOS>ATOM
      1  C          6.2830    0.8740    1.0510 C.3     1  UNL1        0.0800
      2  C          5.0870    1.7540    0.9310 C.2     1  UNL1        0.1300
      3  C          4.8940    2.6530   -0.2370 C.3     1  UNL1        0.0870
      4  O          4.2260    1.7610    1.7960 O.2     1  UNL1       -0.3000
      5  C          7.2280    1.0680   -0.1180 C.3     1  UNL1        0.0430
      6  C          7.5730   -0.2130   -0.7600 C.2     1  UNL1       -0.0440
      7  C          7.5730   -0.3590   -2.1520 C.2     1  UNL1        0.0080
      8  C          7.9070   -1.2980    0.0180 C.2     1  UNL1        0.0540
      9  C          7.9060   -1.5850   -2.6980 C.2     1  UNL1        0.0510
     10  C          8.2430   -2.5360   -0.5390 C.2     1  UNL1        0.1660
     11  C          8.2420   -2.6800   -1.9080 C.2     1  UNL1        0.1650
     12  O          8.6050   -3.7470    0.0120 O.2     1  UNL1       -0.4540
     13  O          8.6090   -3.9910   -2.1730 O.2     1  UNL1       -0.4540
     14  C          8.9360   -4.6770   -0.9880 C.3     1  UNL1        0.4680
@<TRIPOS>BOND
     1     9     7    1
     2     9    11    2
     3    13    11    1
     4    13    14    1
     5     7     6    2
     6    11    10    1
     7    14    12    1
     8     6     5    1
     9     6     8    1
    10    10    12    1
    11    10     8    2
    12     3     2    1
    13     5     1    1
    14     2     1    1
    15     2     4    2
