MODEL 1
REMARK VINA RESULT:      -7.9      0.000      0.000
REMARK SMILES CC(=O)CCc1ccc2c(c1)OCO2
REMARK SMILES IDX 4 1 2 2 1 3 3 4 5 5 6 6 7 7 11 8 8 9 10 10 9 11 12 12 14 13
REMARK SMILES IDX 13 14
REMARK H PARENT
REMARK Flexibility Score: inf
ROOT
ATOM      1  C   UNL     1       5.426   2.931   0.127  1.00  0.00     0.080 C 
ENDROOT
BRANCH   1   2
ATOM      2  C   UNL     1       6.269   3.836   0.956  1.00  0.00     0.130 C 
ATOM      3  C   UNL     1       7.246   4.775   0.340  1.00  0.00     0.087 C 
ATOM      4  O   UNL     1       6.183   3.833   2.173  1.00  0.00    -0.300 OA
ENDBRANCH   1   2
BRANCH   1   5
ATOM      5  C   UNL     1       5.140   1.629   0.850  1.00  0.00     0.043 C 
BRANCH   5   6
ATOM      6  C   UNL     1       5.970   0.525   0.335  1.00  0.00    -0.044 A 
ATOM      7  C   UNL     1       6.308  -0.572   1.135  1.00  0.00     0.008 A 
ATOM      8  C   UNL     1       6.425   0.562  -0.963  1.00  0.00     0.054 A 
ATOM      9  C   UNL     1       7.089  -1.579   0.598  1.00  0.00     0.051 A 
ATOM     10  C   UNL     1       7.214  -0.459  -1.502  1.00  0.00     0.166 A 
ATOM     11  C   UNL     1       7.548  -1.538  -0.715  1.00  0.00     0.165 A 
ATOM     12  O   UNL     1       7.782  -0.652  -2.743  1.00  0.00    -0.454 OA
ATOM     13  O   UNL     1       8.323  -2.380  -1.498  1.00  0.00    -0.454 OA
ATOM     14  C   UNL     1       8.420  -1.901  -2.818  1.00  0.00     0.468 C 
ENDBRANCH   5   6
ENDBRANCH   1   5
TORSDOF 3
ENDMDL
MODEL 2
REMARK VINA RESULT:      -7.9      0.980      1.970
REMARK SMILES CC(=O)CCc1ccc2c(c1)OCO2
REMARK SMILES IDX 4 1 2 2 1 3 3 4 5 5 6 6 7 7 11 8 8 9 10 10 9 11 12 12 14 13
REMARK SMILES IDX 13 14
REMARK H PARENT
REMARK Flexibility Score: inf
ROOT
ATOM      1  C   UNL     1       5.440   2.963   0.111  1.00  0.00     0.080 C 
ENDROOT
BRANCH   1   2
ATOM      2  C   UNL     1       6.327   3.802   0.966  1.00  0.00     0.130 C 
ATOM      3  C   UNL     1       7.286   4.774   0.377  1.00  0.00     0.087 C 
ATOM      4  O   UNL     1       6.291   3.713   2.182  1.00  0.00    -0.300 OA
ENDBRANCH   1   2
BRANCH   1   5
ATOM      5  C   UNL     1       5.146   1.629   0.767  1.00  0.00     0.043 C 
BRANCH   5   6
ATOM      6  C   UNL     1       5.991   0.552   0.220  1.00  0.00    -0.044 A 
ATOM      7  C   UNL     1       6.381   0.538  -1.124  1.00  0.00     0.008 A 
ATOM      8  C   UNL     1       6.415  -0.466   1.043  1.00  0.00     0.054 A 
ATOM      9  C   UNL     1       7.176  -0.498  -1.581  1.00  0.00     0.051 A 
ATOM     10  C   UNL     1       7.220  -1.511   0.576  1.00  0.00     0.166 A 
ATOM     11  C   UNL     1       7.603  -1.527  -0.746  1.00  0.00     0.165 A 
ATOM     12  O   UNL     1       7.763  -2.622   1.185  1.00  0.00    -0.454 OA
ATOM     13  O   UNL     1       8.382  -2.659  -0.924  1.00  0.00    -0.454 OA
ATOM     14  C   UNL     1       8.584  -3.333   0.295  1.00  0.00     0.468 C 
ENDBRANCH   5   6
ENDBRANCH   1   5
TORSDOF 3
ENDMDL
MODEL 3
REMARK VINA RESULT:      -7.7      1.886      2.638
REMARK SMILES CC(=O)CCc1ccc2c(c1)OCO2
REMARK SMILES IDX 4 1 2 2 1 3 3 4 5 5 6 6 7 7 11 8 8 9 10 10 9 11 12 12 14 13
REMARK SMILES IDX 13 14
REMARK H PARENT
REMARK Flexibility Score: inf
ROOT
ATOM      1  C   UNL     1       5.531   1.939   1.255  1.00  0.00     0.080 C 
ENDROOT
BRANCH   1   2
ATOM      2  C   UNL     1       5.113   0.720   2.002  1.00  0.00     0.130 C 
ATOM      3  C   UNL     1       6.032  -0.435   2.188  1.00  0.00     0.087 C 
ATOM      4  O   UNL     1       3.996   0.633   2.485  1.00  0.00    -0.300 OA
ENDBRANCH   1   2
BRANCH   1   5
ATOM      5  C   UNL     1       5.404   1.739  -0.242  1.00  0.00     0.043 C 
BRANCH   5   6
ATOM      6  C   UNL     1       6.570   1.030  -0.799  1.00  0.00    -0.044 A 
ATOM      7  C   UNL     1       7.878   1.452  -0.537  1.00  0.00     0.008 A 
ATOM      8  C   UNL     1       6.379  -0.076  -1.596  1.00  0.00     0.054 A 
ATOM      9  C   UNL     1       8.933   0.747  -1.087  1.00  0.00     0.051 A 
ATOM     10  C   UNL     1       7.449  -0.786  -2.148  1.00  0.00     0.166 A 
ATOM     11  C   UNL     1       8.737  -0.371  -1.892  1.00  0.00     0.165 A 
ATOM     12  O   UNL     1       7.519  -1.898  -2.960  1.00  0.00    -0.454 OA
ATOM     13  O   UNL     1       9.580  -1.246  -2.558  1.00  0.00    -0.454 OA
ATOM     14  C   UNL     1       8.853  -2.283  -3.172  1.00  0.00     0.468 C 
ENDBRANCH   5   6
ENDBRANCH   1   5
TORSDOF 3
ENDMDL
MODEL 4
REMARK VINA RESULT:      -7.5      1.955      3.043
REMARK SMILES CC(=O)CCc1ccc2c(c1)OCO2
REMARK SMILES IDX 4 1 2 2 1 3 3 4 5 5 6 6 7 7 11 8 8 9 10 10 9 11 12 12 14 13
REMARK SMILES IDX 13 14
REMARK H PARENT
REMARK Flexibility Score: inf
ROOT
ATOM      1  C   UNL     1       5.766   1.321  -0.428  1.00  0.00     0.080 C 
ENDROOT
BRANCH   1   2
ATOM      2  C   UNL     1       5.175   1.353   0.938  1.00  0.00     0.130 C 
ATOM      3  C   UNL     1       5.329   0.214   1.883  1.00  0.00     0.087 C 
ATOM      4  O   UNL     1       4.542   2.322   1.325  1.00  0.00    -0.300 OA
ENDBRANCH   1   2
BRANCH   1   5
ATOM      5  C   UNL     1       7.264   1.099  -0.375  1.00  0.00     0.043 C 
BRANCH   5   6
ATOM      6  C   UNL     1       7.644  -0.205  -0.948  1.00  0.00    -0.044 A 
ATOM      7  C   UNL     1       7.749  -0.396  -2.331  1.00  0.00     0.008 A 
ATOM      8  C   UNL     1       7.906  -1.267  -0.113  1.00  0.00     0.054 A 
ATOM      9  C   UNL     1       8.110  -1.641  -2.811  1.00  0.00     0.051 A 
ATOM     10  C   UNL     1       8.271  -2.524  -0.603  1.00  0.00     0.166 A 
ATOM     11  C   UNL     1       8.373  -2.713  -1.963  1.00  0.00     0.165 A 
ATOM     12  O   UNL     1       8.578  -3.720   0.012  1.00  0.00    -0.454 OA
ATOM     13  O   UNL     1       8.746  -4.034  -2.158  1.00  0.00    -0.454 OA
ATOM     14  C   UNL     1       8.974  -4.684  -0.930  1.00  0.00     0.468 C 
ENDBRANCH   5   6
ENDBRANCH   1   5
TORSDOF 3
ENDMDL
MODEL 5
REMARK VINA RESULT:      -7.4      1.616      2.700
REMARK SMILES CC(=O)CCc1ccc2c(c1)OCO2
REMARK SMILES IDX 4 1 2 2 1 3 3 4 5 5 6 6 7 7 11 8 8 9 10 10 9 11 12 12 14 13
REMARK SMILES IDX 13 14
REMARK H PARENT
REMARK Flexibility Score: inf
ROOT
ATOM      1  C   UNL     1       5.799   1.349  -0.417  1.00  0.00     0.080 C 
ENDROOT
BRANCH   1   2
ATOM      2  C   UNL     1       5.392   2.369   0.589  1.00  0.00     0.130 C 
ATOM      3  C   UNL     1       6.142   3.642   0.756  1.00  0.00     0.087 C 
ATOM      4  O   UNL     1       4.425   2.187   1.310  1.00  0.00    -0.300 OA
ENDBRANCH   1   2
BRANCH   1   5
ATOM      5  C   UNL     1       7.292   1.091  -0.368  1.00  0.00     0.043 C 
BRANCH   5   6
ATOM      6  C   UNL     1       7.639  -0.220  -0.943  1.00  0.00    -0.044 A 
ATOM      7  C   UNL     1       7.693  -0.423  -2.327  1.00  0.00     0.008 A 
ATOM      8  C   UNL     1       7.922  -1.278  -0.109  1.00  0.00     0.054 A 
ATOM      9  C   UNL     1       8.026  -1.676  -2.809  1.00  0.00     0.051 A 
ATOM     10  C   UNL     1       8.259  -2.542  -0.601  1.00  0.00     0.166 A 
ATOM     11  C   UNL     1       8.311  -2.743  -1.963  1.00  0.00     0.165 A 
ATOM     12  O   UNL     1       8.577  -3.735   0.012  1.00  0.00    -0.454 OA
ATOM     13  O   UNL     1       8.664  -4.069  -2.159  1.00  0.00    -0.454 OA
ATOM     14  C   UNL     1       8.931  -4.710  -0.935  1.00  0.00     0.468 C 
ENDBRANCH   5   6
ENDBRANCH   1   5
TORSDOF 3
ENDMDL
