@<TRIPOS>MOLECULE
/home/cewinharhar/GITHUB/reincatalyze/data/processed/docking_pred/2023-May-22-1902_sub9_nm5_bs15_s42_ex16_mel10_mts1000_k50_ec02_g099_lra9e-4_lrc1e-3/7076afde4386affa59e586c5ec9b2181426a643f_ligand_9.pdbqt
 14 15 0 0 0
SMALL
GASTEIGER

@<TRIPOS>ATOM
      1  C          5.4400    2.9630    0.1110 C.3     1  UNL1        0.0800
      2  C          6.3270    3.8020    0.9660 C.2     1  UNL1        0.1300
      3  C          7.2860    4.7740    0.3770 C.3     1  UNL1        0.0870
      4  O          6.2910    3.7130    2.1820 O.2     1  UNL1       -0.3000
      5  C          5.1460    1.6290    0.7670 C.3     1  UNL1        0.0430
      6  C          5.9910    0.5520    0.2200 C.2     1  UNL1       -0.0440
      7  C          6.3810    0.5380   -1.1240 C.2     1  UNL1        0.0080
      8  C          6.4150   -0.4660    1.0430 C.2     1  UNL1        0.0540
      9  C          7.1760   -0.4980   -1.5810 C.2     1  UNL1        0.0510
     10  C          7.2200   -1.5110    0.5760 C.2     1  UNL1        0.1660
     11  C          7.6030   -1.5270   -0.7460 C.2     1  UNL1        0.1650
     12  O          7.7630   -2.6220    1.1850 O.2     1  UNL1       -0.4540
     13  O          8.3820   -2.6590   -0.9240 O.2     1  UNL1       -0.4540
     14  C          8.5840   -3.3330    0.2950 C.3     1  UNL1        0.4680
@<TRIPOS>BOND
     1     9     7    1
     2     9    11    2
     3     7     6    2
     4    13    11    1
     5    13    14    1
     6    11    10    1
     7     1     5    1
     8     1     2    1
     9     6     5    1
    10     6     8    1
    11    14    12    1
    12     3     2    1
    13    10     8    2
    14    10    12    1
    15     2     4    2
