@<TRIPOS>MOLECULE
/home/cewinharhar/GITHUB/reincatalyze/data/processed/docking_pred/2023-May-22-1902_sub9_nm5_bs15_s42_ex16_mel10_mts1000_k50_ec02_g099_lra9e-4_lrc1e-3/7076afde4386affa59e586c5ec9b2181426a643f_ligand_9.pdbqt
 14 15 0 0 0
SMALL
GASTEIGER

@<TRIPOS>ATOM
      1  C          5.7990    1.3490   -0.4170 C.3     1  UNL1        0.0800
      2  C          5.3920    2.3690    0.5890 C.2     1  UNL1        0.1300
      3  C          6.1420    3.6420    0.7560 C.3     1  UNL1        0.0870
      4  O          4.4250    2.1870    1.3100 O.2     1  UNL1       -0.3000
      5  C          7.2920    1.0910   -0.3680 C.3     1  UNL1        0.0430
      6  C          7.6390   -0.2200   -0.9430 C.2     1  UNL1       -0.0440
      7  C          7.6930   -0.4230   -2.3270 C.2     1  UNL1        0.0080
      8  C          7.9220   -1.2780   -0.1090 C.2     1  UNL1        0.0540
      9  C          8.0260   -1.6760   -2.8090 C.2     1  UNL1        0.0510
     10  C          8.2590   -2.5420   -0.6010 C.2     1  UNL1        0.1660
     11  C          8.3110   -2.7430   -1.9630 C.2     1  UNL1        0.1650
     12  O          8.5770   -3.7350    0.0120 O.2     1  UNL1       -0.4540
     13  O          8.6640   -4.0690   -2.1590 O.2     1  UNL1       -0.4540
     14  C          8.9310   -4.7100   -0.9350 C.3     1  UNL1        0.4680
@<TRIPOS>BOND
     1     9     7    1
     2     9    11    2
     3     7     6    2
     4    13    11    1
     5    13    14    1
     6    11    10    1
     7     6     5    1
     8     6     8    1
     9    14    12    1
    10    10     8    2
    11    10    12    1
    12     1     5    1
    13     1     2    1
    14     2     3    1
    15     2     4    2
