@<TRIPOS>MOLECULE
/home/cewinharhar/GITHUB/reincatalyze/data/processed/docking_pred/2023-May-22-1902_sub9_nm5_bs15_s42_ex16_mel10_mts1000_k50_ec02_g099_lra9e-4_lrc1e-3/7076afde4386affa59e586c5ec9b2181426a643f_ligand_9.pdbqt
 14 15 0 0 0
SMALL
GASTEIGER

@<TRIPOS>ATOM
      1  C          5.4260    2.9310    0.1270 C.3     1  UNL1        0.0800
      2  C          6.2690    3.8360    0.9560 C.2     1  UNL1        0.1300
      3  C          7.2460    4.7750    0.3400 C.3     1  UNL1        0.0870
      4  O          6.1830    3.8330    2.1730 O.2     1  UNL1       -0.3000
      5  C          5.1400    1.6290    0.8500 C.3     1  UNL1        0.0430
      6  C          5.9700    0.5250    0.3350 C.2     1  UNL1       -0.0440
      7  C          6.3080   -0.5720    1.1350 C.2     1  UNL1        0.0080
      8  C          6.4250    0.5620   -0.9630 C.2     1  UNL1        0.0540
      9  C          7.0890   -1.5790    0.5980 C.2     1  UNL1        0.0510
     10  C          7.2140   -0.4590   -1.5020 C.2     1  UNL1        0.1660
     11  C          7.5480   -1.5380   -0.7150 C.2     1  UNL1        0.1650
     12  O          7.7820   -0.6520   -2.7430 O.2     1  UNL1       -0.4540
     13  O          8.3230   -2.3800   -1.4980 O.2     1  UNL1       -0.4540
     14  C          8.4200   -1.9010   -2.8180 C.3     1  UNL1        0.4680
@<TRIPOS>BOND
     1    14    12    1
     2    14    13    1
     3    12    10    1
     4    10     8    1
     5    10    11    2
     6    13    11    1
     7     8     6    2
     8    11     9    1
     9     1     5    1
    10     1     2    1
    11     6     5    1
    12     6     7    1
    13     3     2    1
    14     9     7    2
    15     2     4    2
