@<TRIPOS>MOLECULE
/home/cewinharhar/GITHUB/reincatalyze/data/processed/docking_pred/2023-May-22-1902_sub9_nm5_bs15_s42_ex16_mel10_mts1000_k50_ec02_g099_lra9e-4_lrc1e-3/718d515b24ba45f014f0b5b5cf87c837722ccc26_ligand_9.pdbqt
 14 15 0 0 0
SMALL
GASTEIGER

@<TRIPOS>ATOM
      1  C          5.5120    1.9390    1.2540 C.3     1  UNL1        0.0800
      2  C          5.0880    0.7210    2.0000 C.2     1  UNL1        0.1300
      3  C          5.9980   -0.4420    2.1770 C.3     1  UNL1        0.0870
      4  O          3.9730    0.6420    2.4900 O.2     1  UNL1       -0.3000
      5  C          5.3880    1.7380   -0.2430 C.3     1  UNL1        0.0430
      6  C          6.5560    1.0320   -0.7990 C.2     1  UNL1       -0.0440
      7  C          7.8630    1.4590   -0.5370 C.2     1  UNL1        0.0080
      8  C          6.3690   -0.0760   -1.5930 C.2     1  UNL1        0.0540
      9  C          8.9200    0.7560   -1.0850 C.2     1  UNL1        0.0510
     10  C          7.4410   -0.7840   -2.1440 C.2     1  UNL1        0.1660
     11  C          8.7280   -0.3640   -1.8880 C.2     1  UNL1        0.1650
     12  O          7.5160   -1.8980   -2.9530 O.2     1  UNL1       -0.4540
     13  O          9.5740   -1.2380   -2.5510 O.2     1  UNL1       -0.4540
     14  C          8.8510   -2.2790   -3.1640 C.3     1  UNL1        0.4680
@<TRIPOS>BOND
     1    14    12    1
     2    14    13    1
     3    12    10    1
     4    13    11    1
     5    10    11    2
     6    10     8    1
     7    11     9    1
     8     8     6    2
     9     9     7    2
    10     6     7    1
    11     6     5    1
    12     5     1    1
    13     1     2    1
    14     2     3    1
    15     2     4    2
