@<TRIPOS>MOLECULE
/home/cewinharhar/GITHUB/reincatalyze/data/processed/docking_pred/2023-May-22-1902_sub9_nm5_bs15_s42_ex16_mel10_mts1000_k50_ec02_g099_lra9e-4_lrc1e-3/72c4800fcc396c08a923544a0defa9269110c5e0_ligand_9.pdbqt
 14 15 0 0 0
SMALL
GASTEIGER

@<TRIPOS>ATOM
      1  C          5.4720    2.8840    0.3090 C.3     1  UNL1        0.0800
      2  C          6.2780    3.8910    1.0530 C.2     1  UNL1        0.1300
      3  C          7.2550    4.7740    0.3620 C.3     1  UNL1        0.0870
      4  O          6.1590    4.0210    2.2610 O.2     1  UNL1       -0.3000
      5  C          5.3370    1.5960    1.0960 C.3     1  UNL1        0.0430
      6  C          6.1290    0.5060    0.5000 C.2     1  UNL1       -0.0440
      7  C          6.4940   -0.6250    1.2390 C.2     1  UNL1        0.0080
      8  C          6.5230    0.5900   -0.8170 C.2     1  UNL1        0.0540
      9  C          7.2370   -1.6170    0.6260 C.2     1  UNL1        0.0510
     10  C          7.2730   -0.4160   -1.4320 C.2     1  UNL1        0.1660
     11  C          7.6340   -1.5290   -0.7050 C.2     1  UNL1        0.1650
     12  O          7.7800   -0.5650   -2.7060 O.2     1  UNL1       -0.4540
     13  O          8.3610   -2.3460   -1.5560 O.2     1  UNL1       -0.4540
     14  C          8.4000   -1.8160   -2.8590 C.3     1  UNL1        0.4680
@<TRIPOS>BOND
     1    14    12    1
     2    14    13    1
     3    12    10    1
     4    13    11    1
     5    10     8    1
     6    10    11    2
     7     8     6    2
     8    11     9    1
     9     1     2    1
    10     1     5    1
    11     3     2    1
    12     6     5    1
    13     6     7    1
    14     9     7    2
    15     2     4    2
