MODEL 1
REMARK VINA RESULT:      -7.8      0.000      0.000
REMARK SMILES CC(=O)CCc1ccc2c(c1)OCO2
REMARK SMILES IDX 4 1 2 2 1 3 3 4 5 5 6 6 7 7 11 8 8 9 10 10 9 11 12 12 14 13
REMARK SMILES IDX 13 14
REMARK H PARENT
REMARK Flexibility Score: inf
ROOT
ATOM      1  C   UNL     1       5.472   2.884   0.309  1.00  0.00     0.080 C 
ENDROOT
BRANCH   1   2
ATOM      2  C   UNL     1       6.278   3.891   1.053  1.00  0.00     0.130 C 
ATOM      3  C   UNL     1       7.255   4.774   0.362  1.00  0.00     0.087 C 
ATOM      4  O   UNL     1       6.159   4.021   2.261  1.00  0.00    -0.300 OA
ENDBRANCH   1   2
BRANCH   1   5
ATOM      5  C   UNL     1       5.337   1.596   1.096  1.00  0.00     0.043 C 
BRANCH   5   6
ATOM      6  C   UNL     1       6.129   0.506   0.500  1.00  0.00    -0.044 A 
ATOM      7  C   UNL     1       6.494  -0.625   1.239  1.00  0.00     0.008 A 
ATOM      8  C   UNL     1       6.523   0.590  -0.817  1.00  0.00     0.054 A 
ATOM      9  C   UNL     1       7.237  -1.617   0.626  1.00  0.00     0.051 A 
ATOM     10  C   UNL     1       7.273  -0.416  -1.432  1.00  0.00     0.166 A 
ATOM     11  C   UNL     1       7.634  -1.529  -0.705  1.00  0.00     0.165 A 
ATOM     12  O   UNL     1       7.780  -0.565  -2.706  1.00  0.00    -0.454 OA
ATOM     13  O   UNL     1       8.361  -2.346  -1.556  1.00  0.00    -0.454 OA
ATOM     14  C   UNL     1       8.400  -1.816  -2.859  1.00  0.00     0.468 C 
ENDBRANCH   5   6
ENDBRANCH   1   5
TORSDOF 3
ENDMDL
MODEL 2
REMARK VINA RESULT:      -7.7      0.984      1.969
REMARK SMILES CC(=O)CCc1ccc2c(c1)OCO2
REMARK SMILES IDX 4 1 2 2 1 3 3 4 5 5 6 6 7 7 11 8 8 9 10 10 9 11 12 12 14 13
REMARK SMILES IDX 13 14
REMARK H PARENT
REMARK Flexibility Score: inf
ROOT
ATOM      1  C   UNL     1       5.467   2.935   0.101  1.00  0.00     0.080 C 
ENDROOT
BRANCH   1   2
ATOM      2  C   UNL     1       6.179   3.938   0.940  1.00  0.00     0.130 C 
ATOM      3  C   UNL     1       7.279   4.775   0.391  1.00  0.00     0.087 C 
ATOM      4  O   UNL     1       5.879   4.102   2.111  1.00  0.00    -0.300 OA
ENDBRANCH   1   2
BRANCH   1   5
ATOM      5  C   UNL     1       5.281   1.627   0.845  1.00  0.00     0.043 C 
BRANCH   5   6
ATOM      6  C   UNL     1       6.080   0.541   0.249  1.00  0.00    -0.044 A 
ATOM      7  C   UNL     1       6.429   0.546  -1.106  1.00  0.00     0.008 A 
ATOM      8  C   UNL     1       6.500  -0.507   1.036  1.00  0.00     0.054 A 
ATOM      9  C   UNL     1       7.181  -0.500  -1.609  1.00  0.00     0.051 A 
ATOM     10  C   UNL     1       7.261  -1.561   0.523  1.00  0.00     0.166 A 
ATOM     11  C   UNL     1       7.604  -1.558  -0.811  1.00  0.00     0.165 A 
ATOM     12  O   UNL     1       7.792  -2.700   1.090  1.00  0.00    -0.454 OA
ATOM     13  O   UNL     1       8.347  -2.706  -1.037  1.00  0.00    -0.454 OA
ATOM     14  C   UNL     1       8.567  -3.413   0.160  1.00  0.00     0.468 C 
ENDBRANCH   5   6
ENDBRANCH   1   5
TORSDOF 3
ENDMDL
MODEL 3
REMARK VINA RESULT:      -7.7      1.930      2.682
REMARK SMILES CC(=O)CCc1ccc2c(c1)OCO2
REMARK SMILES IDX 4 1 2 2 1 3 3 4 5 5 6 6 7 7 11 8 8 9 10 10 9 11 12 12 14 13
REMARK SMILES IDX 13 14
REMARK H PARENT
REMARK Flexibility Score: inf
ROOT
ATOM      1  C   UNL     1       5.515   1.902   1.273  1.00  0.00     0.080 C 
ENDROOT
BRANCH   1   2
ATOM      2  C   UNL     1       5.057   0.685   1.999  1.00  0.00     0.130 C 
ATOM      3  C   UNL     1       5.925  -0.514   2.138  1.00  0.00     0.087 C 
ATOM      4  O   UNL     1       3.947   0.637   2.504  1.00  0.00    -0.300 OA
ENDBRANCH   1   2
BRANCH   1   5
ATOM      5  C   UNL     1       5.394   1.726  -0.228  1.00  0.00     0.043 C 
BRANCH   5   6
ATOM      6  C   UNL     1       6.563   1.028  -0.792  1.00  0.00    -0.044 A 
ATOM      7  C   UNL     1       7.868   1.467  -0.545  1.00  0.00     0.008 A 
ATOM      8  C   UNL     1       6.378  -0.085  -1.580  1.00  0.00     0.054 A 
ATOM      9  C   UNL     1       8.927   0.772  -1.101  1.00  0.00     0.051 A 
ATOM     10  C   UNL     1       7.451  -0.786  -2.139  1.00  0.00     0.166 A 
ATOM     11  C   UNL     1       8.736  -0.353  -1.898  1.00  0.00     0.165 A 
ATOM     12  O   UNL     1       7.527  -1.902  -2.944  1.00  0.00    -0.454 OA
ATOM     13  O   UNL     1       9.584  -1.223  -2.566  1.00  0.00    -0.454 OA
ATOM     14  C   UNL     1       8.864  -2.272  -3.167  1.00  0.00     0.468 C 
ENDBRANCH   5   6
ENDBRANCH   1   5
TORSDOF 3
ENDMDL
MODEL 4
REMARK VINA RESULT:      -7.5      1.105      1.549
REMARK SMILES CC(=O)CCc1ccc2c(c1)OCO2
REMARK SMILES IDX 4 1 2 2 1 3 3 4 5 5 6 6 7 7 11 8 8 9 10 10 9 11 12 12 14 13
REMARK SMILES IDX 13 14
REMARK H PARENT
REMARK Flexibility Score: inf
ROOT
ATOM      1  C   UNL     1       5.440   2.865   0.259  1.00  0.00     0.080 C 
ENDROOT
BRANCH   1   2
ATOM      2  C   UNL     1       6.263   3.839   1.029  1.00  0.00     0.130 C 
ATOM      3  C   UNL     1       7.201   4.775   0.354  1.00  0.00     0.087 C 
ATOM      4  O   UNL     1       6.190   3.896   2.246  1.00  0.00    -0.300 OA
ENDBRANCH   1   2
BRANCH   1   5
ATOM      5  C   UNL     1       5.736   1.439   0.680  1.00  0.00     0.043 C 
BRANCH   5   6
ATOM      6  C   UNL     1       6.771   0.822  -0.169  1.00  0.00    -0.044 A 
ATOM      7  C   UNL     1       8.035   1.403  -0.322  1.00  0.00     0.008 A 
ATOM      8  C   UNL     1       6.500  -0.354  -0.829  1.00  0.00     0.054 A 
ATOM      9  C   UNL     1       8.967   0.778  -1.131  1.00  0.00     0.051 A 
ATOM     10  C   UNL     1       7.446  -0.983  -1.645  1.00  0.00     0.166 A 
ATOM     11  C   UNL     1       8.689  -0.411  -1.798  1.00  0.00     0.165 A 
ATOM     12  O   UNL     1       7.419  -2.138  -2.396  1.00  0.00    -0.454 OA
ATOM     13  O   UNL     1       9.408  -1.237  -2.647  1.00  0.00    -0.454 OA
ATOM     14  C   UNL     1       8.672  -2.390  -2.978  1.00  0.00     0.468 C 
ENDBRANCH   5   6
ENDBRANCH   1   5
TORSDOF 3
ENDMDL
MODEL 5
REMARK VINA RESULT:      -7.4      2.003      3.037
REMARK SMILES CC(=O)CCc1ccc2c(c1)OCO2
REMARK SMILES IDX 4 1 2 2 1 3 3 4 5 5 6 6 7 7 11 8 8 9 10 10 9 11 12 12 14 13
REMARK SMILES IDX 13 14
REMARK H PARENT
REMARK Flexibility Score: inf
ROOT
ATOM      1  C   UNL     1       5.824   1.415  -0.339  1.00  0.00     0.080 C 
ENDROOT
BRANCH   1   2
ATOM      2  C   UNL     1       5.127   1.345   0.976  1.00  0.00     0.130 C 
ATOM      3  C   UNL     1       5.401   0.253   1.948  1.00  0.00     0.087 C 
ATOM      4  O   UNL     1       4.303   2.187   1.294  1.00  0.00    -0.300 OA
ENDBRANCH   1   2
BRANCH   1   5
ATOM      5  C   UNL     1       7.294   1.074  -0.200  1.00  0.00     0.043 C 
BRANCH   5   6
ATOM      6  C   UNL     1       7.617  -0.219  -0.831  1.00  0.00    -0.044 A 
ATOM      7  C   UNL     1       7.592  -0.382  -2.221  1.00  0.00     0.008 A 
ATOM      8  C   UNL     1       7.954  -1.296  -0.045  1.00  0.00     0.054 A 
ATOM      9  C   UNL     1       7.905  -1.618  -2.757  1.00  0.00     0.051 A 
ATOM     10  C   UNL     1       8.271  -2.544  -0.591  1.00  0.00     0.166 A 
ATOM     11  C   UNL     1       8.245  -2.706  -1.958  1.00  0.00     0.165 A 
ATOM     12  O   UNL     1       8.631  -3.751  -0.031  1.00  0.00    -0.454 OA
ATOM     13  O   UNL     1       8.595  -4.023  -2.212  1.00  0.00    -0.454 OA
ATOM     14  C   UNL     1       8.937  -4.696  -1.024  1.00  0.00     0.468 C 
ENDBRANCH   5   6
ENDBRANCH   1   5
TORSDOF 3
ENDMDL
