@<TRIPOS>MOLECULE
/home/cewinharhar/GITHUB/reincatalyze/data/processed/docking_pred/2023-May-22-1902_sub9_nm5_bs15_s42_ex16_mel10_mts1000_k50_ec02_g099_lra9e-4_lrc1e-3/72c4800fcc396c08a923544a0defa9269110c5e0_ligand_9.pdbqt
 14 15 0 0 0
SMALL
GASTEIGER

@<TRIPOS>ATOM
      1  C          5.5150    1.9020    1.2730 C.3     1  UNL1        0.0800
      2  C          5.0570    0.6850    1.9990 C.2     1  UNL1        0.1300
      3  C          5.9250   -0.5140    2.1380 C.3     1  UNL1        0.0870
      4  O          3.9470    0.6370    2.5040 O.2     1  UNL1       -0.3000
      5  C          5.3940    1.7260   -0.2280 C.3     1  UNL1        0.0430
      6  C          6.5630    1.0280   -0.7920 C.2     1  UNL1       -0.0440
      7  C          7.8680    1.4670   -0.5450 C.2     1  UNL1        0.0080
      8  C          6.3780   -0.0850   -1.5800 C.2     1  UNL1        0.0540
      9  C          8.9270    0.7720   -1.1010 C.2     1  UNL1        0.0510
     10  C          7.4510   -0.7860   -2.1390 C.2     1  UNL1        0.1660
     11  C          8.7360   -0.3530   -1.8980 C.2     1  UNL1        0.1650
     12  O          7.5270   -1.9020   -2.9440 O.2     1  UNL1       -0.4540
     13  O          9.5840   -1.2230   -2.5660 O.2     1  UNL1       -0.4540
     14  C          8.8640   -2.2720   -3.1670 C.3     1  UNL1        0.4680
@<TRIPOS>BOND
     1    14    12    1
     2    14    13    1
     3    12    10    1
     4    13    11    1
     5    10    11    2
     6    10     8    1
     7    11     9    1
     8     8     6    2
     9     9     7    2
    10     6     7    1
    11     6     5    1
    12     5     1    1
    13     1     2    1
    14     2     3    1
    15     2     4    2
