@<TRIPOS>MOLECULE
/home/cewinharhar/GITHUB/reincatalyze/data/processed/docking_pred/2023-May-22-1902_sub9_nm5_bs15_s42_ex16_mel10_mts1000_k50_ec02_g099_lra9e-4_lrc1e-3/72c4800fcc396c08a923544a0defa9269110c5e0_ligand_9.pdbqt
 14 15 0 0 0
SMALL
GASTEIGER

@<TRIPOS>ATOM
      1  C          5.4670    2.9350    0.1010 C.3     1  UNL1        0.0800
      2  C          6.1790    3.9380    0.9400 C.2     1  UNL1        0.1300
      3  C          7.2790    4.7750    0.3910 C.3     1  UNL1        0.0870
      4  O          5.8790    4.1020    2.1110 O.2     1  UNL1       -0.3000
      5  C          5.2810    1.6270    0.8450 C.3     1  UNL1        0.0430
      6  C          6.0800    0.5410    0.2490 C.2     1  UNL1       -0.0440
      7  C          6.4290    0.5460   -1.1060 C.2     1  UNL1        0.0080
      8  C          6.5000   -0.5070    1.0360 C.2     1  UNL1        0.0540
      9  C          7.1810   -0.5000   -1.6090 C.2     1  UNL1        0.0510
     10  C          7.2610   -1.5610    0.5230 C.2     1  UNL1        0.1660
     11  C          7.6040   -1.5580   -0.8110 C.2     1  UNL1        0.1650
     12  O          7.7920   -2.7000    1.0900 O.2     1  UNL1       -0.4540
     13  O          8.3470   -2.7060   -1.0370 O.2     1  UNL1       -0.4540
     14  C          8.5670   -3.4130    0.1600 C.3     1  UNL1        0.4680
@<TRIPOS>BOND
     1     9     7    1
     2     9    11    2
     3     7     6    2
     4    13    11    1
     5    13    14    1
     6    11    10    1
     7     1     5    1
     8     1     2    1
     9    14    12    1
    10     6     5    1
    11     6     8    1
    12     3     2    1
    13    10     8    2
    14    10    12    1
    15     2     4    2
