@<TRIPOS>MOLECULE
/home/cewinharhar/GITHUB/reincatalyze/data/processed/docking_pred/2023-May-22-1902_sub9_nm5_bs15_s42_ex16_mel10_mts1000_k50_ec02_g099_lra9e-4_lrc1e-3/72c4800fcc396c08a923544a0defa9269110c5e0_ligand_9.pdbqt
 14 15 0 0 0
SMALL
GASTEIGER

@<TRIPOS>ATOM
      1  C          5.8240    1.4150   -0.3390 C.3     1  UNL1        0.0800
      2  C          5.1270    1.3450    0.9760 C.2     1  UNL1        0.1300
      3  C          5.4010    0.2530    1.9480 C.3     1  UNL1        0.0870
      4  O          4.3030    2.1870    1.2940 O.2     1  UNL1       -0.3000
      5  C          7.2940    1.0740   -0.2000 C.3     1  UNL1        0.0430
      6  C          7.6170   -0.2190   -0.8310 C.2     1  UNL1       -0.0440
      7  C          7.5920   -0.3820   -2.2210 C.2     1  UNL1        0.0080
      8  C          7.9540   -1.2960   -0.0450 C.2     1  UNL1        0.0540
      9  C          7.9050   -1.6180   -2.7570 C.2     1  UNL1        0.0510
     10  C          8.2710   -2.5440   -0.5910 C.2     1  UNL1        0.1660
     11  C          8.2450   -2.7060   -1.9580 C.2     1  UNL1        0.1650
     12  O          8.6310   -3.7510   -0.0310 O.2     1  UNL1       -0.4540
     13  O          8.5950   -4.0230   -2.2120 O.2     1  UNL1       -0.4540
     14  C          8.9370   -4.6960   -1.0240 C.3     1  UNL1        0.4680
@<TRIPOS>BOND
     1     9     7    1
     2     9    11    2
     3     7     6    2
     4    13    11    1
     5    13    14    1
     6    11    10    1
     7    14    12    1
     8     6     5    1
     9     6     8    1
    10    10     8    2
    11    10    12    1
    12     1     5    1
    13     1     2    1
    14     2     4    2
    15     2     3    1
