@<TRIPOS>MOLECULE
/home/cewinharhar/GITHUB/reincatalyze/data/processed/docking_pred/2023-May-22-1902_sub9_nm5_bs15_s42_ex16_mel10_mts1000_k50_ec02_g099_lra9e-4_lrc1e-3/72c4800fcc396c08a923544a0defa9269110c5e0_ligand_9.pdbqt
 14 15 0 0 0
SMALL
GASTEIGER

@<TRIPOS>ATOM
      1  C          5.4400    2.8650    0.2590 C.3     1  UNL1        0.0800
      2  C          6.2630    3.8390    1.0290 C.2     1  UNL1        0.1300
      3  C          7.2010    4.7750    0.3540 C.3     1  UNL1        0.0870
      4  O          6.1900    3.8960    2.2460 O.2     1  UNL1       -0.3000
      5  C          5.7360    1.4390    0.6800 C.3     1  UNL1        0.0430
      6  C          6.7710    0.8220   -0.1690 C.2     1  UNL1       -0.0440
      7  C          8.0350    1.4030   -0.3220 C.2     1  UNL1        0.0080
      8  C          6.5000   -0.3540   -0.8290 C.2     1  UNL1        0.0540
      9  C          8.9670    0.7780   -1.1310 C.2     1  UNL1        0.0510
     10  C          7.4460   -0.9830   -1.6450 C.2     1  UNL1        0.1660
     11  C          8.6890   -0.4110   -1.7980 C.2     1  UNL1        0.1650
     12  O          7.4190   -2.1380   -2.3960 O.2     1  UNL1       -0.4540
     13  O          9.4080   -1.2370   -2.6470 O.2     1  UNL1       -0.4540
     14  C          8.6720   -2.3900   -2.9780 C.3     1  UNL1        0.4680
@<TRIPOS>BOND
     1    14    13    1
     2    14    12    1
     3    13    11    1
     4    12    10    1
     5    11    10    2
     6    11     9    1
     7    10     8    1
     8     9     7    2
     9     8     6    2
    10     7     6    1
    11     6     5    1
    12     1     5    1
    13     1     2    1
    14     3     2    1
    15     2     4    2
