@<TRIPOS>MOLECULE
/home/cewinharhar/GITHUB/reincatalyze/data/processed/docking_pred/2023-May-22-1902_sub9_nm5_bs15_s42_ex16_mel10_mts1000_k50_ec02_g099_lra9e-4_lrc1e-3/73f03501d88ed0f960f592fe5f6124e73644cb01_ligand_9.pdbqt
 14 15 0 0 0
SMALL
GASTEIGER

@<TRIPOS>ATOM
      1  C          5.4840    2.6660    0.1750 C.3     1  UNL1        0.0800
      2  C          6.1440    3.7800    0.9120 C.2     1  UNL1        0.1300
      3  C          7.1160    4.6880    0.2460 C.3     1  UNL1        0.0870
      4  O          5.9050    3.9810    2.0910 O.2     1  UNL1       -0.3000
      5  C          5.4900    1.3880    0.9900 C.3     1  UNL1        0.0430
      6  C          6.2380    0.3130    0.3150 C.2     1  UNL1       -0.0440
      7  C          6.4660    0.3340   -1.0660 C.2     1  UNL1        0.0080
      8  C          6.7320   -0.7400    1.0500 C.2     1  UNL1        0.0540
      9  C          7.1750   -0.7020   -1.6450 C.2     1  UNL1        0.0510
     10  C          7.4500   -1.7850    0.4600 C.2     1  UNL1        0.1660
     11  C          7.6720   -1.7660   -0.8990 C.2     1  UNL1        0.1650
     12  O          8.0340   -2.9270    0.9660 O.2     1  UNL1       -0.4540
     13  O          8.3980   -2.9080   -1.2020 O.2     1  UNL1       -0.4540
     14  C          8.7270   -3.6260   -0.0370 C.3     1  UNL1        0.4680
@<TRIPOS>BOND
     1     9     7    1
     2     9    11    2
     3    13    11    1
     4    13    14    1
     5     7     6    2
     6    11    10    1
     7    14    12    1
     8     1     2    1
     9     1     5    1
    10     3     2    1
    11     6     5    1
    12     6     8    1
    13    10    12    1
    14    10     8    2
    15     2     4    2
