@<TRIPOS>MOLECULE
/home/cewinharhar/GITHUB/reincatalyze/data/processed/docking_pred/2023-May-22-1902_sub9_nm5_bs15_s42_ex16_mel10_mts1000_k50_ec02_g099_lra9e-4_lrc1e-3/7473f82790d6809f011fa27bf7bcba9a4b9bdb46_ligand_9.pdbqt
 14 15 0 0 0
SMALL
GASTEIGER

@<TRIPOS>ATOM
      1  C          5.5370    2.8680   -0.1970 C.3     1  UNL1        0.0800
      2  C          6.1990    3.7330    0.8190 C.2     1  UNL1        0.1300
      3  C          7.1880    4.7750    0.4320 C.3     1  UNL1        0.0870
      4  O          5.9480    3.6100    2.0070 O.2     1  UNL1       -0.3000
      5  C          5.6450    1.4020    0.1730 C.3     1  UNL1        0.0430
      6  C          6.7420    0.7350   -0.5520 C.2     1  UNL1       -0.0440
      7  C          8.0270    1.2860   -0.6040 C.2     1  UNL1        0.0080
      8  C          6.5070   -0.4590   -1.1950 C.2     1  UNL1        0.0540
      9  C          9.0170    0.6140   -1.2990 C.2     1  UNL1        0.0510
     10  C          7.5110   -1.1340   -1.8960 C.2     1  UNL1        0.1660
     11  C          8.7760   -0.5930   -1.9480 C.2     1  UNL1        0.1650
     12  O          7.5290   -2.3150   -2.6070 O.2     1  UNL1       -0.4540
     13  O          9.5530   -1.4620   -2.6980 O.2     1  UNL1       -0.4540
     14  C          8.8250   -2.6120   -3.0580 C.3     1  UNL1        0.4680
@<TRIPOS>BOND
     1    14    13    1
     2    14    12    1
     3    13    11    1
     4    12    10    1
     5    11    10    2
     6    11     9    1
     7    10     8    1
     8     9     7    2
     9     8     6    2
    10     7     6    1
    11     6     5    1
    12     1     5    1
    13     1     2    1
    14     3     2    1
    15     2     4    2
