MODEL 1
REMARK VINA RESULT:      -7.9      0.000      0.000
REMARK SMILES CC(=O)CCc1ccc2c(c1)OCO2
REMARK SMILES IDX 4 1 2 2 1 3 3 4 5 5 6 6 7 7 11 8 8 9 10 10 9 11 12 12 14 13
REMARK SMILES IDX 13 14
REMARK H PARENT
REMARK Flexibility Score: inf
ROOT
ATOM      1  C   UNL     1       5.442   2.919   0.077  1.00  0.00     0.080 C 
ENDROOT
BRANCH   1   2
ATOM      2  C   UNL     1       6.281   3.812   0.925  1.00  0.00     0.130 C 
ATOM      3  C   UNL     1       7.245   4.774   0.329  1.00  0.00     0.087 C 
ATOM      4  O   UNL     1       6.201   3.777   2.142  1.00  0.00    -0.300 OA
ENDBRANCH   1   2
BRANCH   1   5
ATOM      5  C   UNL     1       5.130   1.618   0.788  1.00  0.00     0.043 C 
BRANCH   5   6
ATOM      6  C   UNL     1       5.960   0.508   0.285  1.00  0.00    -0.044 A 
ATOM      7  C   UNL     1       6.268  -0.598   1.086  1.00  0.00     0.008 A 
ATOM      8  C   UNL     1       6.446   0.549  -1.001  1.00  0.00     0.054 A 
ATOM      9  C   UNL     1       7.050  -1.610   0.560  1.00  0.00     0.051 A 
ATOM     10  C   UNL     1       7.236  -0.477  -1.529  1.00  0.00     0.166 A 
ATOM     11  C   UNL     1       7.541  -1.565  -0.742  1.00  0.00     0.165 A 
ATOM     12  O   UNL     1       7.832  -0.667  -2.758  1.00  0.00    -0.454 OA
ATOM     13  O   UNL     1       8.324  -2.410  -1.512  1.00  0.00    -0.454 OA
ATOM     14  C   UNL     1       8.458  -1.923  -2.826  1.00  0.00     0.468 C 
ENDBRANCH   5   6
ENDBRANCH   1   5
TORSDOF 3
ENDMDL
MODEL 2
REMARK VINA RESULT:      -7.8      0.986      1.976
REMARK SMILES CC(=O)CCc1ccc2c(c1)OCO2
REMARK SMILES IDX 4 1 2 2 1 3 3 4 5 5 6 6 7 7 11 8 8 9 10 10 9 11 12 12 14 13
REMARK SMILES IDX 13 14
REMARK H PARENT
REMARK Flexibility Score: inf
ROOT
ATOM      1  C   UNL     1       5.359   2.961   0.174  1.00  0.00     0.080 C 
ENDROOT
BRANCH   1   2
ATOM      2  C   UNL     1       6.279   3.821   0.970  1.00  0.00     0.130 C 
ATOM      3  C   UNL     1       7.247   4.742   0.316  1.00  0.00     0.087 C 
ATOM      4  O   UNL     1       6.263   3.795   2.190  1.00  0.00    -0.300 OA
ENDBRANCH   1   2
BRANCH   1   5
ATOM      5  C   UNL     1       5.121   1.630   0.859  1.00  0.00     0.043 C 
BRANCH   5   6
ATOM      6  C   UNL     1       5.974   0.566   0.298  1.00  0.00    -0.044 A 
ATOM      7  C   UNL     1       6.386   0.586  -1.039  1.00  0.00     0.008 A 
ATOM      8  C   UNL     1       6.383  -0.474   1.101  1.00  0.00     0.054 A 
ATOM      9  C   UNL     1       7.187  -0.438  -1.510  1.00  0.00     0.051 A 
ATOM     10  C   UNL     1       7.193  -1.508   0.620  1.00  0.00     0.166 A 
ATOM     11  C   UNL     1       7.598  -1.489  -0.696  1.00  0.00     0.165 A 
ATOM     12  O   UNL     1       7.725  -2.636   1.208  1.00  0.00    -0.454 OA
ATOM     13  O   UNL     1       8.379  -2.618  -0.891  1.00  0.00    -0.454 OA
ATOM     14  C   UNL     1       8.560  -3.325   0.313  1.00  0.00     0.468 C 
ENDBRANCH   5   6
ENDBRANCH   1   5
TORSDOF 3
ENDMDL
MODEL 3
REMARK VINA RESULT:      -7.6      1.887      2.647
REMARK SMILES CC(=O)CCc1ccc2c(c1)OCO2
REMARK SMILES IDX 4 1 2 2 1 3 3 4 5 5 6 6 7 7 11 8 8 9 10 10 9 11 12 12 14 13
REMARK SMILES IDX 13 14
REMARK H PARENT
REMARK Flexibility Score: inf
ROOT
ATOM      1  C   UNL     1       5.508   1.915   1.265  1.00  0.00     0.080 C 
ENDROOT
BRANCH   1   2
ATOM      2  C   UNL     1       5.063   0.699   2.000  1.00  0.00     0.130 C 
ATOM      3  C   UNL     1       5.948  -0.487   2.156  1.00  0.00     0.087 C 
ATOM      4  O   UNL     1       3.951   0.640   2.500  1.00  0.00    -0.300 OA
ENDBRANCH   1   2
BRANCH   1   5
ATOM      5  C   UNL     1       5.389   1.727  -0.234  1.00  0.00     0.043 C 
BRANCH   5   6
ATOM      6  C   UNL     1       6.558   1.026  -0.792  1.00  0.00    -0.044 A 
ATOM      7  C   UNL     1       7.864   1.455  -0.530  1.00  0.00     0.008 A 
ATOM      8  C   UNL     1       6.374  -0.081  -1.589  1.00  0.00     0.054 A 
ATOM      9  C   UNL     1       8.924   0.756  -1.080  1.00  0.00     0.051 A 
ATOM     10  C   UNL     1       7.448  -0.785  -2.142  1.00  0.00     0.166 A 
ATOM     11  C   UNL     1       8.733  -0.362  -1.886  1.00  0.00     0.165 A 
ATOM     12  O   UNL     1       7.525  -1.896  -2.954  1.00  0.00    -0.454 OA
ATOM     13  O   UNL     1       9.582  -1.233  -2.552  1.00  0.00    -0.454 OA
ATOM     14  C   UNL     1       8.861  -2.274  -3.167  1.00  0.00     0.468 C 
ENDBRANCH   5   6
ENDBRANCH   1   5
TORSDOF 3
ENDMDL
MODEL 4
REMARK VINA RESULT:      -7.4      1.957      3.008
REMARK SMILES CC(=O)CCc1ccc2c(c1)OCO2
REMARK SMILES IDX 4 1 2 2 1 3 3 4 5 5 6 6 7 7 11 8 8 9 10 10 9 11 12 12 14 13
REMARK SMILES IDX 13 14
REMARK H PARENT
REMARK Flexibility Score: inf
ROOT
ATOM      1  C   UNL     1       5.791   1.392  -0.343  1.00  0.00     0.080 C 
ENDROOT
BRANCH   1   2
ATOM      2  C   UNL     1       5.132   1.324   0.991  1.00  0.00     0.130 C 
ATOM      3  C   UNL     1       5.402   0.210   1.940  1.00  0.00     0.087 C 
ATOM      4  O   UNL     1       4.345   2.186   1.346  1.00  0.00    -0.300 OA
ENDBRANCH   1   2
BRANCH   1   5
ATOM      5  C   UNL     1       7.278   1.115  -0.238  1.00  0.00     0.043 C 
BRANCH   5   6
ATOM      6  C   UNL     1       7.637  -0.178  -0.847  1.00  0.00    -0.044 A 
ATOM      7  C   UNL     1       7.700  -0.341  -2.236  1.00  0.00     0.008 A 
ATOM      8  C   UNL     1       7.923  -1.256  -0.041  1.00  0.00     0.054 A 
ATOM      9  C   UNL     1       8.044  -1.578  -2.751  1.00  0.00     0.051 A 
ATOM     10  C   UNL     1       8.271  -2.504  -0.567  1.00  0.00     0.166 A 
ATOM     11  C   UNL     1       8.332  -2.666  -1.933  1.00  0.00     0.165 A 
ATOM     12  O   UNL     1       8.593  -3.712   0.015  1.00  0.00    -0.454 OA
ATOM     13  O   UNL     1       8.695  -3.983  -2.164  1.00  0.00    -0.454 OA
ATOM     14  C   UNL     1       8.960  -4.657  -0.957  1.00  0.00     0.468 C 
ENDBRANCH   5   6
ENDBRANCH   1   5
TORSDOF 3
ENDMDL
MODEL 5
REMARK VINA RESULT:      -7.4      1.166      1.626
REMARK SMILES CC(=O)CCc1ccc2c(c1)OCO2
REMARK SMILES IDX 4 1 2 2 1 3 3 4 5 5 6 6 7 7 11 8 8 9 10 10 9 11 12 12 14 13
REMARK SMILES IDX 13 14
REMARK H PARENT
REMARK Flexibility Score: inf
ROOT
ATOM      1  C   UNL     1       5.537   2.868  -0.197  1.00  0.00     0.080 C 
ENDROOT
BRANCH   1   2
ATOM      2  C   UNL     1       6.199   3.733   0.819  1.00  0.00     0.130 C 
ATOM      3  C   UNL     1       7.188   4.775   0.432  1.00  0.00     0.087 C 
ATOM      4  O   UNL     1       5.948   3.610   2.007  1.00  0.00    -0.300 OA
ENDBRANCH   1   2
BRANCH   1   5
ATOM      5  C   UNL     1       5.645   1.402   0.173  1.00  0.00     0.043 C 
BRANCH   5   6
ATOM      6  C   UNL     1       6.742   0.735  -0.552  1.00  0.00    -0.044 A 
ATOM      7  C   UNL     1       8.027   1.286  -0.604  1.00  0.00     0.008 A 
ATOM      8  C   UNL     1       6.507  -0.459  -1.195  1.00  0.00     0.054 A 
ATOM      9  C   UNL     1       9.017   0.614  -1.299  1.00  0.00     0.051 A 
ATOM     10  C   UNL     1       7.511  -1.134  -1.896  1.00  0.00     0.166 A 
ATOM     11  C   UNL     1       8.776  -0.593  -1.948  1.00  0.00     0.165 A 
ATOM     12  O   UNL     1       7.529  -2.315  -2.607  1.00  0.00    -0.454 OA
ATOM     13  O   UNL     1       9.553  -1.462  -2.698  1.00  0.00    -0.454 OA
ATOM     14  C   UNL     1       8.825  -2.612  -3.058  1.00  0.00     0.468 C 
ENDBRANCH   5   6
ENDBRANCH   1   5
TORSDOF 3
ENDMDL
