@<TRIPOS>MOLECULE
/home/cewinharhar/GITHUB/reincatalyze/data/processed/docking_pred/2023-May-22-1902_sub9_nm5_bs15_s42_ex16_mel10_mts1000_k50_ec02_g099_lra9e-4_lrc1e-3/7473f82790d6809f011fa27bf7bcba9a4b9bdb46_ligand_9.pdbqt
 14 15 0 0 0
SMALL
GASTEIGER

@<TRIPOS>ATOM
      1  C          5.3590    2.9610    0.1740 C.3     1  UNL1        0.0800
      2  C          6.2790    3.8210    0.9700 C.2     1  UNL1        0.1300
      3  C          7.2470    4.7420    0.3160 C.3     1  UNL1        0.0870
      4  O          6.2630    3.7950    2.1900 O.2     1  UNL1       -0.3000
      5  C          5.1210    1.6300    0.8590 C.3     1  UNL1        0.0430
      6  C          5.9740    0.5660    0.2980 C.2     1  UNL1       -0.0440
      7  C          6.3860    0.5860   -1.0390 C.2     1  UNL1        0.0080
      8  C          6.3830   -0.4740    1.1010 C.2     1  UNL1        0.0540
      9  C          7.1870   -0.4380   -1.5100 C.2     1  UNL1        0.0510
     10  C          7.1930   -1.5080    0.6200 C.2     1  UNL1        0.1660
     11  C          7.5980   -1.4890   -0.6960 C.2     1  UNL1        0.1650
     12  O          7.7250   -2.6360    1.2080 O.2     1  UNL1       -0.4540
     13  O          8.3790   -2.6180   -0.8910 O.2     1  UNL1       -0.4540
     14  C          8.5600   -3.3250    0.3130 C.3     1  UNL1        0.4680
@<TRIPOS>BOND
     1     9     7    1
     2     9    11    2
     3     7     6    2
     4    13    11    1
     5    13    14    1
     6    11    10    1
     7     1     5    1
     8     1     2    1
     9     6     5    1
    10     6     8    1
    11    14    12    1
    12     3     2    1
    13    10     8    2
    14    10    12    1
    15     2     4    2
