@<TRIPOS>MOLECULE
/home/cewinharhar/GITHUB/reincatalyze/data/processed/docking_pred/2023-May-22-1902_sub9_nm5_bs15_s42_ex16_mel10_mts1000_k50_ec02_g099_lra9e-4_lrc1e-3/7473f82790d6809f011fa27bf7bcba9a4b9bdb46_ligand_9.pdbqt
 14 15 0 0 0
SMALL
GASTEIGER

@<TRIPOS>ATOM
      1  C          5.7910    1.3920   -0.3430 C.3     1  UNL1        0.0800
      2  C          5.1320    1.3240    0.9910 C.2     1  UNL1        0.1300
      3  C          5.4020    0.2100    1.9400 C.3     1  UNL1        0.0870
      4  O          4.3450    2.1860    1.3460 O.2     1  UNL1       -0.3000
      5  C          7.2780    1.1150   -0.2380 C.3     1  UNL1        0.0430
      6  C          7.6370   -0.1780   -0.8470 C.2     1  UNL1       -0.0440
      7  C          7.7000   -0.3410   -2.2360 C.2     1  UNL1        0.0080
      8  C          7.9230   -1.2560   -0.0410 C.2     1  UNL1        0.0540
      9  C          8.0440   -1.5780   -2.7510 C.2     1  UNL1        0.0510
     10  C          8.2710   -2.5040   -0.5670 C.2     1  UNL1        0.1660
     11  C          8.3320   -2.6660   -1.9330 C.2     1  UNL1        0.1650
     12  O          8.5930   -3.7120    0.0150 O.2     1  UNL1       -0.4540
     13  O          8.6950   -3.9830   -2.1640 O.2     1  UNL1       -0.4540
     14  C          8.9600   -4.6570   -0.9570 C.3     1  UNL1        0.4680
@<TRIPOS>BOND
     1     9     7    1
     2     9    11    2
     3     7     6    2
     4    13    11    1
     5    13    14    1
     6    11    10    1
     7    14    12    1
     8     6     5    1
     9     6     8    1
    10    10     8    2
    11    10    12    1
    12     1     5    1
    13     1     2    1
    14     2     4    2
    15     2     3    1
