@<TRIPOS>MOLECULE
/home/cewinharhar/GITHUB/reincatalyze/data/processed/docking_pred/2023-May-22-1902_sub9_nm5_bs15_s42_ex16_mel10_mts1000_k50_ec02_g099_lra9e-4_lrc1e-3/7473f82790d6809f011fa27bf7bcba9a4b9bdb46_ligand_9.pdbqt
 14 15 0 0 0
SMALL
GASTEIGER

@<TRIPOS>ATOM
      1  C          5.4420    2.9190    0.0770 C.3     1  UNL1        0.0800
      2  C          6.2810    3.8120    0.9250 C.2     1  UNL1        0.1300
      3  C          7.2450    4.7740    0.3290 C.3     1  UNL1        0.0870
      4  O          6.2010    3.7770    2.1420 O.2     1  UNL1       -0.3000
      5  C          5.1300    1.6180    0.7880 C.3     1  UNL1        0.0430
      6  C          5.9600    0.5080    0.2850 C.2     1  UNL1       -0.0440
      7  C          6.2680   -0.5980    1.0860 C.2     1  UNL1        0.0080
      8  C          6.4460    0.5490   -1.0010 C.2     1  UNL1        0.0540
      9  C          7.0500   -1.6100    0.5600 C.2     1  UNL1        0.0510
     10  C          7.2360   -0.4770   -1.5290 C.2     1  UNL1        0.1660
     11  C          7.5410   -1.5650   -0.7420 C.2     1  UNL1        0.1650
     12  O          7.8320   -0.6670   -2.7580 O.2     1  UNL1       -0.4540
     13  O          8.3240   -2.4100   -1.5120 O.2     1  UNL1       -0.4540
     14  C          8.4580   -1.9230   -2.8260 C.3     1  UNL1        0.4680
@<TRIPOS>BOND
     1    14    12    1
     2    14    13    1
     3    12    10    1
     4    10     8    1
     5    10    11    2
     6    13    11    1
     7     8     6    2
     8    11     9    1
     9     1     5    1
    10     1     2    1
    11     6     5    1
    12     6     7    1
    13     3     2    1
    14     9     7    2
    15     2     4    2
