@<TRIPOS>MOLECULE
/home/cewinharhar/GITHUB/reincatalyze/data/processed/docking_pred/2023-May-22-1902_sub9_nm5_bs15_s42_ex16_mel10_mts1000_k50_ec02_g099_lra9e-4_lrc1e-3/777751631f294be45381376aa4be6161cfc72981_ligand_9.pdbqt
 14 15 0 0 0
SMALL
GASTEIGER

@<TRIPOS>ATOM
      1  C          5.5240    1.9270    1.2650 C.3     1  UNL1        0.0800
      2  C          5.0810    0.7120    2.0040 C.2     1  UNL1        0.1300
      3  C          5.9720   -0.4670    2.1750 C.3     1  UNL1        0.0870
      4  O          3.9650    0.6480    2.4940 O.2     1  UNL1       -0.3000
      5  C          5.3960    1.7360   -0.2340 C.3     1  UNL1        0.0430
      6  C          6.5630    1.0330   -0.7960 C.2     1  UNL1       -0.0440
      7  C          7.8700    1.4690   -0.5510 C.2     1  UNL1        0.0080
      8  C          6.3740   -0.0820   -1.5810 C.2     1  UNL1        0.0540
      9  C          8.9260    0.7680   -1.1050 C.2     1  UNL1        0.0510
     10  C          7.4450   -0.7870   -2.1380 C.2     1  UNL1        0.1660
     11  C          8.7320   -0.3580   -1.8980 C.2     1  UNL1        0.1650
     12  O          7.5180   -1.9060   -2.9400 O.2     1  UNL1       -0.4540
     13  O          9.5770   -1.2320   -2.5640 O.2     1  UNL1       -0.4540
     14  C          8.8530   -2.2810   -3.1630 C.3     1  UNL1        0.4680
@<TRIPOS>BOND
     1    14    12    1
     2    14    13    1
     3    12    10    1
     4    13    11    1
     5    10    11    2
     6    10     8    1
     7    11     9    1
     8     8     6    2
     9     9     7    2
    10     6     7    1
    11     6     5    1
    12     5     1    1
    13     1     2    1
    14     2     3    1
    15     2     4    2
