@<TRIPOS>MOLECULE
/home/cewinharhar/GITHUB/reincatalyze/data/processed/docking_pred/2023-May-22-1902_sub9_nm5_bs15_s42_ex16_mel10_mts1000_k50_ec02_g099_lra9e-4_lrc1e-3/79094ef31ed65e340e791eab6f4e997ef8bc8970_ligand_9.pdbqt
 14 15 0 0 0
SMALL
GASTEIGER

@<TRIPOS>ATOM
      1  C          5.7700    1.3420   -0.3980 C.3     1  UNL1        0.0800
      2  C          5.1290    1.3320    0.9460 C.2     1  UNL1        0.1300
      3  C          5.3750    0.2360    1.9200 C.3     1  UNL1        0.0870
      4  O          4.3770    2.2310    1.2890 O.2     1  UNL1       -0.3000
      5  C          7.2610    1.0880   -0.2990 C.3     1  UNL1        0.0430
      6  C          7.6360   -0.2060   -0.8960 C.2     1  UNL1       -0.0440
      7  C          7.7340   -0.3730   -2.2820 C.2     1  UNL1        0.0080
      8  C          7.9010   -1.2820   -0.0800 C.2     1  UNL1        0.0540
      9  C          8.0910   -1.6100   -2.7860 C.2     1  UNL1        0.0510
     10  C          8.2620   -2.5320   -0.5940 C.2     1  UNL1        0.1660
     11  C          8.3570   -2.6970   -1.9580 C.2     1  UNL1        0.1650
     12  O          8.5700   -3.7380   -0.0020 O.2     1  UNL1       -0.4540
     13  O          8.7270   -4.0150   -2.1770 O.2     1  UNL1       -0.4540
     14  C          8.9600   -4.6860   -0.9620 C.3     1  UNL1        0.4680
@<TRIPOS>BOND
     1     9     7    1
     2     9    11    2
     3     7     6    2
     4    13    11    1
     5    13    14    1
     6    11    10    1
     7    14    12    1
     8     6     5    1
     9     6     8    1
    10    10     8    2
    11    10    12    1
    12     1     5    1
    13     1     2    1
    14     2     4    2
    15     2     3    1
