MODEL 1
REMARK VINA RESULT:      -8.0      0.000      0.000
REMARK SMILES CC(=O)CCc1ccc2c(c1)OCO2
REMARK SMILES IDX 4 1 2 2 1 3 3 4 5 5 6 6 7 7 11 8 8 9 10 10 9 11 12 12 14 13
REMARK SMILES IDX 13 14
REMARK H PARENT
REMARK Flexibility Score: inf
ROOT
ATOM      1  C   UNL     1       5.429   2.935   0.069  1.00  0.00     0.080 C 
ENDROOT
BRANCH   1   2
ATOM      2  C   UNL     1       6.295   3.789   0.929  1.00  0.00     0.130 C 
ATOM      3  C   UNL     1       7.247   4.773   0.347  1.00  0.00     0.087 C 
ATOM      4  O   UNL     1       6.249   3.704   2.145  1.00  0.00    -0.300 OA
ENDBRANCH   1   2
BRANCH   1   5
ATOM      5  C   UNL     1       5.106   1.619   0.747  1.00  0.00     0.043 C 
BRANCH   5   6
ATOM      6  C   UNL     1       5.960   0.525   0.251  1.00  0.00    -0.044 A 
ATOM      7  C   UNL     1       6.313  -0.557   1.067  1.00  0.00     0.008 A 
ATOM      8  C   UNL     1       6.425   0.555  -1.044  1.00  0.00     0.054 A 
ATOM      9  C   UNL     1       7.116  -1.555   0.547  1.00  0.00     0.051 A 
ATOM     10  C   UNL     1       7.236  -0.457  -1.565  1.00  0.00     0.166 A 
ATOM     11  C   UNL     1       7.585  -1.521  -0.763  1.00  0.00     0.165 A 
ATOM     12  O   UNL     1       7.817  -0.653  -2.800  1.00  0.00    -0.454 OA
ATOM     13  O   UNL     1       8.380  -2.357  -1.530  1.00  0.00    -0.454 OA
ATOM     14  C   UNL     1       8.479  -1.891  -2.855  1.00  0.00     0.468 C 
ENDBRANCH   5   6
ENDBRANCH   1   5
TORSDOF 3
ENDMDL
MODEL 2
REMARK VINA RESULT:      -7.8      0.978      1.962
REMARK SMILES CC(=O)CCc1ccc2c(c1)OCO2
REMARK SMILES IDX 4 1 2 2 1 3 3 4 5 5 6 6 7 7 11 8 8 9 10 10 9 11 12 12 14 13
REMARK SMILES IDX 13 14
REMARK H PARENT
REMARK Flexibility Score: inf
ROOT
ATOM      1  C   UNL     1       5.482   2.894   0.210  1.00  0.00     0.080 C 
ENDROOT
BRANCH   1   2
ATOM      2  C   UNL     1       6.290   3.872   0.991  1.00  0.00     0.130 C 
ATOM      3  C   UNL     1       7.272   4.775   0.334  1.00  0.00     0.087 C 
ATOM      4  O   UNL     1       6.168   3.959   2.203  1.00  0.00    -0.300 OA
ENDBRANCH   1   2
BRANCH   1   5
ATOM      5  C   UNL     1       5.334   1.582   0.956  1.00  0.00     0.043 C 
BRANCH   5   6
ATOM      6  C   UNL     1       6.112   0.503   0.322  1.00  0.00    -0.044 A 
ATOM      7  C   UNL     1       6.401   0.514  -1.047  1.00  0.00     0.008 A 
ATOM      8  C   UNL     1       6.572  -0.545   1.086  1.00  0.00     0.054 A 
ATOM      9  C   UNL     1       7.136  -0.526  -1.587  1.00  0.00     0.051 A 
ATOM     10  C   UNL     1       7.315  -1.594   0.536  1.00  0.00     0.166 A 
ATOM     11  C   UNL     1       7.599  -1.584  -0.811  1.00  0.00     0.165 A 
ATOM     12  O   UNL     1       7.876  -2.732   1.076  1.00  0.00    -0.454 OA
ATOM     13  O   UNL     1       8.337  -2.728  -1.073  1.00  0.00    -0.454 OA
ATOM     14  C   UNL     1       8.613  -3.437   0.111  1.00  0.00     0.468 C 
ENDBRANCH   5   6
ENDBRANCH   1   5
TORSDOF 3
ENDMDL
MODEL 3
REMARK VINA RESULT:      -7.7      1.877      2.621
REMARK SMILES CC(=O)CCc1ccc2c(c1)OCO2
REMARK SMILES IDX 4 1 2 2 1 3 3 4 5 5 6 6 7 7 11 8 8 9 10 10 9 11 12 12 14 13
REMARK SMILES IDX 13 14
REMARK H PARENT
REMARK Flexibility Score: inf
ROOT
ATOM      1  C   UNL     1       5.510   1.920   1.255  1.00  0.00     0.080 C 
ENDROOT
BRANCH   1   2
ATOM      2  C   UNL     1       5.060   0.709   1.997  1.00  0.00     0.130 C 
ATOM      3  C   UNL     1       5.936  -0.483   2.150  1.00  0.00     0.087 C 
ATOM      4  O   UNL     1       3.950   0.660   2.503  1.00  0.00    -0.300 OA
ENDBRANCH   1   2
BRANCH   1   5
ATOM      5  C   UNL     1       5.386   1.726  -0.243  1.00  0.00     0.043 C 
BRANCH   5   6
ATOM      6  C   UNL     1       6.558   1.028  -0.802  1.00  0.00    -0.044 A 
ATOM      7  C   UNL     1       7.862   1.467  -0.549  1.00  0.00     0.008 A 
ATOM      8  C   UNL     1       6.376  -0.086  -1.590  1.00  0.00     0.054 A 
ATOM      9  C   UNL     1       8.923   0.770  -1.099  1.00  0.00     0.051 A 
ATOM     10  C   UNL     1       7.451  -0.786  -2.144  1.00  0.00     0.166 A 
ATOM     11  C   UNL     1       8.735  -0.355  -1.897  1.00  0.00     0.165 A 
ATOM     12  O   UNL     1       7.531  -1.903  -2.948  1.00  0.00    -0.454 OA
ATOM     13  O   UNL     1       9.586  -1.225  -2.561  1.00  0.00    -0.454 OA
ATOM     14  C   UNL     1       8.868  -2.274  -3.165  1.00  0.00     0.468 C 
ENDBRANCH   5   6
ENDBRANCH   1   5
TORSDOF 3
ENDMDL
MODEL 4
REMARK VINA RESULT:      -7.5      1.964      3.027
REMARK SMILES CC(=O)CCc1ccc2c(c1)OCO2
REMARK SMILES IDX 4 1 2 2 1 3 3 4 5 5 6 6 7 7 11 8 8 9 10 10 9 11 12 12 14 13
REMARK SMILES IDX 13 14
REMARK H PARENT
REMARK Flexibility Score: inf
ROOT
ATOM      1  C   UNL     1       5.770   1.342  -0.398  1.00  0.00     0.080 C 
ENDROOT
BRANCH   1   2
ATOM      2  C   UNL     1       5.129   1.332   0.946  1.00  0.00     0.130 C 
ATOM      3  C   UNL     1       5.375   0.236   1.920  1.00  0.00     0.087 C 
ATOM      4  O   UNL     1       4.377   2.231   1.289  1.00  0.00    -0.300 OA
ENDBRANCH   1   2
BRANCH   1   5
ATOM      5  C   UNL     1       7.261   1.088  -0.299  1.00  0.00     0.043 C 
BRANCH   5   6
ATOM      6  C   UNL     1       7.636  -0.206  -0.896  1.00  0.00    -0.044 A 
ATOM      7  C   UNL     1       7.734  -0.373  -2.282  1.00  0.00     0.008 A 
ATOM      8  C   UNL     1       7.901  -1.282  -0.080  1.00  0.00     0.054 A 
ATOM      9  C   UNL     1       8.091  -1.610  -2.786  1.00  0.00     0.051 A 
ATOM     10  C   UNL     1       8.262  -2.532  -0.594  1.00  0.00     0.166 A 
ATOM     11  C   UNL     1       8.357  -2.697  -1.958  1.00  0.00     0.165 A 
ATOM     12  O   UNL     1       8.570  -3.738  -0.002  1.00  0.00    -0.454 OA
ATOM     13  O   UNL     1       8.727  -4.015  -2.177  1.00  0.00    -0.454 OA
ATOM     14  C   UNL     1       8.960  -4.686  -0.962  1.00  0.00     0.468 C 
ENDBRANCH   5   6
ENDBRANCH   1   5
TORSDOF 3
ENDMDL
MODEL 5
REMARK VINA RESULT:      -7.4      1.818      2.828
REMARK SMILES CC(=O)CCc1ccc2c(c1)OCO2
REMARK SMILES IDX 4 1 2 2 1 3 3 4 5 5 6 6 7 7 11 8 8 9 10 10 9 11 12 12 14 13
REMARK SMILES IDX 13 14
REMARK H PARENT
REMARK Flexibility Score: inf
ROOT
ATOM      1  C   UNL     1       6.308   0.883   1.054  1.00  0.00     0.080 C 
ENDROOT
BRANCH   1   2
ATOM      2  C   UNL     1       5.111   1.759   0.919  1.00  0.00     0.130 C 
ATOM      3  C   UNL     1       4.914   2.634  -0.268  1.00  0.00     0.087 C 
ATOM      4  O   UNL     1       4.252   1.784   1.785  1.00  0.00    -0.300 OA
ENDBRANCH   1   2
BRANCH   1   5
ATOM      5  C   UNL     1       7.260   1.068  -0.112  1.00  0.00     0.043 C 
BRANCH   5   6
ATOM      6  C   UNL     1       7.595  -0.217  -0.752  1.00  0.00    -0.044 A 
ATOM      7  C   UNL     1       7.590  -0.365  -2.144  1.00  0.00     0.008 A 
ATOM      8  C   UNL     1       7.926  -1.302   0.027  1.00  0.00     0.054 A 
ATOM      9  C   UNL     1       7.914  -1.594  -2.689  1.00  0.00     0.051 A 
ATOM     10  C   UNL     1       8.253  -2.542  -0.528  1.00  0.00     0.166 A 
ATOM     11  C   UNL     1       8.247  -2.690  -1.898  1.00  0.00     0.165 A 
ATOM     12  O   UNL     1       8.610  -3.754   0.023  1.00  0.00    -0.454 OA
ATOM     13  O   UNL     1       8.605  -4.002  -2.161  1.00  0.00    -0.454 OA
ATOM     14  C   UNL     1       8.932  -4.688  -0.976  1.00  0.00     0.468 C 
ENDBRANCH   5   6
ENDBRANCH   1   5
TORSDOF 3
ENDMDL
