@<TRIPOS>MOLECULE
/home/cewinharhar/GITHUB/reincatalyze/data/processed/docking_pred/2023-May-22-1902_sub9_nm5_bs15_s42_ex16_mel10_mts1000_k50_ec02_g099_lra9e-4_lrc1e-3/79495f175fd15f32955b26bb978cae7af324a937_ligand_9.pdbqt
 14 15 0 0 0
SMALL
GASTEIGER

@<TRIPOS>ATOM
      1  C          5.8210    1.3820   -0.3410 C.3     1  UNL1        0.0800
      2  C          5.1530    1.3260    0.9900 C.2     1  UNL1        0.1300
      3  C          5.3750    0.1930    1.9270 C.3     1  UNL1        0.0870
      4  O          4.3980    2.2140    1.3500 O.2     1  UNL1       -0.3000
      5  C          7.2980    1.0640   -0.2280 C.3     1  UNL1        0.0430
      6  C          7.6270   -0.2330   -0.8460 C.2     1  UNL1       -0.0440
      7  C          7.6200   -0.4070   -2.2350 C.2     1  UNL1        0.0080
      8  C          7.9510   -1.3060   -0.0470 C.2     1  UNL1        0.0540
      9  C          7.9370   -1.6470   -2.7570 C.2     1  UNL1        0.0510
     10  C          8.2720   -2.5580   -0.5800 C.2     1  UNL1        0.1660
     11  C          8.2650   -2.7300   -1.9470 C.2     1  UNL1        0.1650
     12  O          8.6230   -3.7620   -0.0070 O.2     1  UNL1       -0.4540
     13  O          8.6160   -4.0490   -2.1860 O.2     1  UNL1       -0.4540
     14  C          8.9390   -4.7150   -0.9890 C.3     1  UNL1        0.4680
@<TRIPOS>BOND
     1     9     7    1
     2     9    11    2
     3     7     6    2
     4    13    11    1
     5    13    14    1
     6    11    10    1
     7    14    12    1
     8     6     5    1
     9     6     8    1
    10    10     8    2
    11    10    12    1
    12     1     5    1
    13     1     2    1
    14     2     4    2
    15     2     3    1
