@<TRIPOS>MOLECULE
/home/cewinharhar/GITHUB/reincatalyze/data/processed/docking_pred/2023-May-22-1902_sub9_nm5_bs15_s42_ex16_mel10_mts1000_k50_ec02_g099_lra9e-4_lrc1e-3/79495f175fd15f32955b26bb978cae7af324a937_ligand_9.pdbqt
 14 15 0 0 0
SMALL
GASTEIGER

@<TRIPOS>ATOM
      1  C          5.7560    1.4070   -0.5090 C.3     1  UNL1        0.0800
      2  C          5.3770    2.7090    0.1060 C.2     1  UNL1        0.1300
      3  C          6.4010    3.7090    0.5110 C.3     1  UNL1        0.0870
      4  O          4.2060    2.9950    0.2970 O.2     1  UNL1       -0.3000
      5  C          7.2150    1.0820   -0.2560 C.3     1  UNL1        0.0430
      6  C          7.5980   -0.2110   -0.8500 C.2     1  UNL1       -0.0440
      7  C          7.6830   -0.3840   -2.2370 C.2     1  UNL1        0.0080
      8  C          7.8830   -1.2800   -0.0320 C.2     1  UNL1        0.0540
      9  C          8.0480   -1.6200   -2.7370 C.2     1  UNL1        0.0510
     10  C          8.2530   -2.5280   -0.5430 C.2     1  UNL1        0.1660
     11  C          8.3350   -2.6990   -1.9070 C.2     1  UNL1        0.1650
     12  O          8.5800   -3.7270    0.0520 O.2     1  UNL1       -0.4540
     13  O          8.7170   -4.0140   -2.1230 O.2     1  UNL1       -0.4540
     14  C          8.9710   -4.6760   -0.9070 C.3     1  UNL1        0.4680
@<TRIPOS>BOND
     1     9     7    1
     2     9    11    2
     3     7     6    2
     4    13    11    1
     5    13    14    1
     6    11    10    1
     7    14    12    1
     8     6     5    1
     9     6     8    1
    10    10     8    2
    11    10    12    1
    12     1     5    1
    13     1     2    1
    14     2     4    2
    15     2     3    1
