@<TRIPOS>MOLECULE
/home/cewinharhar/GITHUB/reincatalyze/data/processed/docking_pred/2023-May-22-1902_sub9_nm5_bs15_s42_ex16_mel10_mts1000_k50_ec02_g099_lra9e-4_lrc1e-3/7ac8f9624e71b352d93dccd4dc48cb56e96c53c0_ligand_9.pdbqt
 14 15 0 0 0
SMALL
GASTEIGER

@<TRIPOS>ATOM
      1  C          6.0590    3.2920    0.0630 C.3     1  UNL1        0.0800
      2  C          6.6290    3.7810    1.3490 C.2     1  UNL1        0.1300
      3  C          8.0420    3.5140    1.7280 C.3     1  UNL1        0.0870
      4  O          5.9470    4.4200    2.1340 O.2     1  UNL1       -0.3000
      5  C          5.0330    2.2000    0.2960 C.3     1  UNL1        0.0430
      6  C          5.6690    0.9210    0.6600 C.2     1  UNL1       -0.0440
      7  C          5.3980    0.2890    1.8790 C.2     1  UNL1        0.0080
      8  C          6.5490    0.3240   -0.2140 C.2     1  UNL1        0.0540
      9  C          6.0240   -0.9100    2.1660 C.2     1  UNL1        0.0510
     10  C          7.1790   -0.8890    0.0810 C.2     1  UNL1        0.1660
     11  C          6.9140   -1.5110    1.2810 C.2     1  UNL1        0.1650
     12  O          8.0800   -1.6720   -0.6090 O.2     1  UNL1       -0.4540
     13  O          7.6650   -2.6760    1.3020 O.2     1  UNL1       -0.4540
     14  C          8.3490   -2.8620    0.0860 C.3     1  UNL1        0.4680
@<TRIPOS>BOND
     1    12    10    1
     2    12    14    1
     3     8    10    1
     4     8     6    2
     5     1     5    1
     6     1     2    1
     7    10    11    2
     8    14    13    1
     9     5     6    1
    10     6     7    1
    11    11    13    1
    12    11     9    1
    13     2     3    1
    14     2     4    2
    15     7     9    2
