@<TRIPOS>MOLECULE
/home/cewinharhar/GITHUB/reincatalyze/data/processed/docking_pred/2023-May-22-1902_sub9_nm5_bs15_s42_ex16_mel10_mts1000_k50_ec02_g099_lra9e-4_lrc1e-3/7ac8f9624e71b352d93dccd4dc48cb56e96c53c0_ligand_9.pdbqt
 14 15 0 0 0
SMALL
GASTEIGER

@<TRIPOS>ATOM
      1  C          5.4040    1.4110    0.5370 C.3     1  UNL1        0.0800
      2  C          5.1340    0.4770    1.6650 C.2     1  UNL1        0.1300
      3  C          5.8390   -0.8270    1.7840 C.3     1  UNL1        0.0870
      4  O          4.3190    0.7570    2.5290 O.2     1  UNL1       -0.3000
      5  C          6.4780    2.4170    0.9010 C.3     1  UNL1        0.0430
      6  C          7.8250    1.8210    0.8530 C.2     1  UNL1       -0.0440
      7  C          8.3500    1.2900   -0.3300 C.2     1  UNL1        0.0080
      8  C          8.5940    1.7810    1.9940 C.2     1  UNL1        0.0540
      9  C          9.6210    0.7440   -0.3150 C.2     1  UNL1        0.0510
     10  C          9.8780    1.2280    2.0040 C.2     1  UNL1        0.1660
     11  C         10.3950    0.7050    0.8400 C.2     1  UNL1        0.1650
     12  O         10.8260    1.0710    2.9930 O.2     1  UNL1       -0.4540
     13  O         11.6640    0.2330    1.1410 O.2     1  UNL1       -0.4540
     14  C         12.0120    0.5270    2.4730 C.3     1  UNL1        0.4680
@<TRIPOS>BOND
     1     7     9    1
     2     7     6    2
     3     9    11    2
     4     1     5    1
     5     1     2    1
     6    11    13    1
     7    11    10    1
     8     6     5    1
     9     6     8    1
    10    13    14    1
    11     2     3    1
    12     2     4    2
    13     8    10    2
    14    10    12    1
    15    14    12    1
