@<TRIPOS>MOLECULE
/home/cewinharhar/GITHUB/reincatalyze/data/processed/docking_pred/2023-May-22-1902_sub9_nm5_bs15_s42_ex16_mel10_mts1000_k50_ec02_g099_lra9e-4_lrc1e-3/7ac8f9624e71b352d93dccd4dc48cb56e96c53c0_ligand_9.pdbqt
 14 15 0 0 0
SMALL
GASTEIGER

@<TRIPOS>ATOM
      1  C          7.0120   -1.3360   -0.9540 C.3     1  UNL1        0.0800
      2  C          7.5470   -1.6960    0.3880 C.2     1  UNL1        0.1300
      3  C          6.6930   -1.6590    1.6050 C.3     1  UNL1        0.0870
      4  O          8.7110   -2.0340    0.5290 O.2     1  UNL1       -0.3000
      5  C          7.5480    0.0030   -1.4200 C.3     1  UNL1        0.0430
      6  C          7.0110    1.1160   -0.6170 C.2     1  UNL1       -0.0440
      7  C          5.6420    1.4060   -0.5890 C.2     1  UNL1        0.0080
      8  C          7.8670    1.8940    0.1300 C.2     1  UNL1        0.0540
      9  C          5.1960    2.4630    0.1840 C.2     1  UNL1        0.0510
     10  C          7.4110    2.9600    0.9100 C.2     1  UNL1        0.1660
     11  C          6.0640    3.2470    0.9370 C.2     1  UNL1        0.1650
     12  O          8.0500    3.8680    1.7270 O.2     1  UNL1       -0.4540
     13  O          5.9030    4.3360    1.7800 O.2     1  UNL1       -0.4540
     14  C          7.1250    4.7050    2.3730 C.3     1  UNL1        0.4680
@<TRIPOS>BOND
     1     5     1    1
     2     5     6    1
     3     1     2    1
     4     6     7    2
     5     6     8    1
     6     7     9    1
     7     8    10    2
     8     9    11    2
     9     2     4    2
    10     2     3    1
    11    10    11    1
    12    10    12    1
    13    11    13    1
    14    12    14    1
    15    13    14    1
