@<TRIPOS>MOLECULE
/home/cewinharhar/GITHUB/reincatalyze/data/processed/docking_pred/2023-May-22-1902_sub9_nm5_bs15_s42_ex16_mel10_mts1000_k50_ec02_g099_lra9e-4_lrc1e-3/7c86502248d8ce059d377094dc2c2500eee92fd7_ligand_9.pdbqt
 14 15 0 0 0
SMALL
GASTEIGER

@<TRIPOS>ATOM
      1  C          5.4670    2.8750    0.3060 C.3     1  UNL1        0.0800
      2  C          6.2590    3.8840    1.0630 C.2     1  UNL1        0.1300
      3  C          7.2400    4.7750    0.3860 C.3     1  UNL1        0.0870
      4  O          6.1250    4.0090    2.2700 O.2     1  UNL1       -0.3000
      5  C          5.3340    1.5820    1.0850 C.3     1  UNL1        0.0430
      6  C          6.1330    0.4980    0.4860 C.2     1  UNL1       -0.0440
      7  C          6.5350   -0.6150    1.2320 C.2     1  UNL1        0.0080
      8  C          6.4960    0.5720   -0.8400 C.2     1  UNL1        0.0540
      9  C          7.2830   -1.6020    0.6150 C.2     1  UNL1        0.0510
     10  C          7.2510   -0.4290   -1.4590 C.2     1  UNL1        0.1660
     11  C          7.6480   -1.5240   -0.7250 C.2     1  UNL1        0.1650
     12  O          7.7320   -0.5860   -2.7420 O.2     1  UNL1       -0.4540
     13  O          8.3710   -2.3400   -1.5810 O.2     1  UNL1       -0.4540
     14  C          8.3720   -1.8270   -2.8920 C.3     1  UNL1        0.4680
@<TRIPOS>BOND
     1    14    12    1
     2    14    13    1
     3    12    10    1
     4    13    11    1
     5    10     8    1
     6    10    11    2
     7     8     6    2
     8    11     9    1
     9     1     2    1
    10     1     5    1
    11     3     2    1
    12     6     5    1
    13     6     7    1
    14     9     7    2
    15     2     4    2
