MODEL 1
REMARK VINA RESULT:      -7.8      0.000      0.000
REMARK SMILES CC(=O)CCc1ccc2c(c1)OCO2
REMARK SMILES IDX 4 1 2 2 1 3 3 4 5 5 6 6 7 7 11 8 8 9 10 10 9 11 12 12 14 13
REMARK SMILES IDX 13 14
REMARK H PARENT
REMARK Flexibility Score: inf
ROOT
ATOM      1  C   UNL     1       5.482   2.894   0.210  1.00  0.00     0.080 C 
ENDROOT
BRANCH   1   2
ATOM      2  C   UNL     1       6.290   3.872   0.991  1.00  0.00     0.130 C 
ATOM      3  C   UNL     1       7.272   4.775   0.334  1.00  0.00     0.087 C 
ATOM      4  O   UNL     1       6.168   3.959   2.203  1.00  0.00    -0.300 OA
ENDBRANCH   1   2
BRANCH   1   5
ATOM      5  C   UNL     1       5.334   1.582   0.956  1.00  0.00     0.043 C 
BRANCH   5   6
ATOM      6  C   UNL     1       6.112   0.503   0.322  1.00  0.00    -0.044 A 
ATOM      7  C   UNL     1       6.401   0.514  -1.047  1.00  0.00     0.008 A 
ATOM      8  C   UNL     1       6.572  -0.545   1.086  1.00  0.00     0.054 A 
ATOM      9  C   UNL     1       7.136  -0.526  -1.587  1.00  0.00     0.051 A 
ATOM     10  C   UNL     1       7.315  -1.594   0.536  1.00  0.00     0.166 A 
ATOM     11  C   UNL     1       7.599  -1.584  -0.811  1.00  0.00     0.165 A 
ATOM     12  O   UNL     1       7.876  -2.732   1.076  1.00  0.00    -0.454 OA
ATOM     13  O   UNL     1       8.337  -2.728  -1.073  1.00  0.00    -0.454 OA
ATOM     14  C   UNL     1       8.613  -3.437   0.111  1.00  0.00     0.468 C 
ENDBRANCH   5   6
ENDBRANCH   1   5
TORSDOF 3
ENDMDL
MODEL 2
REMARK VINA RESULT:      -7.7      0.977      1.967
REMARK SMILES CC(=O)CCc1ccc2c(c1)OCO2
REMARK SMILES IDX 4 1 2 2 1 3 3 4 5 5 6 6 7 7 11 8 8 9 10 10 9 11 12 12 14 13
REMARK SMILES IDX 13 14
REMARK H PARENT
REMARK Flexibility Score: inf
ROOT
ATOM      1  C   UNL     1       5.467   2.875   0.306  1.00  0.00     0.080 C 
ENDROOT
BRANCH   1   2
ATOM      2  C   UNL     1       6.259   3.884   1.063  1.00  0.00     0.130 C 
ATOM      3  C   UNL     1       7.240   4.775   0.386  1.00  0.00     0.087 C 
ATOM      4  O   UNL     1       6.125   4.009   2.270  1.00  0.00    -0.300 OA
ENDBRANCH   1   2
BRANCH   1   5
ATOM      5  C   UNL     1       5.334   1.582   1.085  1.00  0.00     0.043 C 
BRANCH   5   6
ATOM      6  C   UNL     1       6.133   0.498   0.486  1.00  0.00    -0.044 A 
ATOM      7  C   UNL     1       6.535  -0.615   1.232  1.00  0.00     0.008 A 
ATOM      8  C   UNL     1       6.496   0.572  -0.840  1.00  0.00     0.054 A 
ATOM      9  C   UNL     1       7.283  -1.602   0.615  1.00  0.00     0.051 A 
ATOM     10  C   UNL     1       7.251  -0.429  -1.459  1.00  0.00     0.166 A 
ATOM     11  C   UNL     1       7.648  -1.524  -0.725  1.00  0.00     0.165 A 
ATOM     12  O   UNL     1       7.732  -0.586  -2.742  1.00  0.00    -0.454 OA
ATOM     13  O   UNL     1       8.371  -2.340  -1.581  1.00  0.00    -0.454 OA
ATOM     14  C   UNL     1       8.372  -1.827  -2.892  1.00  0.00     0.468 C 
ENDBRANCH   5   6
ENDBRANCH   1   5
TORSDOF 3
ENDMDL
MODEL 3
REMARK VINA RESULT:      -7.7      2.399      3.039
REMARK SMILES CC(=O)CCc1ccc2c(c1)OCO2
REMARK SMILES IDX 4 1 2 2 1 3 3 4 5 5 6 6 7 7 11 8 8 9 10 10 9 11 12 12 14 13
REMARK SMILES IDX 13 14
REMARK H PARENT
REMARK Flexibility Score: inf
ROOT
ATOM      1  C   UNL     1       5.502   1.927   1.260  1.00  0.00     0.080 C 
ENDROOT
BRANCH   1   2
ATOM      2  C   UNL     1       5.056   0.712   1.996  1.00  0.00     0.130 C 
ATOM      3  C   UNL     1       5.935  -0.478   2.145  1.00  0.00     0.087 C 
ATOM      4  O   UNL     1       3.946   0.657   2.501  1.00  0.00    -0.300 OA
ENDBRANCH   1   2
BRANCH   1   5
ATOM      5  C   UNL     1       5.382   1.738  -0.239  1.00  0.00     0.043 C 
BRANCH   5   6
ATOM      6  C   UNL     1       6.553   1.039  -0.798  1.00  0.00    -0.044 A 
ATOM      7  C   UNL     1       7.858   1.475  -0.541  1.00  0.00     0.008 A 
ATOM      8  C   UNL     1       6.371  -0.072  -1.589  1.00  0.00     0.054 A 
ATOM      9  C   UNL     1       8.919   0.778  -1.092  1.00  0.00     0.051 A 
ATOM     10  C   UNL     1       7.446  -0.774  -2.143  1.00  0.00     0.166 A 
ATOM     11  C   UNL     1       8.730  -0.345  -1.892  1.00  0.00     0.165 A 
ATOM     12  O   UNL     1       7.525  -1.889  -2.950  1.00  0.00    -0.454 OA
ATOM     13  O   UNL     1       9.580  -1.215  -2.557  1.00  0.00    -0.454 OA
ATOM     14  C   UNL     1       8.862  -2.262  -3.165  1.00  0.00     0.468 C 
ENDBRANCH   5   6
ENDBRANCH   1   5
TORSDOF 3
ENDMDL
MODEL 4
REMARK VINA RESULT:      -7.5      1.784      2.383
REMARK SMILES CC(=O)CCc1ccc2c(c1)OCO2
REMARK SMILES IDX 4 1 2 2 1 3 3 4 5 5 6 6 7 7 11 8 8 9 10 10 9 11 12 12 14 13
REMARK SMILES IDX 13 14
REMARK H PARENT
REMARK Flexibility Score: inf
ROOT
ATOM      1  C   UNL     1       5.724   1.302  -0.321  1.00  0.00     0.080 C 
ENDROOT
BRANCH   1   2
ATOM      2  C   UNL     1       5.189   1.297   1.069  1.00  0.00     0.130 C 
ATOM      3  C   UNL     1       5.359   0.124   1.968  1.00  0.00     0.087 C 
ATOM      4  O   UNL     1       4.590   2.264   1.513  1.00  0.00    -0.300 OA
ENDBRANCH   1   2
BRANCH   1   5
ATOM      5  C   UNL     1       7.228   1.111  -0.332  1.00  0.00     0.043 C 
BRANCH   5   6
ATOM      6  C   UNL     1       7.611  -0.188  -0.912  1.00  0.00    -0.044 A 
ATOM      7  C   UNL     1       7.707  -0.372  -2.297  1.00  0.00     0.008 A 
ATOM      8  C   UNL     1       7.884  -1.252  -0.083  1.00  0.00     0.054 A 
ATOM      9  C   UNL     1       8.071  -1.614  -2.784  1.00  0.00     0.051 A 
ATOM     10  C   UNL     1       8.252  -2.506  -0.581  1.00  0.00     0.166 A 
ATOM     11  C   UNL     1       8.346  -2.688  -1.943  1.00  0.00     0.165 A 
ATOM     12  O   UNL     1       8.568  -3.702   0.026  1.00  0.00    -0.454 OA
ATOM     13  O   UNL     1       8.724  -4.006  -2.145  1.00  0.00    -0.454 OA
ATOM     14  C   UNL     1       8.964  -4.660  -0.922  1.00  0.00     0.468 C 
ENDBRANCH   5   6
ENDBRANCH   1   5
TORSDOF 3
ENDMDL
MODEL 5
REMARK VINA RESULT:      -7.4      1.627      2.148
REMARK SMILES CC(=O)CCc1ccc2c(c1)OCO2
REMARK SMILES IDX 4 1 2 2 1 3 3 4 5 5 6 6 7 7 11 8 8 9 10 10 9 11 12 12 14 13
REMARK SMILES IDX 13 14
REMARK H PARENT
REMARK Flexibility Score: inf
ROOT
ATOM      1  C   UNL     1       6.142   0.760   1.000  1.00  0.00     0.080 C 
ENDROOT
BRANCH   1   2
ATOM      2  C   UNL     1       5.030   1.747   0.916  1.00  0.00     0.130 C 
ATOM      3  C   UNL     1       4.911   2.694  -0.225  1.00  0.00     0.087 C 
ATOM      4  O   UNL     1       4.179   1.808   1.789  1.00  0.00    -0.300 OA
ENDBRANCH   1   2
BRANCH   1   5
ATOM      5  C   UNL     1       7.155   0.977  -0.106  1.00  0.00     0.043 C 
BRANCH   5   6
ATOM      6  C   UNL     1       7.527  -0.289  -0.762  1.00  0.00    -0.044 A 
ATOM      7  C   UNL     1       7.532  -0.419  -2.156  1.00  0.00     0.008 A 
ATOM      8  C   UNL     1       7.882  -1.376   0.004  1.00  0.00     0.054 A 
ATOM      9  C   UNL     1       7.891  -1.631  -2.716  1.00  0.00     0.051 A 
ATOM     10  C   UNL     1       8.245  -2.600  -0.567  1.00  0.00     0.166 A 
ATOM     11  C   UNL     1       8.249  -2.728  -1.938  1.00  0.00     0.165 A 
ATOM     12  O   UNL     1       8.631  -3.810  -0.030  1.00  0.00    -0.454 OA
ATOM     13  O   UNL     1       8.642  -4.028  -2.218  1.00  0.00    -0.454 OA
ATOM     14  C   UNL     1       8.982  -4.720  -1.040  1.00  0.00     0.468 C 
ENDBRANCH   5   6
ENDBRANCH   1   5
TORSDOF 3
ENDMDL
