@<TRIPOS>MOLECULE
/home/cewinharhar/GITHUB/reincatalyze/data/processed/docking_pred/2023-May-22-1902_sub9_nm5_bs15_s42_ex16_mel10_mts1000_k50_ec02_g099_lra9e-4_lrc1e-3/7c86502248d8ce059d377094dc2c2500eee92fd7_ligand_9.pdbqt
 14 15 0 0 0
SMALL
GASTEIGER

@<TRIPOS>ATOM
      1  C          5.5020    1.9270    1.2600 C.3     1  UNL1        0.0800
      2  C          5.0560    0.7120    1.9960 C.2     1  UNL1        0.1300
      3  C          5.9350   -0.4780    2.1450 C.3     1  UNL1        0.0870
      4  O          3.9460    0.6570    2.5010 O.2     1  UNL1       -0.3000
      5  C          5.3820    1.7380   -0.2390 C.3     1  UNL1        0.0430
      6  C          6.5530    1.0390   -0.7980 C.2     1  UNL1       -0.0440
      7  C          7.8580    1.4750   -0.5410 C.2     1  UNL1        0.0080
      8  C          6.3710   -0.0720   -1.5890 C.2     1  UNL1        0.0540
      9  C          8.9190    0.7780   -1.0920 C.2     1  UNL1        0.0510
     10  C          7.4460   -0.7740   -2.1430 C.2     1  UNL1        0.1660
     11  C          8.7300   -0.3450   -1.8920 C.2     1  UNL1        0.1650
     12  O          7.5250   -1.8890   -2.9500 O.2     1  UNL1       -0.4540
     13  O          9.5800   -1.2150   -2.5570 O.2     1  UNL1       -0.4540
     14  C          8.8620   -2.2620   -3.1650 C.3     1  UNL1        0.4680
@<TRIPOS>BOND
     1    14    12    1
     2    14    13    1
     3    12    10    1
     4    13    11    1
     5    10    11    2
     6    10     8    1
     7    11     9    1
     8     8     6    2
     9     9     7    2
    10     6     7    1
    11     6     5    1
    12     5     1    1
    13     1     2    1
    14     2     3    1
    15     2     4    2
