MODEL 1
REMARK VINA RESULT:      -7.7      0.000      0.000
REMARK SMILES CC(=O)CCc1ccc2c(c1)OCO2
REMARK SMILES IDX 4 1 2 2 1 3 3 4 5 5 6 6 7 7 11 8 8 9 10 10 9 11 12 12 14 13
REMARK SMILES IDX 13 14
REMARK H PARENT
REMARK Flexibility Score: inf
ROOT
ATOM      1  C   UNL     1       5.427   2.972   0.157  1.00  0.00     0.080 C 
ENDROOT
BRANCH   1   2
ATOM      2  C   UNL     1       6.315   3.838   0.981  1.00  0.00     0.130 C 
ATOM      3  C   UNL     1       7.289   4.774   0.359  1.00  0.00     0.087 C 
ATOM      4  O   UNL     1       6.269   3.803   2.200  1.00  0.00    -0.300 OA
ENDBRANCH   1   2
BRANCH   1   5
ATOM      5  C   UNL     1       5.168   1.643   0.838  1.00  0.00     0.043 C 
BRANCH   5   6
ATOM      6  C   UNL     1       5.998   0.566   0.268  1.00  0.00    -0.044 A 
ATOM      7  C   UNL     1       6.371   0.564  -1.081  1.00  0.00     0.008 A 
ATOM      8  C   UNL     1       6.424  -0.465   1.073  1.00  0.00     0.054 A 
ATOM      9  C   UNL     1       7.151  -0.473  -1.560  1.00  0.00     0.051 A 
ATOM     10  C   UNL     1       7.214  -1.511   0.585  1.00  0.00     0.166 A 
ATOM     11  C   UNL     1       7.580  -1.514  -0.743  1.00  0.00     0.165 A 
ATOM     12  O   UNL     1       7.756  -2.633   1.173  1.00  0.00    -0.454 OA
ATOM     13  O   UNL     1       8.348  -2.650  -0.944  1.00  0.00    -0.454 OA
ATOM     14  C   UNL     1       8.560  -3.341   0.265  1.00  0.00     0.468 C 
ENDBRANCH   5   6
ENDBRANCH   1   5
TORSDOF 3
ENDMDL
MODEL 2
REMARK VINA RESULT:      -7.7      0.998      1.984
REMARK SMILES CC(=O)CCc1ccc2c(c1)OCO2
REMARK SMILES IDX 4 1 2 2 1 3 3 4 5 5 6 6 7 7 11 8 8 9 10 10 9 11 12 12 14 13
REMARK SMILES IDX 13 14
REMARK H PARENT
REMARK Flexibility Score: inf
ROOT
ATOM      1  C   UNL     1       5.534   2.828   0.267  1.00  0.00     0.080 C 
ENDROOT
BRANCH   1   2
ATOM      2  C   UNL     1       6.331   3.791   1.078  1.00  0.00     0.130 C 
ATOM      3  C   UNL     1       7.249   4.774   0.443  1.00  0.00     0.087 C 
ATOM      4  O   UNL     1       6.253   3.800   2.295  1.00  0.00    -0.300 OA
ENDBRANCH   1   2
BRANCH   1   5
ATOM      5  C   UNL     1       5.332   1.521   1.007  1.00  0.00     0.043 C 
BRANCH   5   6
ATOM      6  C   UNL     1       6.140   0.433   0.426  1.00  0.00    -0.044 A 
ATOM      7  C   UNL     1       6.551  -0.664   1.191  1.00  0.00     0.008 A 
ATOM      8  C   UNL     1       6.502   0.487  -0.901  1.00  0.00     0.054 A 
ATOM      9  C   UNL     1       7.307  -1.655   0.592  1.00  0.00     0.051 A 
ATOM     10  C   UNL     1       7.266  -0.518  -1.503  1.00  0.00     0.166 A 
ATOM     11  C   UNL     1       7.672  -1.597  -0.750  1.00  0.00     0.165 A 
ATOM     12  O   UNL     1       7.748  -0.692  -2.782  1.00  0.00    -0.454 OA
ATOM     13  O   UNL     1       8.402  -2.421  -1.592  1.00  0.00    -0.454 OA
ATOM     14  C   UNL     1       8.399  -1.931  -2.912  1.00  0.00     0.468 C 
ENDBRANCH   5   6
ENDBRANCH   1   5
TORSDOF 3
ENDMDL
MODEL 3
REMARK VINA RESULT:      -7.6      2.411      3.040
REMARK SMILES CC(=O)CCc1ccc2c(c1)OCO2
REMARK SMILES IDX 4 1 2 2 1 3 3 4 5 5 6 6 7 7 11 8 8 9 10 10 9 11 12 12 14 13
REMARK SMILES IDX 13 14
REMARK H PARENT
REMARK Flexibility Score: inf
ROOT
ATOM      1  C   UNL     1       5.505   1.934   1.243  1.00  0.00     0.080 C 
ENDROOT
BRANCH   1   2
ATOM      2  C   UNL     1       5.076   0.722   1.995  1.00  0.00     0.130 C 
ATOM      3  C   UNL     1       5.975  -0.450   2.166  1.00  0.00     0.087 C 
ATOM      4  O   UNL     1       3.965   0.656   2.495  1.00  0.00    -0.300 OA
ENDBRANCH   1   2
BRANCH   1   5
ATOM      5  C   UNL     1       5.382   1.726  -0.254  1.00  0.00     0.043 C 
BRANCH   5   6
ATOM      6  C   UNL     1       6.555   1.026  -0.807  1.00  0.00    -0.044 A 
ATOM      7  C   UNL     1       7.859   1.459  -0.541  1.00  0.00     0.008 A 
ATOM      8  C   UNL     1       6.375  -0.083  -1.602  1.00  0.00     0.054 A 
ATOM      9  C   UNL     1       8.922   0.762  -1.087  1.00  0.00     0.051 A 
ATOM     10  C   UNL     1       7.453  -0.785  -2.150  1.00  0.00     0.166 A 
ATOM     11  C   UNL     1       8.737  -0.359  -1.891  1.00  0.00     0.165 A 
ATOM     12  O   UNL     1       7.535  -1.898  -2.959  1.00  0.00    -0.454 OA
ATOM     13  O   UNL     1       9.589  -1.229  -2.552  1.00  0.00    -0.454 OA
ATOM     14  C   UNL     1       8.873  -2.273  -3.167  1.00  0.00     0.468 C 
ENDBRANCH   5   6
ENDBRANCH   1   5
TORSDOF 3
ENDMDL
MODEL 4
REMARK VINA RESULT:      -7.4      1.790      2.449
REMARK SMILES CC(=O)CCc1ccc2c(c1)OCO2
REMARK SMILES IDX 4 1 2 2 1 3 3 4 5 5 6 6 7 7 11 8 8 9 10 10 9 11 12 12 14 13
REMARK SMILES IDX 13 14
REMARK H PARENT
REMARK Flexibility Score: inf
ROOT
ATOM      1  C   UNL     1       5.743   1.320  -0.304  1.00  0.00     0.080 C 
ENDROOT
BRANCH   1   2
ATOM      2  C   UNL     1       5.166   1.283   1.069  1.00  0.00     0.130 C 
ATOM      3  C   UNL     1       5.327   0.096   1.952  1.00  0.00     0.087 C 
ATOM      4  O   UNL     1       4.539   2.232   1.512  1.00  0.00    -0.300 OA
ENDBRANCH   1   2
BRANCH   1   5
ATOM      5  C   UNL     1       7.243   1.103  -0.276  1.00  0.00     0.043 C 
BRANCH   5   6
ATOM      6  C   UNL     1       7.619  -0.189  -0.876  1.00  0.00    -0.044 A 
ATOM      7  C   UNL     1       7.706  -0.356  -2.263  1.00  0.00     0.008 A 
ATOM      8  C   UNL     1       7.895  -1.264  -0.063  1.00  0.00     0.054 A 
ATOM      9  C   UNL     1       8.065  -1.592  -2.769  1.00  0.00     0.051 A 
ATOM     10  C   UNL     1       8.258  -2.512  -0.579  1.00  0.00     0.166 A 
ATOM     11  C   UNL     1       8.343  -2.677  -1.944  1.00  0.00     0.165 A 
ATOM     12  O   UNL     1       8.576  -3.717   0.011  1.00  0.00    -0.454 OA
ATOM     13  O   UNL     1       8.717  -3.993  -2.166  1.00  0.00    -0.454 OA
ATOM     14  C   UNL     1       8.963  -4.663  -0.952  1.00  0.00     0.468 C 
ENDBRANCH   5   6
ENDBRANCH   1   5
TORSDOF 3
ENDMDL
MODEL 5
REMARK VINA RESULT:      -7.3      1.648      2.221
REMARK SMILES CC(=O)CCc1ccc2c(c1)OCO2
REMARK SMILES IDX 4 1 2 2 1 3 3 4 5 5 6 6 7 7 11 8 8 9 10 10 9 11 12 12 14 13
REMARK SMILES IDX 13 14
REMARK H PARENT
REMARK Flexibility Score: inf
ROOT
ATOM      1  C   UNL     1       6.102   0.732   1.057  1.00  0.00     0.080 C 
ENDROOT
BRANCH   1   2
ATOM      2  C   UNL     1       4.995   1.722   0.942  1.00  0.00     0.130 C 
ATOM      3  C   UNL     1       4.896   2.650  -0.217  1.00  0.00     0.087 C 
ATOM      4  O   UNL     1       4.133   1.802   1.801  1.00  0.00    -0.300 OA
ENDBRANCH   1   2
BRANCH   1   5
ATOM      5  C   UNL     1       7.158   0.960  -0.006  1.00  0.00     0.043 C 
BRANCH   5   6
ATOM      6  C   UNL     1       7.525  -0.293  -0.689  1.00  0.00    -0.044 A 
ATOM      7  C   UNL     1       7.518  -0.396  -2.085  1.00  0.00     0.008 A 
ATOM      8  C   UNL     1       7.887  -1.394   0.053  1.00  0.00     0.054 A 
ATOM      9  C   UNL     1       7.873  -1.598  -2.671  1.00  0.00     0.051 A 
ATOM     10  C   UNL     1       8.246  -2.607  -0.544  1.00  0.00     0.166 A 
ATOM     11  C   UNL     1       8.238  -2.709  -1.917  1.00  0.00     0.165 A 
ATOM     12  O   UNL     1       8.637  -3.826  -0.033  1.00  0.00    -0.454 OA
ATOM     13  O   UNL     1       8.630  -4.003  -2.225  1.00  0.00    -0.454 OA
ATOM     14  C   UNL     1       8.980  -4.717  -1.063  1.00  0.00     0.468 C 
ENDBRANCH   5   6
ENDBRANCH   1   5
TORSDOF 3
ENDMDL
