@<TRIPOS>MOLECULE
/home/cewinharhar/GITHUB/reincatalyze/data/processed/docking_pred/2023-May-22-1902_sub9_nm5_bs15_s42_ex16_mel10_mts1000_k50_ec02_g099_lra9e-4_lrc1e-3/7d60c2a66717a3f4b6d307e9593656cfb0aaeeb8_ligand_9.pdbqt
 14 15 0 0 0
SMALL
GASTEIGER

@<TRIPOS>ATOM
      1  C          5.5050    1.9340    1.2430 C.3     1  UNL1        0.0800
      2  C          5.0760    0.7220    1.9950 C.2     1  UNL1        0.1300
      3  C          5.9750   -0.4500    2.1660 C.3     1  UNL1        0.0870
      4  O          3.9650    0.6560    2.4950 O.2     1  UNL1       -0.3000
      5  C          5.3820    1.7260   -0.2540 C.3     1  UNL1        0.0430
      6  C          6.5550    1.0260   -0.8070 C.2     1  UNL1       -0.0440
      7  C          7.8590    1.4590   -0.5410 C.2     1  UNL1        0.0080
      8  C          6.3750   -0.0830   -1.6020 C.2     1  UNL1        0.0540
      9  C          8.9220    0.7620   -1.0870 C.2     1  UNL1        0.0510
     10  C          7.4530   -0.7850   -2.1500 C.2     1  UNL1        0.1660
     11  C          8.7370   -0.3590   -1.8910 C.2     1  UNL1        0.1650
     12  O          7.5350   -1.8980   -2.9590 O.2     1  UNL1       -0.4540
     13  O          9.5890   -1.2290   -2.5520 O.2     1  UNL1       -0.4540
     14  C          8.8730   -2.2730   -3.1670 C.3     1  UNL1        0.4680
@<TRIPOS>BOND
     1    14    12    1
     2    14    13    1
     3    12    10    1
     4    13    11    1
     5    10    11    2
     6    10     8    1
     7    11     9    1
     8     8     6    2
     9     9     7    2
    10     6     7    1
    11     6     5    1
    12     5     1    1
    13     1     2    1
    14     2     3    1
    15     2     4    2
