@<TRIPOS>MOLECULE
/home/cewinharhar/GITHUB/reincatalyze/data/processed/docking_pred/2023-May-22-1902_sub9_nm5_bs15_s42_ex16_mel10_mts1000_k50_ec02_g099_lra9e-4_lrc1e-3/7d60c2a66717a3f4b6d307e9593656cfb0aaeeb8_ligand_9.pdbqt
 14 15 0 0 0
SMALL
GASTEIGER

@<TRIPOS>ATOM
      1  C          5.7430    1.3200   -0.3040 C.3     1  UNL1        0.0800
      2  C          5.1660    1.2830    1.0690 C.2     1  UNL1        0.1300
      3  C          5.3270    0.0960    1.9520 C.3     1  UNL1        0.0870
      4  O          4.5390    2.2320    1.5120 O.2     1  UNL1       -0.3000
      5  C          7.2430    1.1030   -0.2760 C.3     1  UNL1        0.0430
      6  C          7.6190   -0.1890   -0.8760 C.2     1  UNL1       -0.0440
      7  C          7.7060   -0.3560   -2.2630 C.2     1  UNL1        0.0080
      8  C          7.8950   -1.2640   -0.0630 C.2     1  UNL1        0.0540
      9  C          8.0650   -1.5920   -2.7690 C.2     1  UNL1        0.0510
     10  C          8.2580   -2.5120   -0.5790 C.2     1  UNL1        0.1660
     11  C          8.3430   -2.6770   -1.9440 C.2     1  UNL1        0.1650
     12  O          8.5760   -3.7170    0.0110 O.2     1  UNL1       -0.4540
     13  O          8.7170   -3.9930   -2.1660 O.2     1  UNL1       -0.4540
     14  C          8.9630   -4.6630   -0.9520 C.3     1  UNL1        0.4680
@<TRIPOS>BOND
     1     9     7    1
     2     9    11    2
     3     7     6    2
     4    13    11    1
     5    13    14    1
     6    11    10    1
     7    14    12    1
     8     6     5    1
     9     6     8    1
    10    10     8    2
    11    10    12    1
    12     1     5    1
    13     1     2    1
    14     2     4    2
    15     2     3    1
