@<TRIPOS>MOLECULE
/home/cewinharhar/GITHUB/reincatalyze/data/processed/docking_pred/2023-May-22-1902_sub9_nm5_bs15_s42_ex16_mel10_mts1000_k50_ec02_g099_lra9e-4_lrc1e-3/7d60c2a66717a3f4b6d307e9593656cfb0aaeeb8_ligand_9.pdbqt
 14 15 0 0 0
SMALL
GASTEIGER

@<TRIPOS>ATOM
      1  C          6.1020    0.7320    1.0570 C.3     1  UNL1        0.0800
      2  C          4.9950    1.7220    0.9420 C.2     1  UNL1        0.1300
      3  C          4.8960    2.6500   -0.2170 C.3     1  UNL1        0.0870
      4  O          4.1330    1.8020    1.8010 O.2     1  UNL1       -0.3000
      5  C          7.1580    0.9600   -0.0060 C.3     1  UNL1        0.0430
      6  C          7.5250   -0.2930   -0.6890 C.2     1  UNL1       -0.0440
      7  C          7.5180   -0.3960   -2.0850 C.2     1  UNL1        0.0080
      8  C          7.8870   -1.3940    0.0530 C.2     1  UNL1        0.0540
      9  C          7.8730   -1.5980   -2.6710 C.2     1  UNL1        0.0510
     10  C          8.2460   -2.6070   -0.5440 C.2     1  UNL1        0.1660
     11  C          8.2380   -2.7090   -1.9170 C.2     1  UNL1        0.1650
     12  O          8.6370   -3.8260   -0.0330 O.2     1  UNL1       -0.4540
     13  O          8.6300   -4.0030   -2.2250 O.2     1  UNL1       -0.4540
     14  C          8.9800   -4.7170   -1.0630 C.3     1  UNL1        0.4680
@<TRIPOS>BOND
     1     9     7    1
     2     9    11    2
     3    13    11    1
     4    13    14    1
     5     7     6    2
     6    11    10    1
     7    14    12    1
     8     6     5    1
     9     6     8    1
    10    10    12    1
    11    10     8    2
    12     3     2    1
    13     5     1    1
    14     2     1    1
    15     2     4    2
