@<TRIPOS>MOLECULE
/home/cewinharhar/GITHUB/reincatalyze/data/processed/docking_pred/2023-May-22-1902_sub9_nm5_bs15_s42_ex16_mel10_mts1000_k50_ec02_g099_lra9e-4_lrc1e-3/7d60c2a66717a3f4b6d307e9593656cfb0aaeeb8_ligand_9.pdbqt
 14 15 0 0 0
SMALL
GASTEIGER

@<TRIPOS>ATOM
      1  C          5.4270    2.9720    0.1570 C.3     1  UNL1        0.0800
      2  C          6.3150    3.8380    0.9810 C.2     1  UNL1        0.1300
      3  C          7.2890    4.7740    0.3590 C.3     1  UNL1        0.0870
      4  O          6.2690    3.8030    2.2000 O.2     1  UNL1       -0.3000
      5  C          5.1680    1.6430    0.8380 C.3     1  UNL1        0.0430
      6  C          5.9980    0.5660    0.2680 C.2     1  UNL1       -0.0440
      7  C          6.3710    0.5640   -1.0810 C.2     1  UNL1        0.0080
      8  C          6.4240   -0.4650    1.0730 C.2     1  UNL1        0.0540
      9  C          7.1510   -0.4730   -1.5600 C.2     1  UNL1        0.0510
     10  C          7.2140   -1.5110    0.5850 C.2     1  UNL1        0.1660
     11  C          7.5800   -1.5140   -0.7430 C.2     1  UNL1        0.1650
     12  O          7.7560   -2.6330    1.1730 O.2     1  UNL1       -0.4540
     13  O          8.3480   -2.6500   -0.9440 O.2     1  UNL1       -0.4540
     14  C          8.5600   -3.3410    0.2650 C.3     1  UNL1        0.4680
@<TRIPOS>BOND
     1     9     7    1
     2     9    11    2
     3     7     6    2
     4    13    11    1
     5    13    14    1
     6    11    10    1
     7     1     5    1
     8     1     2    1
     9    14    12    1
    10     6     5    1
    11     6     8    1
    12     3     2    1
    13    10     8    2
    14    10    12    1
    15     2     4    2
