@<TRIPOS>MOLECULE
/home/cewinharhar/GITHUB/reincatalyze/data/processed/docking_pred/2023-May-22-1902_sub9_nm5_bs15_s42_ex16_mel10_mts1000_k50_ec02_g099_lra9e-4_lrc1e-3/7d60c2a66717a3f4b6d307e9593656cfb0aaeeb8_ligand_9.pdbqt
 14 15 0 0 0
SMALL
GASTEIGER

@<TRIPOS>ATOM
      1  C          5.5340    2.8280    0.2670 C.3     1  UNL1        0.0800
      2  C          6.3310    3.7910    1.0780 C.2     1  UNL1        0.1300
      3  C          7.2490    4.7740    0.4430 C.3     1  UNL1        0.0870
      4  O          6.2530    3.8000    2.2950 O.2     1  UNL1       -0.3000
      5  C          5.3320    1.5210    1.0070 C.3     1  UNL1        0.0430
      6  C          6.1400    0.4330    0.4260 C.2     1  UNL1       -0.0440
      7  C          6.5510   -0.6640    1.1910 C.2     1  UNL1        0.0080
      8  C          6.5020    0.4870   -0.9010 C.2     1  UNL1        0.0540
      9  C          7.3070   -1.6550    0.5920 C.2     1  UNL1        0.0510
     10  C          7.2660   -0.5180   -1.5030 C.2     1  UNL1        0.1660
     11  C          7.6720   -1.5970   -0.7500 C.2     1  UNL1        0.1650
     12  O          7.7480   -0.6920   -2.7820 O.2     1  UNL1       -0.4540
     13  O          8.4020   -2.4210   -1.5920 O.2     1  UNL1       -0.4540
     14  C          8.3990   -1.9310   -2.9120 C.3     1  UNL1        0.4680
@<TRIPOS>BOND
     1    14    12    1
     2    14    13    1
     3    12    10    1
     4    13    11    1
     5    10     8    1
     6    10    11    2
     7     8     6    2
     8    11     9    1
     9     1     5    1
    10     1     2    1
    11     6     5    1
    12     6     7    1
    13     3     2    1
    14     9     7    2
    15     2     4    2
