@<TRIPOS>MOLECULE
/home/cewinharhar/GITHUB/reincatalyze/data/processed/docking_pred/2023-May-22-1902_sub9_nm5_bs15_s42_ex16_mel10_mts1000_k50_ec02_g099_lra9e-4_lrc1e-3/80b3dd8cd2b2e3944ffcf13b099740dfc166ef97_ligand_9.pdbqt
 14 15 0 0 0
SMALL
GASTEIGER

@<TRIPOS>ATOM
      1  C          5.4430    2.8090   -0.0010 C.3     1  UNL1        0.0800
      2  C          6.3040    3.5470    0.9650 C.2     1  UNL1        0.1300
      3  C          7.0460    4.7740    0.5700 C.3     1  UNL1        0.0870
      4  O          6.4260    3.1620    2.1160 O.2     1  UNL1       -0.3000
      5  C          5.5130    1.3130    0.2310 C.3     1  UNL1        0.0430
      6  C          6.6370    0.6990   -0.4990 C.2     1  UNL1       -0.0440
      7  C          7.8950    1.3090   -0.5560 C.2     1  UNL1        0.0080
      8  C          6.4560   -0.5050   -1.1420 C.2     1  UNL1        0.0540
      9  C          8.9120    0.6860   -1.2550 C.2     1  UNL1        0.0510
     10  C          7.4880   -1.1320   -1.8470 C.2     1  UNL1        0.1660
     11  C          8.7260   -0.5310   -1.9040 C.2     1  UNL1        0.1650
     12  O          7.5590   -2.3100   -2.5590 O.2     1  UNL1       -0.4540
     13  O          9.5400   -1.3630   -2.6570 O.2     1  UNL1       -0.4540
     14  C          8.8660   -2.5450   -3.0150 C.3     1  UNL1        0.4680
@<TRIPOS>BOND
     1    14    13    1
     2    14    12    1
     3    13    11    1
     4    12    10    1
     5    11    10    2
     6    11     9    1
     7    10     8    1
     8     9     7    2
     9     8     6    2
    10     7     6    1
    11     6     5    1
    12     1     5    1
    13     1     2    1
    14     3     2    1
    15     2     4    2
