@<TRIPOS>MOLECULE
/home/cewinharhar/GITHUB/reincatalyze/data/processed/docking_pred/2023-May-22-1902_sub9_nm5_bs15_s42_ex16_mel10_mts1000_k50_ec02_g099_lra9e-4_lrc1e-3/80b3dd8cd2b2e3944ffcf13b099740dfc166ef97_ligand_9.pdbqt
 14 15 0 0 0
SMALL
GASTEIGER

@<TRIPOS>ATOM
      1  C          5.7200    1.2910   -0.3490 C.3     1  UNL1        0.0800
      2  C          5.1750    1.3150    1.0370 C.2     1  UNL1        0.1300
      3  C          5.3300    0.1560    1.9570 C.3     1  UNL1        0.0870
      4  O          4.5810    2.2930    1.4610 O.2     1  UNL1       -0.3000
      5  C          7.2240    1.0960   -0.3460 C.3     1  UNL1        0.0430
      6  C          7.6070   -0.2030   -0.9260 C.2     1  UNL1       -0.0440
      7  C          7.7030   -0.3890   -2.3100 C.2     1  UNL1        0.0080
      8  C          7.8820   -1.2660   -0.0960 C.2     1  UNL1        0.0540
      9  C          8.0690   -1.6310   -2.7960 C.2     1  UNL1        0.0510
     10  C          8.2520   -2.5190   -0.5930 C.2     1  UNL1        0.1660
     11  C          8.3450   -2.7030   -1.9540 C.2     1  UNL1        0.1650
     12  O          8.5700   -3.7150    0.0160 O.2     1  UNL1       -0.4540
     13  O          8.7240   -4.0210   -2.1560 O.2     1  UNL1       -0.4540
     14  C          8.9660   -4.6730   -0.9320 C.3     1  UNL1        0.4680
@<TRIPOS>BOND
     1     9     7    1
     2     9    11    2
     3     7     6    2
     4    13    11    1
     5    13    14    1
     6    11    10    1
     7    14    12    1
     8     6     5    1
     9     6     8    1
    10    10     8    2
    11    10    12    1
    12     1     5    1
    13     1     2    1
    14     2     4    2
    15     2     3    1
