@<TRIPOS>MOLECULE
/home/cewinharhar/GITHUB/reincatalyze/data/processed/docking_pred/2023-May-22-1902_sub9_nm5_bs15_s42_ex16_mel10_mts1000_k50_ec02_g099_lra9e-4_lrc1e-3/80b3dd8cd2b2e3944ffcf13b099740dfc166ef97_ligand_9.pdbqt
 14 15 0 0 0
SMALL
GASTEIGER

@<TRIPOS>ATOM
      1  C          5.4410    2.9510    0.0920 C.3     1  UNL1        0.0800
      2  C          6.3170    3.8000    0.9480 C.2     1  UNL1        0.1300
      3  C          7.2760    4.7730    0.3620 C.3     1  UNL1        0.0870
      4  O          6.2710    3.7190    2.1650 O.2     1  UNL1       -0.3000
      5  C          5.1070    1.6400    0.7760 C.3     1  UNL1        0.0430
      6  C          5.9400    0.5340    0.2720 C.2     1  UNL1       -0.0440
      7  C          6.2610   -0.5670    1.0750 C.2     1  UNL1        0.0080
      8  C          6.4180    0.5720   -1.0180 C.2     1  UNL1        0.0540
      9  C          7.0460   -1.5760    0.5480 C.2     1  UNL1        0.0510
     10  C          7.2100   -0.4510   -1.5470 C.2     1  UNL1        0.1660
     11  C          7.5270   -1.5340   -0.7570 C.2     1  UNL1        0.1650
     12  O          7.7990   -0.6430   -2.7790 O.2     1  UNL1       -0.4540
     13  O          8.3110   -2.3780   -1.5280 O.2     1  UNL1       -0.4540
     14  C          8.4320   -1.8950   -2.8450 C.3     1  UNL1        0.4680
@<TRIPOS>BOND
     1    14    12    1
     2    14    13    1
     3    12    10    1
     4    10     8    1
     5    10    11    2
     6    13    11    1
     7     8     6    2
     8    11     9    1
     9     1     5    1
    10     1     2    1
    11     6     5    1
    12     6     7    1
    13     3     2    1
    14     9     7    2
    15     2     4    2
