MODEL 1
REMARK VINA RESULT:      -7.9      0.000      0.000
REMARK SMILES CC(=O)CCc1ccc2c(c1)OCO2
REMARK SMILES IDX 4 1 2 2 1 3 3 4 5 5 6 6 7 7 11 8 8 9 10 10 9 11 12 12 14 13
REMARK SMILES IDX 13 14
REMARK H PARENT
REMARK Flexibility Score: inf
ROOT
ATOM      1  C   UNL     1       5.441   2.951   0.092  1.00  0.00     0.080 C 
ENDROOT
BRANCH   1   2
ATOM      2  C   UNL     1       6.317   3.800   0.948  1.00  0.00     0.130 C 
ATOM      3  C   UNL     1       7.276   4.773   0.362  1.00  0.00     0.087 C 
ATOM      4  O   UNL     1       6.271   3.719   2.165  1.00  0.00    -0.300 OA
ENDBRANCH   1   2
BRANCH   1   5
ATOM      5  C   UNL     1       5.107   1.640   0.776  1.00  0.00     0.043 C 
BRANCH   5   6
ATOM      6  C   UNL     1       5.940   0.534   0.272  1.00  0.00    -0.044 A 
ATOM      7  C   UNL     1       6.261  -0.567   1.075  1.00  0.00     0.008 A 
ATOM      8  C   UNL     1       6.418   0.572  -1.018  1.00  0.00     0.054 A 
ATOM      9  C   UNL     1       7.046  -1.576   0.548  1.00  0.00     0.051 A 
ATOM     10  C   UNL     1       7.210  -0.451  -1.547  1.00  0.00     0.166 A 
ATOM     11  C   UNL     1       7.527  -1.534  -0.757  1.00  0.00     0.165 A 
ATOM     12  O   UNL     1       7.799  -0.643  -2.779  1.00  0.00    -0.454 OA
ATOM     13  O   UNL     1       8.311  -2.378  -1.528  1.00  0.00    -0.454 OA
ATOM     14  C   UNL     1       8.432  -1.895  -2.845  1.00  0.00     0.468 C 
ENDBRANCH   5   6
ENDBRANCH   1   5
TORSDOF 3
ENDMDL
MODEL 2
REMARK VINA RESULT:      -7.7      0.979      1.959
REMARK SMILES CC(=O)CCc1ccc2c(c1)OCO2
REMARK SMILES IDX 4 1 2 2 1 3 3 4 5 5 6 6 7 7 11 8 8 9 10 10 9 11 12 12 14 13
REMARK SMILES IDX 13 14
REMARK H PARENT
REMARK Flexibility Score: inf
ROOT
ATOM      1  C   UNL     1       5.447   2.912   0.267  1.00  0.00     0.080 C 
ENDROOT
BRANCH   1   2
ATOM      2  C   UNL     1       6.284   3.884   1.025  1.00  0.00     0.130 C 
ATOM      3  C   UNL     1       7.259   4.775   0.341  1.00  0.00     0.087 C 
ATOM      4  O   UNL     1       6.192   3.977   2.238  1.00  0.00    -0.300 OA
ENDBRANCH   1   2
BRANCH   1   5
ATOM      5  C   UNL     1       5.315   1.600   1.013  1.00  0.00     0.043 C 
BRANCH   5   6
ATOM      6  C   UNL     1       6.091   0.525   0.370  1.00  0.00    -0.044 A 
ATOM      7  C   UNL     1       6.374   0.544  -1.001  1.00  0.00     0.008 A 
ATOM      8  C   UNL     1       6.555  -0.528   1.126  1.00  0.00     0.054 A 
ATOM      9  C   UNL     1       7.107  -0.492  -1.549  1.00  0.00     0.051 A 
ATOM     10  C   UNL     1       7.297  -1.573   0.567  1.00  0.00     0.166 A 
ATOM     11  C   UNL     1       7.575  -1.555  -0.782  1.00  0.00     0.165 A 
ATOM     12  O   UNL     1       7.861  -2.713   1.097  1.00  0.00    -0.454 OA
ATOM     13  O   UNL     1       8.313  -2.696  -1.054  1.00  0.00    -0.454 OA
ATOM     14  C   UNL     1       8.595  -3.412   0.124  1.00  0.00     0.468 C 
ENDBRANCH   5   6
ENDBRANCH   1   5
TORSDOF 3
ENDMDL
MODEL 3
REMARK VINA RESULT:      -7.6      1.881      2.633
REMARK SMILES CC(=O)CCc1ccc2c(c1)OCO2
REMARK SMILES IDX 4 1 2 2 1 3 3 4 5 5 6 6 7 7 11 8 8 9 10 10 9 11 12 12 14 13
REMARK SMILES IDX 13 14
REMARK H PARENT
REMARK Flexibility Score: inf
ROOT
ATOM      1  C   UNL     1       5.539   1.926   1.262  1.00  0.00     0.080 C 
ENDROOT
BRANCH   1   2
ATOM      2  C   UNL     1       5.113   0.712   2.012  1.00  0.00     0.130 C 
ATOM      3  C   UNL     1       6.021  -0.452   2.194  1.00  0.00     0.087 C 
ATOM      4  O   UNL     1       3.998   0.637   2.502  1.00  0.00    -0.300 OA
ENDBRANCH   1   2
BRANCH   1   5
ATOM      5  C   UNL     1       5.407   1.724  -0.235  1.00  0.00     0.043 C 
BRANCH   5   6
ATOM      6  C   UNL     1       6.575   1.022  -0.797  1.00  0.00    -0.044 A 
ATOM      7  C   UNL     1       7.882   1.452  -0.538  1.00  0.00     0.008 A 
ATOM      8  C   UNL     1       6.388  -0.084  -1.594  1.00  0.00     0.054 A 
ATOM      9  C   UNL     1       8.939   0.754  -1.092  1.00  0.00     0.051 A 
ATOM     10  C   UNL     1       7.461  -0.786  -2.151  1.00  0.00     0.166 A 
ATOM     11  C   UNL     1       8.747  -0.364  -1.898  1.00  0.00     0.165 A 
ATOM     12  O   UNL     1       7.535  -1.897  -2.964  1.00  0.00    -0.454 OA
ATOM     13  O   UNL     1       9.593  -1.234  -2.568  1.00  0.00    -0.454 OA
ATOM     14  C   UNL     1       8.871  -2.274  -3.182  1.00  0.00     0.468 C 
ENDBRANCH   5   6
ENDBRANCH   1   5
TORSDOF 3
ENDMDL
MODEL 4
REMARK VINA RESULT:      -7.5      1.143      1.599
REMARK SMILES CC(=O)CCc1ccc2c(c1)OCO2
REMARK SMILES IDX 4 1 2 2 1 3 3 4 5 5 6 6 7 7 11 8 8 9 10 10 9 11 12 12 14 13
REMARK SMILES IDX 13 14
REMARK H PARENT
REMARK Flexibility Score: inf
ROOT
ATOM      1  C   UNL     1       5.443   2.809  -0.001  1.00  0.00     0.080 C 
ENDROOT
BRANCH   1   2
ATOM      2  C   UNL     1       6.304   3.547   0.965  1.00  0.00     0.130 C 
ATOM      3  C   UNL     1       7.046   4.774   0.570  1.00  0.00     0.087 C 
ATOM      4  O   UNL     1       6.426   3.162   2.116  1.00  0.00    -0.300 OA
ENDBRANCH   1   2
BRANCH   1   5
ATOM      5  C   UNL     1       5.513   1.313   0.231  1.00  0.00     0.043 C 
BRANCH   5   6
ATOM      6  C   UNL     1       6.637   0.699  -0.499  1.00  0.00    -0.044 A 
ATOM      7  C   UNL     1       7.895   1.309  -0.556  1.00  0.00     0.008 A 
ATOM      8  C   UNL     1       6.456  -0.505  -1.142  1.00  0.00     0.054 A 
ATOM      9  C   UNL     1       8.912   0.686  -1.255  1.00  0.00     0.051 A 
ATOM     10  C   UNL     1       7.488  -1.132  -1.847  1.00  0.00     0.166 A 
ATOM     11  C   UNL     1       8.726  -0.531  -1.904  1.00  0.00     0.165 A 
ATOM     12  O   UNL     1       7.559  -2.310  -2.559  1.00  0.00    -0.454 OA
ATOM     13  O   UNL     1       9.540  -1.363  -2.657  1.00  0.00    -0.454 OA
ATOM     14  C   UNL     1       8.866  -2.545  -3.015  1.00  0.00     0.468 C 
ENDBRANCH   5   6
ENDBRANCH   1   5
TORSDOF 3
ENDMDL
MODEL 5
REMARK VINA RESULT:      -7.5      1.950      3.036
REMARK SMILES CC(=O)CCc1ccc2c(c1)OCO2
REMARK SMILES IDX 4 1 2 2 1 3 3 4 5 5 6 6 7 7 11 8 8 9 10 10 9 11 12 12 14 13
REMARK SMILES IDX 13 14
REMARK H PARENT
REMARK Flexibility Score: inf
ROOT
ATOM      1  C   UNL     1       5.720   1.291  -0.349  1.00  0.00     0.080 C 
ENDROOT
BRANCH   1   2
ATOM      2  C   UNL     1       5.175   1.315   1.037  1.00  0.00     0.130 C 
ATOM      3  C   UNL     1       5.330   0.156   1.957  1.00  0.00     0.087 C 
ATOM      4  O   UNL     1       4.581   2.293   1.461  1.00  0.00    -0.300 OA
ENDBRANCH   1   2
BRANCH   1   5
ATOM      5  C   UNL     1       7.224   1.096  -0.346  1.00  0.00     0.043 C 
BRANCH   5   6
ATOM      6  C   UNL     1       7.607  -0.203  -0.926  1.00  0.00    -0.044 A 
ATOM      7  C   UNL     1       7.703  -0.389  -2.310  1.00  0.00     0.008 A 
ATOM      8  C   UNL     1       7.882  -1.266  -0.096  1.00  0.00     0.054 A 
ATOM      9  C   UNL     1       8.069  -1.631  -2.796  1.00  0.00     0.051 A 
ATOM     10  C   UNL     1       8.252  -2.519  -0.593  1.00  0.00     0.166 A 
ATOM     11  C   UNL     1       8.345  -2.703  -1.954  1.00  0.00     0.165 A 
ATOM     12  O   UNL     1       8.570  -3.715   0.016  1.00  0.00    -0.454 OA
ATOM     13  O   UNL     1       8.724  -4.021  -2.156  1.00  0.00    -0.454 OA
ATOM     14  C   UNL     1       8.966  -4.673  -0.932  1.00  0.00     0.468 C 
ENDBRANCH   5   6
ENDBRANCH   1   5
TORSDOF 3
ENDMDL
