MODEL 1
REMARK VINA RESULT:      -7.9      0.000      0.000
REMARK SMILES CC(=O)CCc1ccc2c(c1)OCO2
REMARK SMILES IDX 4 1 2 2 1 3 3 4 5 5 6 6 7 7 11 8 8 9 10 10 9 11 12 12 14 13
REMARK SMILES IDX 13 14
REMARK H PARENT
REMARK Flexibility Score: inf
ROOT
ATOM      1  C   UNL     1       5.437   2.909   0.111  1.00  0.00     0.080 C 
ENDROOT
BRANCH   1   2
ATOM      2  C   UNL     1       6.275   3.819   0.941  1.00  0.00     0.130 C 
ATOM      3  C   UNL     1       7.234   4.775   0.325  1.00  0.00     0.087 C 
ATOM      4  O   UNL     1       6.199   3.804   2.158  1.00  0.00    -0.300 OA
ENDBRANCH   1   2
BRANCH   1   5
ATOM      5  C   UNL     1       5.165   1.602   0.830  1.00  0.00     0.043 C 
BRANCH   5   6
ATOM      6  C   UNL     1       5.992   0.504   0.299  1.00  0.00    -0.044 A 
ATOM      7  C   UNL     1       6.310  -0.616   1.075  1.00  0.00     0.008 A 
ATOM      8  C   UNL     1       6.466   0.570  -0.992  1.00  0.00     0.054 A 
ATOM      9  C   UNL     1       7.089  -1.616   0.523  1.00  0.00     0.051 A 
ATOM     10  C   UNL     1       7.253  -0.445  -1.546  1.00  0.00     0.166 A 
ATOM     11  C   UNL     1       7.567  -1.546  -0.782  1.00  0.00     0.165 A 
ATOM     12  O   UNL     1       7.837  -0.611  -2.783  1.00  0.00    -0.454 OA
ATOM     13  O   UNL     1       8.345  -2.375  -1.575  1.00  0.00    -0.454 OA
ATOM     14  C   UNL     1       8.465  -1.863  -2.881  1.00  0.00     0.468 C 
ENDBRANCH   5   6
ENDBRANCH   1   5
TORSDOF 3
ENDMDL
MODEL 2
REMARK VINA RESULT:      -7.8      1.001      1.990
REMARK SMILES CC(=O)CCc1ccc2c(c1)OCO2
REMARK SMILES IDX 4 1 2 2 1 3 3 4 5 5 6 6 7 7 11 8 8 9 10 10 9 11 12 12 14 13
REMARK SMILES IDX 13 14
REMARK H PARENT
REMARK Flexibility Score: inf
ROOT
ATOM      1  C   UNL     1       5.387   2.985   0.136  1.00  0.00     0.080 C 
ENDROOT
BRANCH   1   2
ATOM      2  C   UNL     1       6.314   3.795   0.975  1.00  0.00     0.130 C 
ATOM      3  C   UNL     1       7.267   4.765   0.371  1.00  0.00     0.087 C 
ATOM      4  O   UNL     1       6.318   3.685   2.190  1.00  0.00    -0.300 OA
ENDBRANCH   1   2
BRANCH   1   5
ATOM      5  C   UNL     1       5.089   1.646   0.781  1.00  0.00     0.043 C 
BRANCH   5   6
ATOM      6  C   UNL     1       5.945   0.576   0.238  1.00  0.00    -0.044 A 
ATOM      7  C   UNL     1       6.329   0.556  -1.107  1.00  0.00     0.008 A 
ATOM      8  C   UNL     1       6.384  -0.432   1.066  1.00  0.00     0.054 A 
ATOM      9  C   UNL     1       7.133  -0.473  -1.561  1.00  0.00     0.051 A 
ATOM     10  C   UNL     1       7.198  -1.471   0.603  1.00  0.00     0.166 A 
ATOM     11  C   UNL     1       7.575  -1.491  -0.721  1.00  0.00     0.165 A 
ATOM     12  O   UNL     1       7.757  -2.572   1.216  1.00  0.00    -0.454 OA
ATOM     13  O   UNL     1       8.367  -2.616  -0.895  1.00  0.00    -0.454 OA
ATOM     14  C   UNL     1       8.582  -3.279   0.328  1.00  0.00     0.468 C 
ENDBRANCH   5   6
ENDBRANCH   1   5
TORSDOF 3
ENDMDL
MODEL 3
REMARK VINA RESULT:      -7.6      1.884      2.644
REMARK SMILES CC(=O)CCc1ccc2c(c1)OCO2
REMARK SMILES IDX 4 1 2 2 1 3 3 4 5 5 6 6 7 7 11 8 8 9 10 10 9 11 12 12 14 13
REMARK SMILES IDX 13 14
REMARK H PARENT
REMARK Flexibility Score: inf
ROOT
ATOM      1  C   UNL     1       5.500   1.924   1.278  1.00  0.00     0.080 C 
ENDROOT
BRANCH   1   2
ATOM      2  C   UNL     1       5.039   0.706   2.002  1.00  0.00     0.130 C 
ATOM      3  C   UNL     1       5.900  -0.501   2.126  1.00  0.00     0.087 C 
ATOM      4  O   UNL     1       3.934   0.663   2.516  1.00  0.00    -0.300 OA
ENDBRANCH   1   2
BRANCH   1   5
ATOM      5  C   UNL     1       5.383   1.750  -0.223  1.00  0.00     0.043 C 
BRANCH   5   6
ATOM      6  C   UNL     1       6.552   1.049  -0.785  1.00  0.00    -0.044 A 
ATOM      7  C   UNL     1       7.858   1.483  -0.530  1.00  0.00     0.008 A 
ATOM      8  C   UNL     1       6.367  -0.060  -1.577  1.00  0.00     0.054 A 
ATOM      9  C   UNL     1       8.917   0.786  -1.084  1.00  0.00     0.051 A 
ATOM     10  C   UNL     1       7.440  -0.762  -2.134  1.00  0.00     0.166 A 
ATOM     11  C   UNL     1       8.725  -0.335  -1.885  1.00  0.00     0.165 A 
ATOM     12  O   UNL     1       7.516  -1.876  -2.943  1.00  0.00    -0.454 OA
ATOM     13  O   UNL     1       9.573  -1.206  -2.553  1.00  0.00    -0.454 OA
ATOM     14  C   UNL     1       8.852  -2.250  -3.162  1.00  0.00     0.468 C 
ENDBRANCH   5   6
ENDBRANCH   1   5
TORSDOF 3
ENDMDL
MODEL 4
REMARK VINA RESULT:      -7.5      1.120      1.551
REMARK SMILES CC(=O)CCc1ccc2c(c1)OCO2
REMARK SMILES IDX 4 1 2 2 1 3 3 4 5 5 6 6 7 7 11 8 8 9 10 10 9 11 12 12 14 13
REMARK SMILES IDX 13 14
REMARK H PARENT
REMARK Flexibility Score: inf
ROOT
ATOM      1  C   UNL     1       5.441   2.910   0.195  1.00  0.00     0.080 C 
ENDROOT
BRANCH   1   2
ATOM      2  C   UNL     1       6.247   3.879   0.989  1.00  0.00     0.130 C 
ATOM      3  C   UNL     1       7.247   4.773   0.347  1.00  0.00     0.087 C 
ATOM      4  O   UNL     1       6.107   3.968   2.198  1.00  0.00    -0.300 OA
ENDBRANCH   1   2
BRANCH   1   5
ATOM      5  C   UNL     1       5.715   1.483   0.627  1.00  0.00     0.043 C 
BRANCH   5   6
ATOM      6  C   UNL     1       6.758   0.852  -0.201  1.00  0.00    -0.044 A 
ATOM      7  C   UNL     1       8.030   1.421  -0.337  1.00  0.00     0.008 A 
ATOM      8  C   UNL     1       6.487  -0.326  -0.859  1.00  0.00     0.054 A 
ATOM      9  C   UNL     1       8.969   0.783  -1.127  1.00  0.00     0.051 A 
ATOM     10  C   UNL     1       7.441  -0.967  -1.656  1.00  0.00     0.166 A 
ATOM     11  C   UNL     1       8.692  -0.407  -1.791  1.00  0.00     0.165 A 
ATOM     12  O   UNL     1       7.416  -2.126  -2.402  1.00  0.00    -0.454 OA
ATOM     13  O   UNL     1       9.417  -1.244  -2.625  1.00  0.00    -0.454 OA
ATOM     14  C   UNL     1       8.676  -2.393  -2.962  1.00  0.00     0.468 C 
ENDBRANCH   5   6
ENDBRANCH   1   5
TORSDOF 3
ENDMDL
MODEL 5
REMARK VINA RESULT:      -7.4      1.968      3.015
REMARK SMILES CC(=O)CCc1ccc2c(c1)OCO2
REMARK SMILES IDX 4 1 2 2 1 3 3 4 5 5 6 6 7 7 11 8 8 9 10 10 9 11 12 12 14 13
REMARK SMILES IDX 13 14
REMARK H PARENT
REMARK Flexibility Score: inf
ROOT
ATOM      1  C   UNL     1       5.795   1.389  -0.351  1.00  0.00     0.080 C 
ENDROOT
BRANCH   1   2
ATOM      2  C   UNL     1       5.137   1.332   0.984  1.00  0.00     0.130 C 
ATOM      3  C   UNL     1       5.404   0.224   1.940  1.00  0.00     0.087 C 
ATOM      4  O   UNL     1       4.354   2.200   1.334  1.00  0.00    -0.300 OA
ENDBRANCH   1   2
BRANCH   1   5
ATOM      5  C   UNL     1       7.281   1.111  -0.244  1.00  0.00     0.043 C 
BRANCH   5   6
ATOM      6  C   UNL     1       7.639  -0.185  -0.849  1.00  0.00    -0.044 A 
ATOM      7  C   UNL     1       7.700  -0.354  -2.237  1.00  0.00     0.008 A 
ATOM      8  C   UNL     1       7.926  -1.260  -0.038  1.00  0.00     0.054 A 
ATOM      9  C   UNL     1       8.042  -1.593  -2.747  1.00  0.00     0.051 A 
ATOM     10  C   UNL     1       8.272  -2.510  -0.559  1.00  0.00     0.166 A 
ATOM     11  C   UNL     1       8.331  -2.678  -1.925  1.00  0.00     0.165 A 
ATOM     12  O   UNL     1       8.595  -3.716   0.027  1.00  0.00    -0.454 OA
ATOM     13  O   UNL     1       8.693  -3.997  -2.151  1.00  0.00    -0.454 OA
ATOM     14  C   UNL     1       8.959  -4.666  -0.941  1.00  0.00     0.468 C 
ENDBRANCH   5   6
ENDBRANCH   1   5
TORSDOF 3
ENDMDL
