@<TRIPOS>MOLECULE
/home/cewinharhar/GITHUB/reincatalyze/data/processed/docking_pred/2023-May-22-1902_sub9_nm5_bs15_s42_ex16_mel10_mts1000_k50_ec02_g099_lra9e-4_lrc1e-3/80c9945afd0f5f9f0270d56cce32b054e5c09707_ligand_9.pdbqt
 14 15 0 0 0
SMALL
GASTEIGER

@<TRIPOS>ATOM
      1  C          5.3870    2.9850    0.1360 C.3     1  UNL1        0.0800
      2  C          6.3140    3.7950    0.9750 C.2     1  UNL1        0.1300
      3  C          7.2670    4.7650    0.3710 C.3     1  UNL1        0.0870
      4  O          6.3180    3.6850    2.1900 O.2     1  UNL1       -0.3000
      5  C          5.0890    1.6460    0.7810 C.3     1  UNL1        0.0430
      6  C          5.9450    0.5760    0.2380 C.2     1  UNL1       -0.0440
      7  C          6.3290    0.5560   -1.1070 C.2     1  UNL1        0.0080
      8  C          6.3840   -0.4320    1.0660 C.2     1  UNL1        0.0540
      9  C          7.1330   -0.4730   -1.5610 C.2     1  UNL1        0.0510
     10  C          7.1980   -1.4710    0.6030 C.2     1  UNL1        0.1660
     11  C          7.5750   -1.4910   -0.7210 C.2     1  UNL1        0.1650
     12  O          7.7570   -2.5720    1.2160 O.2     1  UNL1       -0.4540
     13  O          8.3670   -2.6160   -0.8950 O.2     1  UNL1       -0.4540
     14  C          8.5820   -3.2790    0.3280 C.3     1  UNL1        0.4680
@<TRIPOS>BOND
     1     9     7    1
     2     9    11    2
     3     7     6    2
     4    13    11    1
     5    13    14    1
     6    11    10    1
     7     1     5    1
     8     1     2    1
     9     6     5    1
    10     6     8    1
    11    14    12    1
    12     3     2    1
    13    10     8    2
    14    10    12    1
    15     2     4    2
