@<TRIPOS>MOLECULE
/home/cewinharhar/GITHUB/reincatalyze/data/processed/docking_pred/2023-May-22-1902_sub9_nm5_bs15_s42_ex16_mel10_mts1000_k50_ec02_g099_lra9e-4_lrc1e-3/80ffcc0cdcaea1df7ad243f542ab1163fa4dc1ce_ligand_9.pdbqt
 14 15 0 0 0
SMALL
GASTEIGER

@<TRIPOS>ATOM
      1  C          5.3450    2.9150    0.1820 C.3     1  UNL1        0.0800
      2  C          6.3230    3.6630    1.0200 C.2     1  UNL1        0.1300
      3  C          7.1400    4.7750    0.4630 C.3     1  UNL1        0.0870
      4  O          6.4840    3.3820    2.1970 O.2     1  UNL1       -0.3000
      5  C          4.9970    1.5770    0.8030 C.3     1  UNL1        0.0430
      6  C          5.8630    0.4980    0.2960 C.2     1  UNL1       -0.0440
      7  C          6.2150   -0.5970    1.0940 C.2     1  UNL1        0.0080
      8  C          6.3410    0.5560   -0.9940 C.2     1  UNL1        0.0540
      9  C          7.0300   -1.5800    0.5640 C.2     1  UNL1        0.0510
     10  C          7.1640   -0.4420   -1.5260 C.2     1  UNL1        0.1660
     11  C          7.5120   -1.5180   -0.7400 C.2     1  UNL1        0.1650
     12  O          7.7590   -0.6110   -2.7580 O.2     1  UNL1       -0.4540
     13  O          8.3200   -2.3350   -1.5150 O.2     1  UNL1       -0.4540
     14  C          8.4290   -1.8430   -2.8290 C.3     1  UNL1        0.4680
@<TRIPOS>BOND
     1    14    12    1
     2    14    13    1
     3    12    10    1
     4    10     8    1
     5    10    11    2
     6    13    11    1
     7     8     6    2
     8    11     9    1
     9     1     5    1
    10     1     2    1
    11     6     5    1
    12     6     7    1
    13     3     2    1
    14     9     7    2
    15     2     4    2
