@<TRIPOS>MOLECULE
/home/cewinharhar/GITHUB/reincatalyze/data/processed/docking_pred/2023-May-22-1902_sub9_nm5_bs15_s42_ex16_mel10_mts1000_k50_ec02_g099_lra9e-4_lrc1e-3/80ffcc0cdcaea1df7ad243f542ab1163fa4dc1ce_ligand_9.pdbqt
 14 15 0 0 0
SMALL
GASTEIGER

@<TRIPOS>ATOM
      1  C          5.3160    2.9210    0.1640 C.3     1  UNL1        0.0800
      2  C          6.2380    3.7760    0.9630 C.2     1  UNL1        0.1300
      3  C          7.1340    4.7730    0.3170 C.3     1  UNL1        0.0870
      4  O          6.2850    3.6820    2.1780 O.2     1  UNL1       -0.3000
      5  C          5.0940    1.5780    0.8310 C.3     1  UNL1        0.0430
      6  C          5.9860    0.5420    0.2810 C.2     1  UNL1       -0.0440
      7  C          6.5220    0.6440   -1.0080 C.2     1  UNL1        0.0080
      8  C          6.3080   -0.5570    1.0450 C.2     1  UNL1        0.0540
      9  C          7.3540   -0.3590   -1.4700 C.2     1  UNL1        0.0510
     10  C          7.1500   -1.5680    0.5740 C.2     1  UNL1        0.1660
     11  C          7.6770   -1.4690   -0.6950 C.2     1  UNL1        0.1650
     12  O          7.6130   -2.7420    1.1300 O.2     1  UNL1       -0.4540
     13  O          8.4620   -2.5940   -0.8920 O.2     1  UNL1       -0.4540
     14  C          8.5220   -3.3820    0.2730 C.3     1  UNL1        0.4680
@<TRIPOS>BOND
     1     9     7    1
     2     9    11    2
     3     7     6    2
     4    13    11    1
     5    13    14    1
     6    11    10    1
     7     1     5    1
     8     1     2    1
     9    14    12    1
    10     6     5    1
    11     6     8    1
    12     3     2    1
    13    10     8    2
    14    10    12    1
    15     2     4    2
