MODEL 1
REMARK VINA RESULT:      -7.9      0.000      0.000
REMARK SMILES CC(=O)CCc1ccc2c(c1)OCO2
REMARK SMILES IDX 4 1 2 2 1 3 3 4 5 5 6 6 7 7 11 8 8 9 10 10 9 11 12 12 14 13
REMARK SMILES IDX 13 14
REMARK H PARENT
REMARK Flexibility Score: inf
ROOT
ATOM      1  C   UNL     1       5.345   2.915   0.182  1.00  0.00     0.080 C 
ENDROOT
BRANCH   1   2
ATOM      2  C   UNL     1       6.323   3.663   1.020  1.00  0.00     0.130 C 
ATOM      3  C   UNL     1       7.140   4.775   0.463  1.00  0.00     0.087 C 
ATOM      4  O   UNL     1       6.484   3.382   2.197  1.00  0.00    -0.300 OA
ENDBRANCH   1   2
BRANCH   1   5
ATOM      5  C   UNL     1       4.997   1.577   0.803  1.00  0.00     0.043 C 
BRANCH   5   6
ATOM      6  C   UNL     1       5.863   0.498   0.296  1.00  0.00    -0.044 A 
ATOM      7  C   UNL     1       6.215  -0.597   1.094  1.00  0.00     0.008 A 
ATOM      8  C   UNL     1       6.341   0.556  -0.994  1.00  0.00     0.054 A 
ATOM      9  C   UNL     1       7.030  -1.580   0.564  1.00  0.00     0.051 A 
ATOM     10  C   UNL     1       7.164  -0.442  -1.526  1.00  0.00     0.166 A 
ATOM     11  C   UNL     1       7.512  -1.518  -0.740  1.00  0.00     0.165 A 
ATOM     12  O   UNL     1       7.759  -0.611  -2.758  1.00  0.00    -0.454 OA
ATOM     13  O   UNL     1       8.320  -2.335  -1.515  1.00  0.00    -0.454 OA
ATOM     14  C   UNL     1       8.429  -1.843  -2.829  1.00  0.00     0.468 C 
ENDBRANCH   5   6
ENDBRANCH   1   5
TORSDOF 3
ENDMDL
MODEL 2
REMARK VINA RESULT:      -7.6      1.854      2.629
REMARK SMILES CC(=O)CCc1ccc2c(c1)OCO2
REMARK SMILES IDX 4 1 2 2 1 3 3 4 5 5 6 6 7 7 11 8 8 9 10 10 9 11 12 12 14 13
REMARK SMILES IDX 13 14
REMARK H PARENT
REMARK Flexibility Score: inf
ROOT
ATOM      1  C   UNL     1       5.525   1.906   1.298  1.00  0.00     0.080 C 
ENDROOT
BRANCH   1   2
ATOM      2  C   UNL     1       5.021   0.693   2.000  1.00  0.00     0.130 C 
ATOM      3  C   UNL     1       5.848  -0.537   2.125  1.00  0.00     0.087 C 
ATOM      4  O   UNL     1       3.906   0.673   2.496  1.00  0.00    -0.300 OA
ENDBRANCH   1   2
BRANCH   1   5
ATOM      5  C   UNL     1       5.408   1.760  -0.206  1.00  0.00     0.043 C 
BRANCH   5   6
ATOM      6  C   UNL     1       6.567   1.051  -0.778  1.00  0.00    -0.044 A 
ATOM      7  C   UNL     1       7.878   1.476  -0.537  1.00  0.00     0.008 A 
ATOM      8  C   UNL     1       6.366  -0.059  -1.567  1.00  0.00     0.054 A 
ATOM      9  C   UNL     1       8.926   0.770  -1.099  1.00  0.00     0.051 A 
ATOM     10  C   UNL     1       7.429  -0.769  -2.132  1.00  0.00     0.166 A 
ATOM     11  C   UNL     1       8.720  -0.351  -1.897  1.00  0.00     0.165 A 
ATOM     12  O   UNL     1       7.490  -1.885  -2.940  1.00  0.00    -0.454 OA
ATOM     13  O   UNL     1       9.555  -1.228  -2.571  1.00  0.00    -0.454 OA
ATOM     14  C   UNL     1       8.821  -2.269  -3.171  1.00  0.00     0.468 C 
ENDBRANCH   5   6
ENDBRANCH   1   5
TORSDOF 3
ENDMDL
MODEL 3
REMARK VINA RESULT:      -7.6      1.000      1.987
REMARK SMILES CC(=O)CCc1ccc2c(c1)OCO2
REMARK SMILES IDX 4 1 2 2 1 3 3 4 5 5 6 6 7 7 11 8 8 9 10 10 9 11 12 12 14 13
REMARK SMILES IDX 13 14
REMARK H PARENT
REMARK Flexibility Score: inf
ROOT
ATOM      1  C   UNL     1       5.316   2.921   0.164  1.00  0.00     0.080 C 
ENDROOT
BRANCH   1   2
ATOM      2  C   UNL     1       6.238   3.776   0.963  1.00  0.00     0.130 C 
ATOM      3  C   UNL     1       7.134   4.773   0.317  1.00  0.00     0.087 C 
ATOM      4  O   UNL     1       6.285   3.682   2.178  1.00  0.00    -0.300 OA
ENDBRANCH   1   2
BRANCH   1   5
ATOM      5  C   UNL     1       5.094   1.578   0.831  1.00  0.00     0.043 C 
BRANCH   5   6
ATOM      6  C   UNL     1       5.986   0.542   0.281  1.00  0.00    -0.044 A 
ATOM      7  C   UNL     1       6.522   0.644  -1.008  1.00  0.00     0.008 A 
ATOM      8  C   UNL     1       6.308  -0.557   1.045  1.00  0.00     0.054 A 
ATOM      9  C   UNL     1       7.354  -0.359  -1.470  1.00  0.00     0.051 A 
ATOM     10  C   UNL     1       7.150  -1.568   0.574  1.00  0.00     0.166 A 
ATOM     11  C   UNL     1       7.677  -1.469  -0.695  1.00  0.00     0.165 A 
ATOM     12  O   UNL     1       7.613  -2.742   1.130  1.00  0.00    -0.454 OA
ATOM     13  O   UNL     1       8.462  -2.594  -0.892  1.00  0.00    -0.454 OA
ATOM     14  C   UNL     1       8.522  -3.382   0.273  1.00  0.00     0.468 C 
ENDBRANCH   5   6
ENDBRANCH   1   5
TORSDOF 3
ENDMDL
MODEL 4
REMARK VINA RESULT:      -7.5      1.978      3.053
REMARK SMILES CC(=O)CCc1ccc2c(c1)OCO2
REMARK SMILES IDX 4 1 2 2 1 3 3 4 5 5 6 6 7 7 11 8 8 9 10 10 9 11 12 12 14 13
REMARK SMILES IDX 13 14
REMARK H PARENT
REMARK Flexibility Score: inf
ROOT
ATOM      1  C   UNL     1       5.725   1.331  -0.332  1.00  0.00     0.080 C 
ENDROOT
BRANCH   1   2
ATOM      2  C   UNL     1       5.061   1.264   1.000  1.00  0.00     0.130 C 
ATOM      3  C   UNL     1       5.263   0.109   1.915  1.00  0.00     0.087 C 
ATOM      4  O   UNL     1       4.327   2.162   1.380  1.00  0.00    -0.300 OA
ENDBRANCH   1   2
BRANCH   1   5
ATOM      5  C   UNL     1       7.215   1.077  -0.218  1.00  0.00     0.043 C 
BRANCH   5   6
ATOM      6  C   UNL     1       7.599  -0.206  -0.833  1.00  0.00    -0.044 A 
ATOM      7  C   UNL     1       7.680  -0.358  -2.222  1.00  0.00     0.008 A 
ATOM      8  C   UNL     1       7.888  -1.288  -0.032  1.00  0.00     0.054 A 
ATOM      9  C   UNL     1       8.047  -1.586  -2.743  1.00  0.00     0.051 A 
ATOM     10  C   UNL     1       8.259  -2.527  -0.564  1.00  0.00     0.166 A 
ATOM     11  C   UNL     1       8.338  -2.677  -1.930  1.00  0.00     0.165 A 
ATOM     12  O   UNL     1       8.590  -3.735   0.012  1.00  0.00    -0.454 OA
ATOM     13  O   UNL     1       8.722  -3.987  -2.168  1.00  0.00    -0.454 OA
ATOM     14  C   UNL     1       8.980  -4.668  -0.963  1.00  0.00     0.468 C 
ENDBRANCH   5   6
ENDBRANCH   1   5
TORSDOF 3
ENDMDL
MODEL 5
REMARK VINA RESULT:      -7.4      1.857      2.827
REMARK SMILES CC(=O)CCc1ccc2c(c1)OCO2
REMARK SMILES IDX 4 1 2 2 1 3 3 4 5 5 6 6 7 7 11 8 8 9 10 10 9 11 12 12 14 13
REMARK SMILES IDX 13 14
REMARK H PARENT
REMARK Flexibility Score: inf
ROOT
ATOM      1  C   UNL     1       6.215   0.887   1.224  1.00  0.00     0.080 C 
ENDROOT
BRANCH   1   2
ATOM      2  C   UNL     1       5.003   1.720   0.986  1.00  0.00     0.130 C 
ATOM      3  C   UNL     1       4.859   2.557  -0.235  1.00  0.00     0.087 C 
ATOM      4  O   UNL     1       4.088   1.740   1.794  1.00  0.00    -0.300 OA
ENDBRANCH   1   2
BRANCH   1   5
ATOM      5  C   UNL     1       7.250   1.098   0.137  1.00  0.00     0.043 C 
BRANCH   5   6
ATOM      6  C   UNL     1       7.591  -0.163  -0.545  1.00  0.00    -0.044 A 
ATOM      7  C   UNL     1       7.568  -0.272  -1.941  1.00  0.00     0.008 A 
ATOM      8  C   UNL     1       7.944  -1.267   0.198  1.00  0.00     0.054 A 
ATOM      9  C   UNL     1       7.899  -1.481  -2.525  1.00  0.00     0.051 A 
ATOM     10  C   UNL     1       8.278  -2.487  -0.398  1.00  0.00     0.166 A 
ATOM     11  C   UNL     1       8.255  -2.594  -1.771  1.00  0.00     0.165 A 
ATOM     12  O   UNL     1       8.656  -3.710   0.113  1.00  0.00    -0.454 OA
ATOM     13  O   UNL     1       8.624  -3.895  -2.077  1.00  0.00    -0.454 OA
ATOM     14  C   UNL     1       8.975  -4.610  -0.917  1.00  0.00     0.468 C 
ENDBRANCH   5   6
ENDBRANCH   1   5
TORSDOF 3
ENDMDL
