@<TRIPOS>MOLECULE
/home/cewinharhar/GITHUB/reincatalyze/data/processed/docking_pred/2023-May-22-1902_sub9_nm5_bs15_s42_ex16_mel10_mts1000_k50_ec02_g099_lra9e-4_lrc1e-3/80ffcc0cdcaea1df7ad243f542ab1163fa4dc1ce_ligand_9.pdbqt
 14 15 0 0 0
SMALL
GASTEIGER

@<TRIPOS>ATOM
      1  C          5.7250    1.3310   -0.3320 C.3     1  UNL1        0.0800
      2  C          5.0610    1.2640    1.0000 C.2     1  UNL1        0.1300
      3  C          5.2630    0.1090    1.9150 C.3     1  UNL1        0.0870
      4  O          4.3270    2.1620    1.3800 O.2     1  UNL1       -0.3000
      5  C          7.2150    1.0770   -0.2180 C.3     1  UNL1        0.0430
      6  C          7.5990   -0.2060   -0.8330 C.2     1  UNL1       -0.0440
      7  C          7.6800   -0.3580   -2.2220 C.2     1  UNL1        0.0080
      8  C          7.8880   -1.2880   -0.0320 C.2     1  UNL1        0.0540
      9  C          8.0470   -1.5860   -2.7430 C.2     1  UNL1        0.0510
     10  C          8.2590   -2.5270   -0.5640 C.2     1  UNL1        0.1660
     11  C          8.3380   -2.6770   -1.9300 C.2     1  UNL1        0.1650
     12  O          8.5900   -3.7350    0.0120 O.2     1  UNL1       -0.4540
     13  O          8.7220   -3.9870   -2.1680 O.2     1  UNL1       -0.4540
     14  C          8.9800   -4.6680   -0.9630 C.3     1  UNL1        0.4680
@<TRIPOS>BOND
     1     9     7    1
     2     9    11    2
     3     7     6    2
     4    13    11    1
     5    13    14    1
     6    11    10    1
     7    14    12    1
     8     6     5    1
     9     6     8    1
    10    10     8    2
    11    10    12    1
    12     1     5    1
    13     1     2    1
    14     2     4    2
    15     2     3    1
