@<TRIPOS>MOLECULE
/home/cewinharhar/GITHUB/reincatalyze/data/processed/docking_pred/2023-May-22-1902_sub9_nm5_bs15_s42_ex16_mel10_mts1000_k50_ec02_g099_lra9e-4_lrc1e-3/80ffcc0cdcaea1df7ad243f542ab1163fa4dc1ce_ligand_9.pdbqt
 14 15 0 0 0
SMALL
GASTEIGER

@<TRIPOS>ATOM
      1  C          5.5250    1.9060    1.2980 C.3     1  UNL1        0.0800
      2  C          5.0210    0.6930    2.0000 C.2     1  UNL1        0.1300
      3  C          5.8480   -0.5370    2.1250 C.3     1  UNL1        0.0870
      4  O          3.9060    0.6730    2.4960 O.2     1  UNL1       -0.3000
      5  C          5.4080    1.7600   -0.2060 C.3     1  UNL1        0.0430
      6  C          6.5670    1.0510   -0.7780 C.2     1  UNL1       -0.0440
      7  C          7.8780    1.4760   -0.5370 C.2     1  UNL1        0.0080
      8  C          6.3660   -0.0590   -1.5670 C.2     1  UNL1        0.0540
      9  C          8.9260    0.7700   -1.0990 C.2     1  UNL1        0.0510
     10  C          7.4290   -0.7690   -2.1320 C.2     1  UNL1        0.1660
     11  C          8.7200   -0.3510   -1.8970 C.2     1  UNL1        0.1650
     12  O          7.4900   -1.8850   -2.9400 O.2     1  UNL1       -0.4540
     13  O          9.5550   -1.2280   -2.5710 O.2     1  UNL1       -0.4540
     14  C          8.8210   -2.2690   -3.1710 C.3     1  UNL1        0.4680
@<TRIPOS>BOND
     1    14    12    1
     2    14    13    1
     3    12    10    1
     4    13    11    1
     5    10    11    2
     6    10     8    1
     7    11     9    1
     8     8     6    2
     9     9     7    2
    10     6     7    1
    11     6     5    1
    12     5     1    1
    13     1     2    1
    14     2     3    1
    15     2     4    2
