@<TRIPOS>MOLECULE
/home/cewinharhar/GITHUB/reincatalyze/data/processed/docking_pred/2023-May-22-1902_sub9_nm5_bs15_s42_ex16_mel10_mts1000_k50_ec02_g099_lra9e-4_lrc1e-3/81487a167534eaf1a49a57d95a0bec7d9495d7bd_ligand_9.pdbqt
 14 15 0 0 0
SMALL
GASTEIGER

@<TRIPOS>ATOM
      1  C          9.3470   -5.9300   12.0120 C.3     1  UNL1        0.0800
      2  C          8.2990   -5.3000   11.1610 C.2     1  UNL1        0.1300
      3  C          7.5170   -4.1240   11.6270 C.3     1  UNL1        0.0870
      4  O          8.0510   -5.7360   10.0480 O.2     1  UNL1       -0.3000
      5  C         10.7210   -5.7910   11.3870 C.3     1  UNL1        0.0430
      6  C         11.2500   -7.0910   10.9380 C.2     1  UNL1       -0.0440
      7  C         10.4710   -8.2520   10.9740 C.2     1  UNL1        0.0080
      8  C         12.5410   -7.1750   10.4660 C.2     1  UNL1        0.0540
      9  C         11.0210   -9.4440   10.5390 C.2     1  UNL1        0.0510
     10  C         13.0920   -8.3820   10.0260 C.2     1  UNL1        0.1660
     11  C         12.3260   -9.5260   10.0630 C.2     1  UNL1        0.1650
     12  O         14.3300   -8.7220    9.5220 O.2     1  UNL1       -0.4540
     13  O         13.1170  -10.5540    9.5750 O.2     1  UNL1       -0.4540
     14  C         14.3640  -10.0710    9.1360 C.3     1  UNL1        0.4680
@<TRIPOS>BOND
     1    14    12    1
     2    14    13    1
     3    12    10    1
     4    13    11    1
     5    10    11    2
     6    10     8    1
     7     4     2    2
     8    11     9    1
     9     8     6    2
    10     9     7    2
    11     6     7    1
    12     6     5    1
    13     2     3    1
    14     2     1    1
    15     5     1    1
