@<TRIPOS>MOLECULE
/home/cewinharhar/GITHUB/reincatalyze/data/processed/docking_pred/2023-May-22-1902_sub9_nm5_bs15_s42_ex16_mel10_mts1000_k50_ec02_g099_lra9e-4_lrc1e-3/81487a167534eaf1a49a57d95a0bec7d9495d7bd_ligand_9.pdbqt
 14 15 0 0 0
SMALL
GASTEIGER

@<TRIPOS>ATOM
      1  C          8.5340   -5.8860   10.6800 C.3     1  UNL1        0.0800
      2  C          7.8730   -4.5980   11.0310 C.2     1  UNL1        0.1300
      3  C          7.6170   -4.2130   12.4450 C.3     1  UNL1        0.0870
      4  O          7.5190   -3.8180   10.1630 O.2     1  UNL1       -0.3000
      5  C          8.5890   -6.8200   11.8720 C.3     1  UNL1        0.0430
      6  C          9.5070   -7.9500   11.6400 C.2     1  UNL1       -0.0440
      7  C          9.2970   -9.1990   12.2340 C.2     1  UNL1        0.0080
      8  C         10.5990   -7.7830   10.8180 C.2     1  UNL1        0.0540
      9  C         10.1910  -10.2230   11.9780 C.2     1  UNL1        0.0510
     10  C         11.5000   -8.8210   10.5620 C.2     1  UNL1        0.1660
     11  C         11.2950  -10.0510   11.1480 C.2     1  UNL1        0.1650
     12  O         12.6430   -8.9060    9.7960 O.2     1  UNL1       -0.4540
     13  O         12.3260  -10.8740   10.7230 O.2     1  UNL1       -0.4540
     14  C         13.1530  -10.2150    9.7940 C.3     1  UNL1        0.4680
@<TRIPOS>BOND
     1    14    12    1
     2    14    13    1
     3    12    10    1
     4     4     2    2
     5    10     8    1
     6    10    11    2
     7     1     2    1
     8     1     5    1
     9    13    11    1
    10     8     6    2
    11     2     3    1
    12    11     9    1
    13     6     5    1
    14     6     7    1
    15     9     7    2
