@<TRIPOS>MOLECULE
/home/cewinharhar/GITHUB/reincatalyze/data/processed/docking_pred/2023-May-22-1902_sub9_nm5_bs15_s42_ex16_mel10_mts1000_k50_ec02_g099_lra9e-4_lrc1e-3/81487a167534eaf1a49a57d95a0bec7d9495d7bd_ligand_9.pdbqt
 14 15 0 0 0
SMALL
GASTEIGER

@<TRIPOS>ATOM
      1  C          8.2390   -6.0350   11.5400 C.3     1  UNL1        0.0800
      2  C          7.7640   -4.6410   11.3150 C.2     1  UNL1        0.1300
      3  C          7.3010   -3.7830   12.4390 C.3     1  UNL1        0.0870
      4  O          7.7400   -4.1600   10.1940 O.2     1  UNL1       -0.3000
      5  C          8.8420   -6.6210   10.2790 C.3     1  UNL1        0.0430
      6  C         10.2070   -7.1250   10.5100 C.2     1  UNL1       -0.0440
      7  C         11.2640   -6.2630   10.8240 C.2     1  UNL1        0.0080
      8  C         10.4600   -8.4750   10.4200 C.2     1  UNL1        0.0540
      9  C         12.5240   -6.7940   11.0310 C.2     1  UNL1        0.0510
     10  C         11.7360   -9.0070   10.6310 C.2     1  UNL1        0.1660
     11  C         12.7770   -8.1590   10.9380 C.2     1  UNL1        0.1650
     12  O         12.2360  -10.2910   10.5980 O.2     1  UNL1       -0.4540
     13  O         13.9050   -8.9490   11.0910 O.2     1  UNL1       -0.4540
     14  C         13.5890  -10.3150   10.9740 C.3     1  UNL1        0.4680
@<TRIPOS>BOND
     1     4     2    2
     2     5     6    1
     3     5     1    1
     4     8     6    2
     5     8    10    1
     6     6     7    1
     7    12    10    1
     8    12    14    1
     9    10    11    2
    10     7     9    2
    11    11     9    1
    12    11    13    1
    13    14    13    1
    14     2     1    1
    15     2     3    1
