@<TRIPOS>MOLECULE
/home/cewinharhar/GITHUB/reincatalyze/data/processed/docking_pred/2023-May-22-1902_sub9_nm5_bs15_s42_ex16_mel10_mts1000_k50_ec02_g099_lra9e-4_lrc1e-3/81487a167534eaf1a49a57d95a0bec7d9495d7bd_ligand_9.pdbqt
 14 15 0 0 0
SMALL
GASTEIGER

@<TRIPOS>ATOM
      1  C          7.9230   -5.9620   11.5440 C.3     1  UNL1        0.0800
      2  C          8.2320   -4.5680   11.9660 C.2     1  UNL1        0.1300
      3  C          7.1850   -3.5120   12.0010 C.3     1  UNL1        0.0870
      4  O          9.3630   -4.2500   12.2960 O.2     1  UNL1       -0.3000
      5  C          8.7110   -6.3520   10.3100 C.3     1  UNL1        0.0430
      6  C          9.8850   -7.1760   10.6490 C.2     1  UNL1       -0.0440
      7  C          9.7550   -8.3900   11.3340 C.2     1  UNL1        0.0080
      8  C         11.1430   -6.7540   10.2850 C.2     1  UNL1        0.0540
      9  C         10.8920   -9.1210   11.6250 C.2     1  UNL1        0.0510
     10  C         12.2900   -7.4980   10.5810 C.2     1  UNL1        0.1660
     11  C         12.1630   -8.6910   11.2560 C.2     1  UNL1        0.1650
     12  O         13.6310   -7.2950   10.3320 O.2     1  UNL1       -0.4540
     13  O         13.4420   -9.2030   11.4090 O.2     1  UNL1       -0.4540
     14  C         14.3940   -8.3950   10.7590 C.3     1  UNL1        0.4680
@<TRIPOS>BOND
     1     8    10    1
     2     8     6    2
     3     5     6    1
     4     5     1    1
     5    12    10    1
     6    12    14    1
     7    10    11    2
     8     6     7    1
     9    14    13    1
    10    11    13    1
    11    11     9    1
    12     7     9    2
    13     1     2    1
    14     2     3    1
    15     2     4    2
