@<TRIPOS>MOLECULE
/home/cewinharhar/GITHUB/reincatalyze/data/processed/docking_pred/2023-May-22-1902_sub9_nm5_bs15_s42_ex16_mel10_mts1000_k50_ec02_g099_lra9e-4_lrc1e-3/81487a167534eaf1a49a57d95a0bec7d9495d7bd_ligand_9.pdbqt
 14 15 0 0 0
SMALL
GASTEIGER

@<TRIPOS>ATOM
      1  C          8.3890   -5.7720   11.6020 C.3     1  UNL1        0.0800
      2  C          7.7550   -4.4580   11.3060 C.2     1  UNL1        0.1300
      3  C          7.2330   -3.5800   12.3880 C.3     1  UNL1        0.0870
      4  O          7.6440   -4.0610   10.1570 O.2     1  UNL1       -0.3000
      5  C          8.8720   -6.4490   10.3350 C.3     1  UNL1        0.0430
      6  C         10.1980   -7.0670   10.5170 C.2     1  UNL1       -0.0440
      7  C         10.3900   -8.4460   10.3750 C.2     1  UNL1        0.0080
      8  C         11.2810   -6.2770   10.8300 C.2     1  UNL1        0.0540
      9  C         11.6570   -8.9690   10.5560 C.2     1  UNL1        0.0510
     10  C         12.5600   -6.8110   11.0120 C.2     1  UNL1        0.1660
     11  C         12.7500   -8.1680   10.8740 C.2     1  UNL1        0.1650
     12  O         13.7790   -6.2460   11.3240 O.2     1  UNL1       -0.4540
     13  O         14.0950   -8.4110   11.1060 O.2     1  UNL1       -0.4540
     14  C         14.8010   -7.2090   11.3050 C.3     1  UNL1        0.4680
@<TRIPOS>BOND
     1     4     2    2
     2     5     6    1
     3     5     1    1
     4     7     6    2
     5     7     9    1
     6     6     8    1
     7     9    11    2
     8     8    10    2
     9    11    10    1
    10    11    13    1
    11    10    12    1
    12    13    14    1
    13    14    12    1
    14     2     1    1
    15     2     3    1
