@<TRIPOS>MOLECULE
/home/cewinharhar/GITHUB/reincatalyze/data/processed/docking_pred/2023-May-22-1902_sub9_nm5_bs15_s42_ex16_mel10_mts1000_k50_ec02_g099_lra9e-4_lrc1e-3/82066193004a6cdbe54a2a950d109d8cafa96b54_ligand_9.pdbqt
 14 15 0 0 0
SMALL
GASTEIGER

@<TRIPOS>ATOM
      1  C          5.3240    2.9800    0.2210 C.3     1  UNL1        0.0800
      2  C          6.3650    3.7090    0.9990 C.2     1  UNL1        0.1300
      3  C          7.2060    4.7670    0.3780 C.3     1  UNL1        0.0870
      4  O          6.5580    3.4560    2.1770 O.2     1  UNL1       -0.3000
      5  C          5.0270    1.6250    0.8330 C.3     1  UNL1        0.0430
      6  C          5.8980    0.5730    0.2800 C.2     1  UNL1       -0.0440
      7  C          6.3120    0.5910   -1.0560 C.2     1  UNL1        0.0080
      8  C          6.3210   -0.4570    1.0900 C.2     1  UNL1        0.0540
      9  C          7.1300   -0.4230   -1.5200 C.2     1  UNL1        0.0510
     10  C          7.1490   -1.4800    0.6170 C.2     1  UNL1        0.1660
     11  C          7.5560   -1.4630   -0.6990 C.2     1  UNL1        0.1650
     12  O          7.6970   -2.5960    1.2120 O.2     1  UNL1       -0.4540
     13  O          8.3550   -2.5810   -0.8860 O.2     1  UNL1       -0.4540
     14  C          8.5440   -3.2770    0.3230 C.3     1  UNL1        0.4680
@<TRIPOS>BOND
     1     9     7    1
     2     9    11    2
     3     7     6    2
     4    13    11    1
     5    13    14    1
     6    11    10    1
     7     1     5    1
     8     1     2    1
     9     6     5    1
    10     6     8    1
    11    14    12    1
    12     3     2    1
    13    10     8    2
    14    10    12    1
    15     2     4    2
