@<TRIPOS>MOLECULE
/home/cewinharhar/GITHUB/reincatalyze/data/processed/docking_pred/2023-May-22-1902_sub9_nm5_bs15_s42_ex16_mel10_mts1000_k50_ec02_g099_lra9e-4_lrc1e-3/82066193004a6cdbe54a2a950d109d8cafa96b54_ligand_9.pdbqt
 14 15 0 0 0
SMALL
GASTEIGER

@<TRIPOS>ATOM
      1  C          5.3690    2.9610    0.0730 C.3     1  UNL1        0.0800
      2  C          6.3270    3.9070    0.7110 C.2     1  UNL1        0.1300
      3  C          6.6470    3.8340    2.1620 C.3     1  UNL1        0.0870
      4  O          6.8810    4.7750    0.0560 O.2     1  UNL1       -0.3000
      5  C          5.1700    1.7220    0.9240 C.3     1  UNL1        0.0430
      6  C          5.9830    0.5920    0.4420 C.2     1  UNL1       -0.0440
      7  C          6.3690   -0.4490    1.2930 C.2     1  UNL1        0.0080
      8  C          6.3770    0.5480   -0.8770 C.2     1  UNL1        0.0540
      9  C          7.1320   -1.4850    0.7850 C.2     1  UNL1        0.0510
     10  C          7.1470   -0.5010   -1.3860 C.2     1  UNL1        0.1660
     11  C          7.5280   -1.5260   -0.5490 C.2     1  UNL1        0.1650
     12  O          7.6580   -0.7700   -2.6380 O.2     1  UNL1       -0.4540
     13  O          8.2720   -2.4120   -1.3120 O.2     1  UNL1       -0.4540
     14  C          8.3020   -2.0180   -2.6630 C.3     1  UNL1        0.4680
@<TRIPOS>BOND
     1    14    12    1
     2    14    13    1
     3    12    10    1
     4    10     8    1
     5    10    11    2
     6    13    11    1
     7     8     6    2
     8    11     9    1
     9     4     2    2
    10     1     2    1
    11     1     5    1
    12     6     5    1
    13     6     7    1
    14     2     3    1
    15     9     7    2
