@<TRIPOS>MOLECULE
/home/cewinharhar/GITHUB/reincatalyze/data/processed/docking_pred/2023-May-22-1902_sub9_nm5_bs15_s42_ex16_mel10_mts1000_k50_ec02_g099_lra9e-4_lrc1e-3/82066193004a6cdbe54a2a950d109d8cafa96b54_ligand_9.pdbqt
 14 15 0 0 0
SMALL
GASTEIGER

@<TRIPOS>ATOM
      1  C          5.5080    1.9250    1.2600 C.3     1  UNL1        0.0800
      2  C          5.0720    0.7090    2.0010 C.2     1  UNL1        0.1300
      3  C          5.9660   -0.4690    2.1630 C.3     1  UNL1        0.0870
      4  O          3.9610    0.6440    2.5010 O.2     1  UNL1       -0.3000
      5  C          5.3850    1.7300   -0.2380 C.3     1  UNL1        0.0430
      6  C          6.5550    1.0290   -0.7960 C.2     1  UNL1       -0.0440
      7  C          7.8610    1.4570   -0.5320 C.2     1  UNL1        0.0080
      8  C          6.3710   -0.0770   -1.5950 C.2     1  UNL1        0.0540
      9  C          8.9210    0.7590   -1.0820 C.2     1  UNL1        0.0510
     10  C          7.4450   -0.7800   -2.1480 C.2     1  UNL1        0.1660
     11  C          8.7310   -0.3580   -1.8900 C.2     1  UNL1        0.1650
     12  O          7.5230   -1.8910   -2.9620 O.2     1  UNL1       -0.4540
     13  O          9.5790   -1.2290   -2.5560 O.2     1  UNL1       -0.4540
     14  C          8.8590   -2.2680   -3.1740 C.3     1  UNL1        0.4680
@<TRIPOS>BOND
     1    14    12    1
     2    14    13    1
     3    12    10    1
     4    13    11    1
     5    10    11    2
     6    10     8    1
     7    11     9    1
     8     8     6    2
     9     9     7    2
    10     6     7    1
    11     6     5    1
    12     5     1    1
    13     1     2    1
    14     2     3    1
    15     2     4    2
