MODEL 1
REMARK VINA RESULT:      -7.8      0.000      0.000
REMARK SMILES CC(=O)CCc1ccc2c(c1)OCO2
REMARK SMILES IDX 4 1 2 2 1 3 3 4 5 5 6 6 7 7 11 8 8 9 10 10 9 11 12 12 14 13
REMARK SMILES IDX 13 14
REMARK H PARENT
REMARK Flexibility Score: inf
ROOT
ATOM      1  C   UNL     1       5.324   2.980   0.221  1.00  0.00     0.080 C 
ENDROOT
BRANCH   1   2
ATOM      2  C   UNL     1       6.365   3.709   0.999  1.00  0.00     0.130 C 
ATOM      3  C   UNL     1       7.206   4.767   0.378  1.00  0.00     0.087 C 
ATOM      4  O   UNL     1       6.558   3.456   2.177  1.00  0.00    -0.300 OA
ENDBRANCH   1   2
BRANCH   1   5
ATOM      5  C   UNL     1       5.027   1.625   0.833  1.00  0.00     0.043 C 
BRANCH   5   6
ATOM      6  C   UNL     1       5.898   0.573   0.280  1.00  0.00    -0.044 A 
ATOM      7  C   UNL     1       6.312   0.591  -1.056  1.00  0.00     0.008 A 
ATOM      8  C   UNL     1       6.321  -0.457   1.090  1.00  0.00     0.054 A 
ATOM      9  C   UNL     1       7.130  -0.423  -1.520  1.00  0.00     0.051 A 
ATOM     10  C   UNL     1       7.149  -1.480   0.617  1.00  0.00     0.166 A 
ATOM     11  C   UNL     1       7.556  -1.463  -0.699  1.00  0.00     0.165 A 
ATOM     12  O   UNL     1       7.697  -2.596   1.212  1.00  0.00    -0.454 OA
ATOM     13  O   UNL     1       8.355  -2.581  -0.886  1.00  0.00    -0.454 OA
ATOM     14  C   UNL     1       8.544  -3.277   0.323  1.00  0.00     0.468 C 
ENDBRANCH   5   6
ENDBRANCH   1   5
TORSDOF 3
ENDMDL
MODEL 2
REMARK VINA RESULT:      -7.7      2.404      3.037
REMARK SMILES CC(=O)CCc1ccc2c(c1)OCO2
REMARK SMILES IDX 4 1 2 2 1 3 3 4 5 5 6 6 7 7 11 8 8 9 10 10 9 11 12 12 14 13
REMARK SMILES IDX 13 14
REMARK H PARENT
REMARK Flexibility Score: inf
ROOT
ATOM      1  C   UNL     1       5.508   1.925   1.260  1.00  0.00     0.080 C 
ENDROOT
BRANCH   1   2
ATOM      2  C   UNL     1       5.072   0.709   2.001  1.00  0.00     0.130 C 
ATOM      3  C   UNL     1       5.966  -0.469   2.163  1.00  0.00     0.087 C 
ATOM      4  O   UNL     1       3.961   0.644   2.501  1.00  0.00    -0.300 OA
ENDBRANCH   1   2
BRANCH   1   5
ATOM      5  C   UNL     1       5.385   1.730  -0.238  1.00  0.00     0.043 C 
BRANCH   5   6
ATOM      6  C   UNL     1       6.555   1.029  -0.796  1.00  0.00    -0.044 A 
ATOM      7  C   UNL     1       7.861   1.457  -0.532  1.00  0.00     0.008 A 
ATOM      8  C   UNL     1       6.371  -0.077  -1.595  1.00  0.00     0.054 A 
ATOM      9  C   UNL     1       8.921   0.759  -1.082  1.00  0.00     0.051 A 
ATOM     10  C   UNL     1       7.445  -0.780  -2.148  1.00  0.00     0.166 A 
ATOM     11  C   UNL     1       8.731  -0.358  -1.890  1.00  0.00     0.165 A 
ATOM     12  O   UNL     1       7.523  -1.891  -2.962  1.00  0.00    -0.454 OA
ATOM     13  O   UNL     1       9.579  -1.229  -2.556  1.00  0.00    -0.454 OA
ATOM     14  C   UNL     1       8.859  -2.268  -3.174  1.00  0.00     0.468 C 
ENDBRANCH   5   6
ENDBRANCH   1   5
TORSDOF 3
ENDMDL
MODEL 3
REMARK VINA RESULT:      -7.5      1.809      2.496
REMARK SMILES CC(=O)CCc1ccc2c(c1)OCO2
REMARK SMILES IDX 4 1 2 2 1 3 3 4 5 5 6 6 7 7 11 8 8 9 10 10 9 11 12 12 14 13
REMARK SMILES IDX 13 14
REMARK H PARENT
REMARK Flexibility Score: inf
ROOT
ATOM      1  C   UNL     1       5.802   1.374  -0.372  1.00  0.00     0.080 C 
ENDROOT
BRANCH   1   2
ATOM      2  C   UNL     1       5.135   1.337   0.959  1.00  0.00     0.130 C 
ATOM      3  C   UNL     1       5.374   0.229   1.922  1.00  0.00     0.087 C 
ATOM      4  O   UNL     1       4.367   2.222   1.299  1.00  0.00    -0.300 OA
ENDBRANCH   1   2
BRANCH   1   5
ATOM      5  C   UNL     1       7.282   1.065  -0.255  1.00  0.00     0.043 C 
BRANCH   5   6
ATOM      6  C   UNL     1       7.620  -0.230  -0.872  1.00  0.00    -0.044 A 
ATOM      7  C   UNL     1       7.622  -0.402  -2.261  1.00  0.00     0.008 A 
ATOM      8  C   UNL     1       7.945  -1.302  -0.073  1.00  0.00     0.054 A 
ATOM      9  C   UNL     1       7.948  -1.641  -2.783  1.00  0.00     0.051 A 
ATOM     10  C   UNL     1       8.275  -2.552  -0.605  1.00  0.00     0.166 A 
ATOM     11  C   UNL     1       8.276  -2.723  -1.972  1.00  0.00     0.165 A 
ATOM     12  O   UNL     1       8.629  -3.755  -0.031  1.00  0.00    -0.454 OA
ATOM     13  O   UNL     1       8.635  -4.040  -2.211  1.00  0.00    -0.454 OA
ATOM     14  C   UNL     1       8.956  -4.705  -1.013  1.00  0.00     0.468 C 
ENDBRANCH   5   6
ENDBRANCH   1   5
TORSDOF 3
ENDMDL
MODEL 4
REMARK VINA RESULT:      -7.4      1.531      2.052
REMARK SMILES CC(=O)CCc1ccc2c(c1)OCO2
REMARK SMILES IDX 4 1 2 2 1 3 3 4 5 5 6 6 7 7 11 8 8 9 10 10 9 11 12 12 14 13
REMARK SMILES IDX 13 14
REMARK H PARENT
REMARK Flexibility Score: inf
ROOT
ATOM      1  C   UNL     1       5.751   1.319  -0.267  1.00  0.00     0.080 C 
ENDROOT
BRANCH   1   2
ATOM      2  C   UNL     1       5.384   2.693   0.175  1.00  0.00     0.130 C 
ATOM      3  C   UNL     1       6.419   3.709   0.507  1.00  0.00     0.087 C 
ATOM      4  O   UNL     1       4.215   3.027   0.278  1.00  0.00    -0.300 OA
ENDBRANCH   1   2
BRANCH   1   5
ATOM      5  C   UNL     1       7.256   1.143  -0.326  1.00  0.00     0.043 C 
BRANCH   5   6
ATOM      6  C   UNL     1       7.631  -0.158  -0.909  1.00  0.00    -0.044 A 
ATOM      7  C   UNL     1       7.740  -0.337  -2.293  1.00  0.00     0.008 A 
ATOM      8  C   UNL     1       7.885  -1.228  -0.082  1.00  0.00     0.054 A 
ATOM      9  C   UNL     1       8.097  -1.580  -2.783  1.00  0.00     0.051 A 
ATOM     10  C   UNL     1       8.247  -2.483  -0.582  1.00  0.00     0.166 A 
ATOM     11  C   UNL     1       8.353  -2.660  -1.944  1.00  0.00     0.165 A 
ATOM     12  O   UNL     1       8.545  -3.685   0.023  1.00  0.00    -0.454 OA
ATOM     13  O   UNL     1       8.720  -3.981  -2.149  1.00  0.00    -0.454 OA
ATOM     14  C   UNL     1       8.941  -4.642  -0.926  1.00  0.00     0.468 C 
ENDBRANCH   5   6
ENDBRANCH   1   5
TORSDOF 3
ENDMDL
MODEL 5
REMARK VINA RESULT:      -7.4      1.200      2.118
REMARK SMILES CC(=O)CCc1ccc2c(c1)OCO2
REMARK SMILES IDX 4 1 2 2 1 3 3 4 5 5 6 6 7 7 11 8 8 9 10 10 9 11 12 12 14 13
REMARK SMILES IDX 13 14
REMARK H PARENT
REMARK Flexibility Score: inf
ROOT
ATOM      1  C   UNL     1       5.369   2.961   0.073  1.00  0.00     0.080 C 
ENDROOT
BRANCH   1   2
ATOM      2  C   UNL     1       6.327   3.907   0.711  1.00  0.00     0.130 C 
ATOM      3  C   UNL     1       6.647   3.834   2.162  1.00  0.00     0.087 C 
ATOM      4  O   UNL     1       6.881   4.775   0.056  1.00  0.00    -0.300 OA
ENDBRANCH   1   2
BRANCH   1   5
ATOM      5  C   UNL     1       5.170   1.722   0.924  1.00  0.00     0.043 C 
BRANCH   5   6
ATOM      6  C   UNL     1       5.983   0.592   0.442  1.00  0.00    -0.044 A 
ATOM      7  C   UNL     1       6.369  -0.449   1.293  1.00  0.00     0.008 A 
ATOM      8  C   UNL     1       6.377   0.548  -0.877  1.00  0.00     0.054 A 
ATOM      9  C   UNL     1       7.132  -1.485   0.785  1.00  0.00     0.051 A 
ATOM     10  C   UNL     1       7.147  -0.501  -1.386  1.00  0.00     0.166 A 
ATOM     11  C   UNL     1       7.528  -1.526  -0.549  1.00  0.00     0.165 A 
ATOM     12  O   UNL     1       7.658  -0.770  -2.638  1.00  0.00    -0.454 OA
ATOM     13  O   UNL     1       8.272  -2.412  -1.312  1.00  0.00    -0.454 OA
ATOM     14  C   UNL     1       8.302  -2.018  -2.663  1.00  0.00     0.468 C 
ENDBRANCH   5   6
ENDBRANCH   1   5
TORSDOF 3
ENDMDL
