@<TRIPOS>MOLECULE
/home/cewinharhar/GITHUB/reincatalyze/data/processed/docking_pred/2023-May-22-1902_sub9_nm5_bs15_s42_ex16_mel10_mts1000_k50_ec02_g099_lra9e-4_lrc1e-3/84f6a015bafc2578e701aafee66be27aa4cb1192_ligand_9.pdbqt
 14 15 0 0 0
SMALL
GASTEIGER

@<TRIPOS>ATOM
      1  C          5.5220    2.7590   -0.1510 C.3     1  UNL1        0.0800
      2  C          6.2640    3.6080    0.8230 C.2     1  UNL1        0.1300
      3  C          7.0740    4.7750    0.3840 C.3     1  UNL1        0.0870
      4  O          6.2270    3.3670    2.0190 O.2     1  UNL1       -0.3000
      5  C          5.6610    1.2870    0.1840 C.3     1  UNL1        0.0430
      6  C          6.7470    0.6520   -0.5840 C.2     1  UNL1       -0.0440
      7  C          8.0510    1.1580   -0.5660 C.2     1  UNL1        0.0080
      8  C          6.4830   -0.4680   -1.3400 C.2     1  UNL1        0.0540
      9  C          9.0290    0.5190   -1.3070 C.2     1  UNL1        0.0510
     10  C          7.4750   -1.1110   -2.0860 C.2     1  UNL1        0.1660
     11  C          8.7590   -0.6120   -2.0700 C.2     1  UNL1        0.1650
     12  O          7.4650   -2.2200   -2.9040 O.2     1  UNL1       -0.4540
     13  O          9.5190   -1.4360   -2.8860 O.2     1  UNL1       -0.4540
     14  C          8.7590   -2.5200   -3.3630 C.3     1  UNL1        0.4680
@<TRIPOS>BOND
     1    14    12    1
     2    14    13    1
     3    12    10    1
     4    13    11    1
     5    10    11    2
     6    10     8    1
     7    11     9    1
     8     8     6    2
     9     9     7    2
    10     6     7    1
    11     6     5    1
    12     1     5    1
    13     1     2    1
    14     3     2    1
    15     2     4    2
