@<TRIPOS>MOLECULE
/home/cewinharhar/GITHUB/reincatalyze/data/processed/docking_pred/2023-May-22-1902_sub9_nm5_bs15_s42_ex16_mel10_mts1000_k50_ec02_g099_lra9e-4_lrc1e-3/84f6a015bafc2578e701aafee66be27aa4cb1192_ligand_9.pdbqt
 14 15 0 0 0
SMALL
GASTEIGER

@<TRIPOS>ATOM
      1  C          5.6950    0.2480    1.0300 C.3     1  UNL1        0.0800
      2  C          4.9330    1.5260    0.9730 C.2     1  UNL1        0.1300
      3  C          5.1560    2.5200   -0.1120 C.3     1  UNL1        0.0870
      4  O          4.0990    1.7970    1.8210 O.2     1  UNL1       -0.3000
      5  C          7.1680    0.4720    0.7520 C.3     1  UNL1        0.0430
      6  C          7.5970   -0.1930   -0.4910 C.2     1  UNL1       -0.0440
      7  C          7.8120    0.5290   -1.6710 C.2     1  UNL1        0.0080
      8  C          7.7960   -1.5550   -0.5030 C.2     1  UNL1        0.0540
      9  C          8.2150   -0.1490   -2.8080 C.2     1  UNL1        0.0510
     10  C          8.2030   -2.2350   -1.6550 C.2     1  UNL1        0.1660
     11  C          8.4140   -1.5260   -2.8170 C.2     1  UNL1        0.1650
     12  O          8.4640   -3.5630   -1.9190 O.2     1  UNL1       -0.4540
     13  O          8.8050   -2.4430   -3.7800 O.2     1  UNL1       -0.4540
     14  C          8.9380   -3.7320   -3.2310 C.3     1  UNL1        0.4680
@<TRIPOS>BOND
     1    13    14    1
     2    13    11    1
     3    14    12    1
     4    11     9    2
     5    11    10    1
     6     9     7    1
     7    12    10    1
     8     7     6    2
     9    10     8    2
    10     8     6    1
    11     6     5    1
    12     3     2    1
    13     5     1    1
    14     2     1    1
    15     2     4    2
