@<TRIPOS>MOLECULE
/home/cewinharhar/GITHUB/reincatalyze/data/processed/docking_pred/2023-May-22-1902_sub9_nm5_bs15_s42_ex16_mel10_mts1000_k50_ec02_g099_lra9e-4_lrc1e-3/84f6a015bafc2578e701aafee66be27aa4cb1192_ligand_9.pdbqt
 14 15 0 0 0
SMALL
GASTEIGER

@<TRIPOS>ATOM
      1  C          5.4570    2.8910    0.3450 C.3     1  UNL1        0.0800
      2  C          6.2590    3.9040    1.0850 C.2     1  UNL1        0.1300
      3  C          7.2470    4.7750    0.3930 C.3     1  UNL1        0.0870
      4  O          6.1280    4.0500    2.2900 O.2     1  UNL1       -0.3000
      5  C          5.3390    1.6000    1.1320 C.3     1  UNL1        0.0430
      6  C          6.1460    0.5210    0.5350 C.2     1  UNL1       -0.0440
      7  C          6.5490   -0.5920    1.2820 C.2     1  UNL1        0.0080
      8  C          6.5160    0.5980   -0.7880 C.2     1  UNL1        0.0540
      9  C          7.3050   -1.5740    0.6680 C.2     1  UNL1        0.0510
     10  C          7.2800   -0.3980   -1.4040 C.2     1  UNL1        0.1660
     11  C          7.6780   -1.4930   -0.6700 C.2     1  UNL1        0.1650
     12  O          7.7690   -0.5500   -2.6840 O.2     1  UNL1       -0.4540
     13  O          8.4090   -2.3040   -1.5230 O.2     1  UNL1       -0.4540
     14  C          8.4150   -1.7880   -2.8330 C.3     1  UNL1        0.4680
@<TRIPOS>BOND
     1    14    12    1
     2    14    13    1
     3    12    10    1
     4    13    11    1
     5    10     8    1
     6    10    11    2
     7     8     6    2
     8    11     9    1
     9     1     2    1
    10     1     5    1
    11     3     2    1
    12     6     5    1
    13     6     7    1
    14     9     7    2
    15     2     4    2
