@<TRIPOS>MOLECULE
/home/cewinharhar/GITHUB/reincatalyze/data/processed/docking_pred/2023-May-22-1902_sub9_nm5_bs15_s42_ex16_mel10_mts1000_k50_ec02_g099_lra9e-4_lrc1e-3/8651a6b7cbc4b018fd9bb7015a505d05e6fdae34_ligand_9.pdbqt
 14 15 0 0 0
SMALL
GASTEIGER

@<TRIPOS>ATOM
      1  C          6.4500    1.0470    1.1320 C.3     1  UNL1        0.0800
      2  C          5.1430    1.7410    0.9620 C.2     1  UNL1        0.1300
      3  C          4.8330    2.5350   -0.2570 C.3     1  UNL1        0.0870
      4  O          4.2830    1.6790    1.8250 O.2     1  UNL1       -0.3000
      5  C          7.3270    1.2180   -0.0920 C.3     1  UNL1        0.0430
      6  C          7.6460   -0.0750   -0.7220 C.2     1  UNL1       -0.0440
      7  C          7.6440   -0.2340   -2.1120 C.2     1  UNL1        0.0080
      8  C          7.9570   -1.1600    0.0670 C.2     1  UNL1        0.0540
      9  C          7.9520   -1.4720   -2.6470 C.2     1  UNL1        0.0510
     10  C          8.2680   -2.4090   -0.4790 C.2     1  UNL1        0.1660
     11  C          8.2650   -2.5660   -1.8470 C.2     1  UNL1        0.1650
     12  O          8.6040   -3.6220    0.0830 O.2     1  UNL1       -0.4540
     13  O          8.6040   -3.8860   -2.1000 O.2     1  UNL1       -0.4540
     14  C          8.9160   -4.5680   -0.9080 C.3     1  UNL1        0.4680
@<TRIPOS>BOND
     1     9     7    1
     2     9    11    2
     3     7     6    2
     4    13    11    1
     5    13    14    1
     6    11    10    1
     7    14    12    1
     8     6     5    1
     9     6     8    1
    10    10     8    2
    11    10    12    1
    12     3     2    1
    13     5     1    1
    14     2     1    1
    15     2     4    2
