MODEL 1
REMARK VINA RESULT:      -8.0      0.000      0.000
REMARK SMILES CC(=O)CCc1ccc2c(c1)OCO2
REMARK SMILES IDX 4 1 2 2 1 3 3 4 5 5 6 6 7 7 11 8 8 9 10 10 9 11 12 12 14 13
REMARK SMILES IDX 13 14
REMARK H PARENT
REMARK Flexibility Score: inf
ROOT
ATOM      1  C   UNL     1       5.440   2.930   0.067  1.00  0.00     0.080 C 
ENDROOT
BRANCH   1   2
ATOM      2  C   UNL     1       6.300   3.792   0.925  1.00  0.00     0.130 C 
ATOM      3  C   UNL     1       7.254   4.771   0.340  1.00  0.00     0.087 C 
ATOM      4  O   UNL     1       6.245   3.718   2.142  1.00  0.00    -0.300 OA
ENDBRANCH   1   2
BRANCH   1   5
ATOM      5  C   UNL     1       5.117   1.617   0.753  1.00  0.00     0.043 C 
BRANCH   5   6
ATOM      6  C   UNL     1       5.967   0.519   0.259  1.00  0.00    -0.044 A 
ATOM      7  C   UNL     1       6.309  -0.567   1.074  1.00  0.00     0.008 A 
ATOM      8  C   UNL     1       6.439   0.550  -1.033  1.00  0.00     0.054 A 
ATOM      9  C   UNL     1       7.109  -1.569   0.555  1.00  0.00     0.051 A 
ATOM     10  C   UNL     1       7.246  -0.466  -1.553  1.00  0.00     0.166 A 
ATOM     11  C   UNL     1       7.585  -1.533  -0.752  1.00  0.00     0.165 A 
ATOM     12  O   UNL     1       7.833  -0.662  -2.785  1.00  0.00    -0.454 OA
ATOM     13  O   UNL     1       8.379  -2.373  -1.518  1.00  0.00    -0.454 OA
ATOM     14  C   UNL     1       8.487  -1.904  -2.840  1.00  0.00     0.468 C 
ENDBRANCH   5   6
ENDBRANCH   1   5
TORSDOF 3
ENDMDL
MODEL 2
REMARK VINA RESULT:      -7.8      0.985      1.974
REMARK SMILES CC(=O)CCc1ccc2c(c1)OCO2
REMARK SMILES IDX 4 1 2 2 1 3 3 4 5 5 6 6 7 7 11 8 8 9 10 10 9 11 12 12 14 13
REMARK SMILES IDX 13 14
REMARK H PARENT
REMARK Flexibility Score: inf
ROOT
ATOM      1  C   UNL     1       5.355   2.984   0.196  1.00  0.00     0.080 C 
ENDROOT
BRANCH   1   2
ATOM      2  C   UNL     1       6.260   3.853   1.000  1.00  0.00     0.130 C 
ATOM      3  C   UNL     1       7.234   4.773   0.355  1.00  0.00     0.087 C 
ATOM      4  O   UNL     1       6.228   3.833   2.219  1.00  0.00    -0.300 OA
ENDBRANCH   1   2
BRANCH   1   5
ATOM      5  C   UNL     1       5.122   1.651   0.880  1.00  0.00     0.043 C 
BRANCH   5   6
ATOM      6  C   UNL     1       5.965   0.588   0.305  1.00  0.00    -0.044 A 
ATOM      7  C   UNL     1       6.363   0.612  -1.036  1.00  0.00     0.008 A 
ATOM      8  C   UNL     1       6.380  -0.458   1.099  1.00  0.00     0.054 A 
ATOM      9  C   UNL     1       7.156  -0.413  -1.520  1.00  0.00     0.051 A 
ATOM     10  C   UNL     1       7.181  -1.491   0.605  1.00  0.00     0.166 A 
ATOM     11  C   UNL     1       7.572  -1.469  -0.715  1.00  0.00     0.165 A 
ATOM     12  O   UNL     1       7.715  -2.624   1.183  1.00  0.00    -0.454 OA
ATOM     13  O   UNL     1       8.347  -2.599  -0.923  1.00  0.00    -0.454 OA
ATOM     14  C   UNL     1       8.539  -3.311   0.276  1.00  0.00     0.468 C 
ENDBRANCH   5   6
ENDBRANCH   1   5
TORSDOF 3
ENDMDL
MODEL 3
REMARK VINA RESULT:      -7.7      1.883      2.627
REMARK SMILES CC(=O)CCc1ccc2c(c1)OCO2
REMARK SMILES IDX 4 1 2 2 1 3 3 4 5 5 6 6 7 7 11 8 8 9 10 10 9 11 12 12 14 13
REMARK SMILES IDX 13 14
REMARK H PARENT
REMARK Flexibility Score: inf
ROOT
ATOM      1  C   UNL     1       5.533   1.910   1.265  1.00  0.00     0.080 C 
ENDROOT
BRANCH   1   2
ATOM      2  C   UNL     1       5.086   0.696   2.004  1.00  0.00     0.130 C 
ATOM      3  C   UNL     1       5.972  -0.486   2.174  1.00  0.00     0.087 C 
ATOM      4  O   UNL     1       3.970   0.638   2.495  1.00  0.00    -0.300 OA
ENDBRANCH   1   2
BRANCH   1   5
ATOM      5  C   UNL     1       5.406   1.719  -0.234  1.00  0.00     0.043 C 
BRANCH   5   6
ATOM      6  C   UNL     1       6.572   1.016  -0.797  1.00  0.00    -0.044 A 
ATOM      7  C   UNL     1       7.880   1.447  -0.545  1.00  0.00     0.008 A 
ATOM      8  C   UNL     1       6.383  -0.094  -1.588  1.00  0.00     0.054 A 
ATOM      9  C   UNL     1       8.936   0.747  -1.100  1.00  0.00     0.051 A 
ATOM     10  C   UNL     1       7.454  -0.799  -2.146  1.00  0.00     0.166 A 
ATOM     11  C   UNL     1       8.741  -0.375  -1.900  1.00  0.00     0.165 A 
ATOM     12  O   UNL     1       7.526  -1.914  -2.954  1.00  0.00    -0.454 OA
ATOM     13  O   UNL     1       9.585  -1.248  -2.568  1.00  0.00    -0.454 OA
ATOM     14  C   UNL     1       8.861  -2.291  -3.175  1.00  0.00     0.468 C 
ENDBRANCH   5   6
ENDBRANCH   1   5
TORSDOF 3
ENDMDL
MODEL 4
REMARK VINA RESULT:      -7.5      1.956      3.017
REMARK SMILES CC(=O)CCc1ccc2c(c1)OCO2
REMARK SMILES IDX 4 1 2 2 1 3 3 4 5 5 6 6 7 7 11 8 8 9 10 10 9 11 12 12 14 13
REMARK SMILES IDX 13 14
REMARK H PARENT
REMARK Flexibility Score: inf
ROOT
ATOM      1  C   UNL     1       5.749   1.344  -0.358  1.00  0.00     0.080 C 
ENDROOT
BRANCH   1   2
ATOM      2  C   UNL     1       5.134   1.305   0.998  1.00  0.00     0.130 C 
ATOM      3  C   UNL     1       5.393   0.184   1.941  1.00  0.00     0.087 C 
ATOM      4  O   UNL     1       4.394   2.199   1.376  1.00  0.00    -0.300 OA
ENDBRANCH   1   2
BRANCH   1   5
ATOM      5  C   UNL     1       7.245   1.106  -0.291  1.00  0.00     0.043 C 
BRANCH   5   6
ATOM      6  C   UNL     1       7.620  -0.189  -0.885  1.00  0.00    -0.044 A 
ATOM      7  C   UNL     1       7.706  -0.363  -2.271  1.00  0.00     0.008 A 
ATOM      8  C   UNL     1       7.896  -1.261  -0.066  1.00  0.00     0.054 A 
ATOM      9  C   UNL     1       8.063  -1.602  -2.771  1.00  0.00     0.051 A 
ATOM     10  C   UNL     1       8.258  -2.511  -0.577  1.00  0.00     0.166 A 
ATOM     11  C   UNL     1       8.341  -2.683  -1.940  1.00  0.00     0.165 A 
ATOM     12  O   UNL     1       8.576  -3.713   0.019  1.00  0.00    -0.454 OA
ATOM     13  O   UNL     1       8.714  -4.001  -2.156  1.00  0.00    -0.454 OA
ATOM     14  C   UNL     1       8.961  -4.664  -0.939  1.00  0.00     0.468 C 
ENDBRANCH   5   6
ENDBRANCH   1   5
TORSDOF 3
ENDMDL
MODEL 5
REMARK VINA RESULT:      -7.4      1.856      2.802
REMARK SMILES CC(=O)CCc1ccc2c(c1)OCO2
REMARK SMILES IDX 4 1 2 2 1 3 3 4 5 5 6 6 7 7 11 8 8 9 10 10 9 11 12 12 14 13
REMARK SMILES IDX 13 14
REMARK H PARENT
REMARK Flexibility Score: inf
ROOT
ATOM      1  C   UNL     1       6.450   1.047   1.132  1.00  0.00     0.080 C 
ENDROOT
BRANCH   1   2
ATOM      2  C   UNL     1       5.143   1.741   0.962  1.00  0.00     0.130 C 
ATOM      3  C   UNL     1       4.833   2.535  -0.257  1.00  0.00     0.087 C 
ATOM      4  O   UNL     1       4.283   1.679   1.825  1.00  0.00    -0.300 OA
ENDBRANCH   1   2
BRANCH   1   5
ATOM      5  C   UNL     1       7.327   1.218  -0.092  1.00  0.00     0.043 C 
BRANCH   5   6
ATOM      6  C   UNL     1       7.646  -0.075  -0.722  1.00  0.00    -0.044 A 
ATOM      7  C   UNL     1       7.644  -0.234  -2.112  1.00  0.00     0.008 A 
ATOM      8  C   UNL     1       7.957  -1.160   0.067  1.00  0.00     0.054 A 
ATOM      9  C   UNL     1       7.952  -1.472  -2.647  1.00  0.00     0.051 A 
ATOM     10  C   UNL     1       8.268  -2.409  -0.479  1.00  0.00     0.166 A 
ATOM     11  C   UNL     1       8.265  -2.566  -1.847  1.00  0.00     0.165 A 
ATOM     12  O   UNL     1       8.604  -3.622   0.083  1.00  0.00    -0.454 OA
ATOM     13  O   UNL     1       8.604  -3.886  -2.100  1.00  0.00    -0.454 OA
ATOM     14  C   UNL     1       8.916  -4.568  -0.908  1.00  0.00     0.468 C 
ENDBRANCH   5   6
ENDBRANCH   1   5
TORSDOF 3
ENDMDL
