@<TRIPOS>MOLECULE
/home/cewinharhar/GITHUB/reincatalyze/data/processed/docking_pred/2023-May-22-1902_sub9_nm5_bs15_s42_ex16_mel10_mts1000_k50_ec02_g099_lra9e-4_lrc1e-3/8651a6b7cbc4b018fd9bb7015a505d05e6fdae34_ligand_9.pdbqt
 14 15 0 0 0
SMALL
GASTEIGER

@<TRIPOS>ATOM
      1  C          5.7490    1.3440   -0.3580 C.3     1  UNL1        0.0800
      2  C          5.1340    1.3050    0.9980 C.2     1  UNL1        0.1300
      3  C          5.3930    0.1840    1.9410 C.3     1  UNL1        0.0870
      4  O          4.3940    2.1990    1.3760 O.2     1  UNL1       -0.3000
      5  C          7.2450    1.1060   -0.2910 C.3     1  UNL1        0.0430
      6  C          7.6200   -0.1890   -0.8850 C.2     1  UNL1       -0.0440
      7  C          7.7060   -0.3630   -2.2710 C.2     1  UNL1        0.0080
      8  C          7.8960   -1.2610   -0.0660 C.2     1  UNL1        0.0540
      9  C          8.0630   -1.6020   -2.7710 C.2     1  UNL1        0.0510
     10  C          8.2580   -2.5110   -0.5770 C.2     1  UNL1        0.1660
     11  C          8.3410   -2.6830   -1.9400 C.2     1  UNL1        0.1650
     12  O          8.5760   -3.7130    0.0190 O.2     1  UNL1       -0.4540
     13  O          8.7140   -4.0010   -2.1560 O.2     1  UNL1       -0.4540
     14  C          8.9610   -4.6640   -0.9390 C.3     1  UNL1        0.4680
@<TRIPOS>BOND
     1     9     7    1
     2     9    11    2
     3     7     6    2
     4    13    11    1
     5    13    14    1
     6    11    10    1
     7    14    12    1
     8     6     5    1
     9     6     8    1
    10    10     8    2
    11    10    12    1
    12     1     5    1
    13     1     2    1
    14     2     4    2
    15     2     3    1
