@<TRIPOS>MOLECULE
/home/cewinharhar/GITHUB/reincatalyze/data/processed/docking_pred/2023-May-22-1902_sub9_nm5_bs15_s42_ex16_mel10_mts1000_k50_ec02_g099_lra9e-4_lrc1e-3/8651a6b7cbc4b018fd9bb7015a505d05e6fdae34_ligand_9.pdbqt
 14 15 0 0 0
SMALL
GASTEIGER

@<TRIPOS>ATOM
      1  C          5.5330    1.9100    1.2650 C.3     1  UNL1        0.0800
      2  C          5.0860    0.6960    2.0040 C.2     1  UNL1        0.1300
      3  C          5.9720   -0.4860    2.1740 C.3     1  UNL1        0.0870
      4  O          3.9700    0.6380    2.4950 O.2     1  UNL1       -0.3000
      5  C          5.4060    1.7190   -0.2340 C.3     1  UNL1        0.0430
      6  C          6.5720    1.0160   -0.7970 C.2     1  UNL1       -0.0440
      7  C          7.8800    1.4470   -0.5450 C.2     1  UNL1        0.0080
      8  C          6.3830   -0.0940   -1.5880 C.2     1  UNL1        0.0540
      9  C          8.9360    0.7470   -1.1000 C.2     1  UNL1        0.0510
     10  C          7.4540   -0.7990   -2.1460 C.2     1  UNL1        0.1660
     11  C          8.7410   -0.3750   -1.9000 C.2     1  UNL1        0.1650
     12  O          7.5260   -1.9140   -2.9540 O.2     1  UNL1       -0.4540
     13  O          9.5850   -1.2480   -2.5680 O.2     1  UNL1       -0.4540
     14  C          8.8610   -2.2910   -3.1750 C.3     1  UNL1        0.4680
@<TRIPOS>BOND
     1    14    12    1
     2    14    13    1
     3    12    10    1
     4    13    11    1
     5    10    11    2
     6    10     8    1
     7    11     9    1
     8     8     6    2
     9     9     7    2
    10     6     7    1
    11     6     5    1
    12     5     1    1
    13     1     2    1
    14     2     3    1
    15     2     4    2
