@<TRIPOS>MOLECULE
/home/cewinharhar/GITHUB/reincatalyze/data/processed/docking_pred/2023-May-22-1902_sub9_nm5_bs15_s42_ex16_mel10_mts1000_k50_ec02_g099_lra9e-4_lrc1e-3/87c24324279ed01ab1d4888e5c128f335f215516_ligand_9.pdbqt
 14 15 0 0 0
SMALL
GASTEIGER

@<TRIPOS>ATOM
      1  C          5.5130    1.9190    1.2600 C.3     1  UNL1        0.0800
      2  C          5.0790    0.7010    1.9990 C.2     1  UNL1        0.1300
      3  C          5.9760   -0.4740    2.1630 C.3     1  UNL1        0.0870
      4  O          3.9660    0.6330    2.4940 O.2     1  UNL1       -0.3000
      5  C          5.3910    1.7270   -0.2390 C.3     1  UNL1        0.0430
      6  C          6.5600    1.0230   -0.7970 C.2     1  UNL1       -0.0440
      7  C          7.8660    1.4540   -0.5390 C.2     1  UNL1        0.0080
      8  C          6.3740   -0.0870   -1.5890 C.2     1  UNL1        0.0540
      9  C          8.9250    0.7530   -1.0890 C.2     1  UNL1        0.0510
     10  C          7.4470   -0.7920   -2.1420 C.2     1  UNL1        0.1660
     11  C          8.7330   -0.3680   -1.8900 C.2     1  UNL1        0.1650
     12  O          7.5230   -1.9060   -2.9500 O.2     1  UNL1       -0.4540
     13  O          9.5800   -1.2410   -2.5540 O.2     1  UNL1       -0.4540
     14  C          8.8590   -2.2840   -3.1640 C.3     1  UNL1        0.4680
@<TRIPOS>BOND
     1    14    12    1
     2    14    13    1
     3    12    10    1
     4    13    11    1
     5    10    11    2
     6    10     8    1
     7    11     9    1
     8     8     6    2
     9     9     7    2
    10     6     7    1
    11     6     5    1
    12     5     1    1
    13     1     2    1
    14     2     3    1
    15     2     4    2
