@<TRIPOS>MOLECULE
/home/cewinharhar/GITHUB/reincatalyze/data/processed/docking_pred/2023-May-22-1902_sub9_nm5_bs15_s42_ex16_mel10_mts1000_k50_ec02_g099_lra9e-4_lrc1e-3/88c4e0f8a026884e113c16f062f94e0c253125d7_ligand_9.pdbqt
 14 15 0 0 0
SMALL
GASTEIGER

@<TRIPOS>ATOM
      1  C          5.7300    1.3160   -0.3540 C.3     1  UNL1        0.0800
      2  C          5.1530    1.3030    1.0190 C.2     1  UNL1        0.1300
      3  C          5.3710    0.1610    1.9470 C.3     1  UNL1        0.0870
      4  O          4.4800    2.2370    1.4240 O.2     1  UNL1       -0.3000
      5  C          7.2320    1.1090   -0.3230 C.3     1  UNL1        0.0430
      6  C          7.6170   -0.1870   -0.9090 C.2     1  UNL1       -0.0440
      7  C          7.7300   -0.3610   -2.2930 C.2     1  UNL1        0.0080
      8  C          7.8770   -1.2580   -0.0840 C.2     1  UNL1        0.0540
      9  C          8.0960   -1.6010   -2.7860 C.2     1  UNL1        0.0510
     10  C          8.2470   -2.5090   -0.5870 C.2     1  UNL1        0.1660
     11  C          8.3580   -2.6820   -1.9490 C.2     1  UNL1        0.1650
     12  O          8.5530   -3.7110    0.0150 O.2     1  UNL1       -0.4540
     13  O          8.7340   -4.0000   -2.1570 O.2     1  UNL1       -0.4540
     14  C          8.9570   -4.6630   -0.9360 C.3     1  UNL1        0.4680
@<TRIPOS>BOND
     1     9     7    1
     2     9    11    2
     3     7     6    2
     4    13    11    1
     5    13    14    1
     6    11    10    1
     7    14    12    1
     8     6     5    1
     9     6     8    1
    10    10     8    2
    11    10    12    1
    12     1     5    1
    13     1     2    1
    14     2     4    2
    15     2     3    1
