MODEL 1
REMARK VINA RESULT:      -7.9      0.000      0.000
REMARK SMILES CC(=O)CCc1ccc2c(c1)OCO2
REMARK SMILES IDX 4 1 2 2 1 3 3 4 5 5 6 6 7 7 11 8 8 9 10 10 9 11 12 12 14 13
REMARK SMILES IDX 13 14
REMARK H PARENT
REMARK Flexibility Score: inf
ROOT
ATOM      1  C   UNL     1       5.483   2.916   0.125  1.00  0.00     0.080 C 
ENDROOT
BRANCH   1   2
ATOM      2  C   UNL     1       6.334   3.771   0.999  1.00  0.00     0.130 C 
ATOM      3  C   UNL     1       7.274   4.775   0.432  1.00  0.00     0.087 C 
ATOM      4  O   UNL     1       6.284   3.670   2.214  1.00  0.00    -0.300 OA
ENDBRANCH   1   2
BRANCH   1   5
ATOM      5  C   UNL     1       5.161   1.594   0.793  1.00  0.00     0.043 C 
BRANCH   5   6
ATOM      6  C   UNL     1       6.016   0.505   0.288  1.00  0.00    -0.044 A 
ATOM      7  C   UNL     1       6.414  -0.555   1.110  1.00  0.00     0.008 A 
ATOM      8  C   UNL     1       6.435   0.519  -1.023  1.00  0.00     0.054 A 
ATOM      9  C   UNL     1       7.216  -1.550   0.581  1.00  0.00     0.051 A 
ATOM     10  C   UNL     1       7.245  -0.490  -1.553  1.00  0.00     0.166 A 
ATOM     11  C   UNL     1       7.639  -1.532  -0.745  1.00  0.00     0.165 A 
ATOM     12  O   UNL     1       7.787  -0.699  -2.804  1.00  0.00    -0.454 OA
ATOM     13  O   UNL     1       8.422  -2.370  -1.523  1.00  0.00    -0.454 OA
ATOM     14  C   UNL     1       8.468  -1.927  -2.859  1.00  0.00     0.468 C 
ENDBRANCH   5   6
ENDBRANCH   1   5
TORSDOF 3
ENDMDL
MODEL 2
REMARK VINA RESULT:      -7.9      0.987      1.977
REMARK SMILES CC(=O)CCc1ccc2c(c1)OCO2
REMARK SMILES IDX 4 1 2 2 1 3 3 4 5 5 6 6 7 7 11 8 8 9 10 10 9 11 12 12 14 13
REMARK SMILES IDX 13 14
REMARK H PARENT
REMARK Flexibility Score: inf
ROOT
ATOM      1  C   UNL     1       5.383   2.965   0.141  1.00  0.00     0.080 C 
ENDROOT
BRANCH   1   2
ATOM      2  C   UNL     1       6.289   3.812   0.966  1.00  0.00     0.130 C 
ATOM      3  C   UNL     1       7.239   4.774   0.346  1.00  0.00     0.087 C 
ATOM      4  O   UNL     1       6.277   3.740   2.184  1.00  0.00    -0.300 OA
ENDBRANCH   1   2
BRANCH   1   5
ATOM      5  C   UNL     1       5.114   1.632   0.810  1.00  0.00     0.043 C 
BRANCH   5   6
ATOM      6  C   UNL     1       5.958   0.560   0.252  1.00  0.00    -0.044 A 
ATOM      7  C   UNL     1       6.337   0.552  -1.095  1.00  0.00     0.008 A 
ATOM      8  C   UNL     1       6.391  -0.461   1.067  1.00  0.00     0.054 A 
ATOM      9  C   UNL     1       7.130  -0.479  -1.563  1.00  0.00     0.051 A 
ATOM     10  C   UNL     1       7.193  -1.501   0.589  1.00  0.00     0.166 A 
ATOM     11  C   UNL     1       7.566  -1.511  -0.736  1.00  0.00     0.165 A 
ATOM     12  O   UNL     1       7.744  -2.614   1.188  1.00  0.00    -0.454 OA
ATOM     13  O   UNL     1       8.347  -2.640  -0.926  1.00  0.00    -0.454 OA
ATOM     14  C   UNL     1       8.560  -3.320   0.289  1.00  0.00     0.468 C 
ENDBRANCH   5   6
ENDBRANCH   1   5
TORSDOF 3
ENDMDL
MODEL 3
REMARK VINA RESULT:      -7.7      1.876      2.603
REMARK SMILES CC(=O)CCc1ccc2c(c1)OCO2
REMARK SMILES IDX 4 1 2 2 1 3 3 4 5 5 6 6 7 7 11 8 8 9 10 10 9 11 12 12 14 13
REMARK SMILES IDX 13 14
REMARK H PARENT
REMARK Flexibility Score: inf
ROOT
ATOM      1  C   UNL     1       5.512   1.923   1.257  1.00  0.00     0.080 C 
ENDROOT
BRANCH   1   2
ATOM      2  C   UNL     1       5.052   0.714   1.995  1.00  0.00     0.130 C 
ATOM      3  C   UNL     1       5.918  -0.487   2.144  1.00  0.00     0.087 C 
ATOM      4  O   UNL     1       3.943   0.673   2.502  1.00  0.00    -0.300 OA
ENDBRANCH   1   2
BRANCH   1   5
ATOM      5  C   UNL     1       5.391   1.733  -0.242  1.00  0.00     0.043 C 
BRANCH   5   6
ATOM      6  C   UNL     1       6.560   1.031  -0.800  1.00  0.00    -0.044 A 
ATOM      7  C   UNL     1       7.866   1.465  -0.545  1.00  0.00     0.008 A 
ATOM      8  C   UNL     1       6.375  -0.081  -1.590  1.00  0.00     0.054 A 
ATOM      9  C   UNL     1       8.925   0.766  -1.095  1.00  0.00     0.051 A 
ATOM     10  C   UNL     1       7.449  -0.785  -2.144  1.00  0.00     0.166 A 
ATOM     11  C   UNL     1       8.735  -0.357  -1.895  1.00  0.00     0.165 A 
ATOM     12  O   UNL     1       7.526  -1.900  -2.950  1.00  0.00    -0.454 OA
ATOM     13  O   UNL     1       9.583  -1.230  -2.559  1.00  0.00    -0.454 OA
ATOM     14  C   UNL     1       8.862  -2.276  -3.166  1.00  0.00     0.468 C 
ENDBRANCH   5   6
ENDBRANCH   1   5
TORSDOF 3
ENDMDL
MODEL 4
REMARK VINA RESULT:      -7.6      1.134      1.472
REMARK SMILES CC(=O)CCc1ccc2c(c1)OCO2
REMARK SMILES IDX 4 1 2 2 1 3 3 4 5 5 6 6 7 7 11 8 8 9 10 10 9 11 12 12 14 13
REMARK SMILES IDX 13 14
REMARK H PARENT
REMARK Flexibility Score: inf
ROOT
ATOM      1  C   UNL     1       5.368   2.898   0.178  1.00  0.00     0.080 C 
ENDROOT
BRANCH   1   2
ATOM      2  C   UNL     1       6.176   3.853   0.988  1.00  0.00     0.130 C 
ATOM      3  C   UNL     1       7.158   4.775   0.359  1.00  0.00     0.087 C 
ATOM      4  O   UNL     1       6.053   3.905   2.202  1.00  0.00    -0.300 OA
ENDBRANCH   1   2
BRANCH   1   5
ATOM      5  C   UNL     1       5.623   1.465   0.601  1.00  0.00     0.043 C 
BRANCH   5   6
ATOM      6  C   UNL     1       6.692   0.841  -0.198  1.00  0.00    -0.044 A 
ATOM      7  C   UNL     1       7.978   1.390  -0.257  1.00  0.00     0.008 A 
ATOM      8  C   UNL     1       6.432  -0.310  -0.905  1.00  0.00     0.054 A 
ATOM      9  C   UNL     1       8.942   0.760  -1.023  1.00  0.00     0.051 A 
ATOM     10  C   UNL     1       7.410  -0.944  -1.678  1.00  0.00     0.166 A 
ATOM     11  C   UNL     1       8.676  -0.404  -1.738  1.00  0.00     0.165 A 
ATOM     12  O   UNL     1       7.400  -2.079  -2.461  1.00  0.00    -0.454 OA
ATOM     13  O   UNL     1       9.424  -1.228  -2.563  1.00  0.00    -0.454 OA
ATOM     14  C   UNL     1       8.680  -2.351  -2.970  1.00  0.00     0.468 C 
ENDBRANCH   5   6
ENDBRANCH   1   5
TORSDOF 3
ENDMDL
MODEL 5
REMARK VINA RESULT:      -7.5      1.948      3.009
REMARK SMILES CC(=O)CCc1ccc2c(c1)OCO2
REMARK SMILES IDX 4 1 2 2 1 3 3 4 5 5 6 6 7 7 11 8 8 9 10 10 9 11 12 12 14 13
REMARK SMILES IDX 13 14
REMARK H PARENT
REMARK Flexibility Score: inf
ROOT
ATOM      1  C   UNL     1       5.730   1.316  -0.354  1.00  0.00     0.080 C 
ENDROOT
BRANCH   1   2
ATOM      2  C   UNL     1       5.153   1.303   1.019  1.00  0.00     0.130 C 
ATOM      3  C   UNL     1       5.371   0.161   1.947  1.00  0.00     0.087 C 
ATOM      4  O   UNL     1       4.480   2.237   1.424  1.00  0.00    -0.300 OA
ENDBRANCH   1   2
BRANCH   1   5
ATOM      5  C   UNL     1       7.232   1.109  -0.323  1.00  0.00     0.043 C 
BRANCH   5   6
ATOM      6  C   UNL     1       7.617  -0.187  -0.909  1.00  0.00    -0.044 A 
ATOM      7  C   UNL     1       7.730  -0.361  -2.293  1.00  0.00     0.008 A 
ATOM      8  C   UNL     1       7.877  -1.258  -0.084  1.00  0.00     0.054 A 
ATOM      9  C   UNL     1       8.096  -1.601  -2.786  1.00  0.00     0.051 A 
ATOM     10  C   UNL     1       8.247  -2.509  -0.587  1.00  0.00     0.166 A 
ATOM     11  C   UNL     1       8.358  -2.682  -1.949  1.00  0.00     0.165 A 
ATOM     12  O   UNL     1       8.553  -3.711   0.015  1.00  0.00    -0.454 OA
ATOM     13  O   UNL     1       8.734  -4.000  -2.157  1.00  0.00    -0.454 OA
ATOM     14  C   UNL     1       8.957  -4.663  -0.936  1.00  0.00     0.468 C 
ENDBRANCH   5   6
ENDBRANCH   1   5
TORSDOF 3
ENDMDL
