@<TRIPOS>MOLECULE
/home/cewinharhar/GITHUB/reincatalyze/data/processed/docking_pred/2023-May-22-1902_sub9_nm5_bs15_s42_ex16_mel10_mts1000_k50_ec02_g099_lra9e-4_lrc1e-3/88c4e0f8a026884e113c16f062f94e0c253125d7_ligand_9.pdbqt
 14 15 0 0 0
SMALL
GASTEIGER

@<TRIPOS>ATOM
      1  C          5.4830    2.9160    0.1250 C.3     1  UNL1        0.0800
      2  C          6.3340    3.7710    0.9990 C.2     1  UNL1        0.1300
      3  C          7.2740    4.7750    0.4320 C.3     1  UNL1        0.0870
      4  O          6.2840    3.6700    2.2140 O.2     1  UNL1       -0.3000
      5  C          5.1610    1.5940    0.7930 C.3     1  UNL1        0.0430
      6  C          6.0160    0.5050    0.2880 C.2     1  UNL1       -0.0440
      7  C          6.4140   -0.5550    1.1100 C.2     1  UNL1        0.0080
      8  C          6.4350    0.5190   -1.0230 C.2     1  UNL1        0.0540
      9  C          7.2160   -1.5500    0.5810 C.2     1  UNL1        0.0510
     10  C          7.2450   -0.4900   -1.5530 C.2     1  UNL1        0.1660
     11  C          7.6390   -1.5320   -0.7450 C.2     1  UNL1        0.1650
     12  O          7.7870   -0.6990   -2.8040 O.2     1  UNL1       -0.4540
     13  O          8.4220   -2.3700   -1.5230 O.2     1  UNL1       -0.4540
     14  C          8.4680   -1.9270   -2.8590 C.3     1  UNL1        0.4680
@<TRIPOS>BOND
     1    14    12    1
     2    14    13    1
     3    12    10    1
     4    10     8    1
     5    10    11    2
     6    13    11    1
     7     8     6    2
     8    11     9    1
     9     1     5    1
    10     1     2    1
    11     6     5    1
    12     6     7    1
    13     3     2    1
    14     9     7    2
    15     2     4    2
