@<TRIPOS>MOLECULE
/home/cewinharhar/GITHUB/reincatalyze/data/processed/docking_pred/2023-May-22-1902_sub9_nm5_bs15_s42_ex16_mel10_mts1000_k50_ec02_g099_lra9e-4_lrc1e-3/88c4e0f8a026884e113c16f062f94e0c253125d7_ligand_9.pdbqt
 14 15 0 0 0
SMALL
GASTEIGER

@<TRIPOS>ATOM
      1  C          5.5120    1.9230    1.2570 C.3     1  UNL1        0.0800
      2  C          5.0520    0.7140    1.9950 C.2     1  UNL1        0.1300
      3  C          5.9180   -0.4870    2.1440 C.3     1  UNL1        0.0870
      4  O          3.9430    0.6730    2.5020 O.2     1  UNL1       -0.3000
      5  C          5.3910    1.7330   -0.2420 C.3     1  UNL1        0.0430
      6  C          6.5600    1.0310   -0.8000 C.2     1  UNL1       -0.0440
      7  C          7.8660    1.4650   -0.5450 C.2     1  UNL1        0.0080
      8  C          6.3750   -0.0810   -1.5900 C.2     1  UNL1        0.0540
      9  C          8.9250    0.7660   -1.0950 C.2     1  UNL1        0.0510
     10  C          7.4490   -0.7850   -2.1440 C.2     1  UNL1        0.1660
     11  C          8.7350   -0.3570   -1.8950 C.2     1  UNL1        0.1650
     12  O          7.5260   -1.9000   -2.9500 O.2     1  UNL1       -0.4540
     13  O          9.5830   -1.2300   -2.5590 O.2     1  UNL1       -0.4540
     14  C          8.8620   -2.2760   -3.1660 C.3     1  UNL1        0.4680
@<TRIPOS>BOND
     1    14    12    1
     2    14    13    1
     3    12    10    1
     4    13    11    1
     5    10    11    2
     6    10     8    1
     7    11     9    1
     8     8     6    2
     9     9     7    2
    10     6     7    1
    11     6     5    1
    12     5     1    1
    13     1     2    1
    14     2     3    1
    15     2     4    2
