MODEL 1
REMARK VINA RESULT:      -7.9      0.000      0.000
REMARK SMILES CC(=O)CCc1ccc2c(c1)OCO2
REMARK SMILES IDX 4 1 2 2 1 3 3 4 5 5 6 6 7 7 11 8 8 9 10 10 9 11 12 12 14 13
REMARK SMILES IDX 13 14
REMARK H PARENT
REMARK Flexibility Score: inf
ROOT
ATOM      1  C   UNL     1       5.405   2.888   0.206  1.00  0.00     0.080 C 
ENDROOT
BRANCH   1   2
ATOM      2  C   UNL     1       6.300   3.779   0.996  1.00  0.00     0.130 C 
ATOM      3  C   UNL     1       7.189   4.775   0.339  1.00  0.00     0.087 C 
ATOM      4  O   UNL     1       6.330   3.716   2.215  1.00  0.00    -0.300 OA
ENDBRANCH   1   2
BRANCH   1   5
ATOM      5  C   UNL     1       5.156   1.578   0.927  1.00  0.00     0.043 C 
BRANCH   5   6
ATOM      6  C   UNL     1       6.003   0.494   0.399  1.00  0.00    -0.044 A 
ATOM      7  C   UNL     1       6.418  -0.572   1.206  1.00  0.00     0.008 A 
ATOM      8  C   UNL     1       6.400   0.519  -0.919  1.00  0.00     0.054 A 
ATOM      9  C   UNL     1       7.211  -1.561   0.655  1.00  0.00     0.051 A 
ATOM     10  C   UNL     1       7.201  -0.484  -1.471  1.00  0.00     0.166 A 
ATOM     11  C   UNL     1       7.611  -1.533  -0.678  1.00  0.00     0.165 A 
ATOM     12  O   UNL     1       7.722  -0.683  -2.733  1.00  0.00    -0.454 OA
ATOM     13  O   UNL     1       8.381  -2.363  -1.477  1.00  0.00    -0.454 OA
ATOM     14  C   UNL     1       8.402  -1.910  -2.810  1.00  0.00     0.468 C 
ENDBRANCH   5   6
ENDBRANCH   1   5
TORSDOF 3
ENDMDL
MODEL 2
REMARK VINA RESULT:      -7.8      1.001      1.985
REMARK SMILES CC(=O)CCc1ccc2c(c1)OCO2
REMARK SMILES IDX 4 1 2 2 1 3 3 4 5 5 6 6 7 7 11 8 8 9 10 10 9 11 12 12 14 13
REMARK SMILES IDX 13 14
REMARK H PARENT
REMARK Flexibility Score: inf
ROOT
ATOM      1  C   UNL     1       5.327   3.041   0.210  1.00  0.00     0.080 C 
ENDROOT
BRANCH   1   2
ATOM      2  C   UNL     1       6.364   3.728   1.030  1.00  0.00     0.130 C 
ATOM      3  C   UNL     1       7.249   4.775   0.452  1.00  0.00     0.087 C 
ATOM      4  O   UNL     1       6.519   3.447   2.207  1.00  0.00    -0.300 OA
ENDBRANCH   1   2
BRANCH   1   5
ATOM      5  C   UNL     1       4.980   1.683   0.786  1.00  0.00     0.043 C 
BRANCH   5   6
ATOM      6  C   UNL     1       5.864   0.625   0.264  1.00  0.00    -0.044 A 
ATOM      7  C   UNL     1       6.309   0.631  -1.063  1.00  0.00     0.008 A 
ATOM      8  C   UNL     1       6.270  -0.396   1.092  1.00  0.00     0.054 A 
ATOM      9  C   UNL     1       7.138  -0.387  -1.498  1.00  0.00     0.051 A 
ATOM     10  C   UNL     1       7.108  -1.423   0.648  1.00  0.00     0.166 A 
ATOM     11  C   UNL     1       7.546  -1.418  -0.657  1.00  0.00     0.165 A 
ATOM     12  O   UNL     1       7.643  -2.533   1.267  1.00  0.00    -0.454 OA
ATOM     13  O   UNL     1       8.349  -2.537  -0.815  1.00  0.00    -0.454 OA
ATOM     14  C   UNL     1       8.512  -3.221   0.404  1.00  0.00     0.468 C 
ENDBRANCH   5   6
ENDBRANCH   1   5
TORSDOF 3
ENDMDL
MODEL 3
REMARK VINA RESULT:      -7.6      1.891      2.641
REMARK SMILES CC(=O)CCc1ccc2c(c1)OCO2
REMARK SMILES IDX 4 1 2 2 1 3 3 4 5 5 6 6 7 7 11 8 8 9 10 10 9 11 12 12 14 13
REMARK SMILES IDX 13 14
REMARK H PARENT
REMARK Flexibility Score: inf
ROOT
ATOM      1  C   UNL     1       5.510   1.909   1.264  1.00  0.00     0.080 C 
ENDROOT
BRANCH   1   2
ATOM      2  C   UNL     1       5.069   0.689   1.997  1.00  0.00     0.130 C 
ATOM      3  C   UNL     1       5.958  -0.494   2.149  1.00  0.00     0.087 C 
ATOM      4  O   UNL     1       3.957   0.626   2.496  1.00  0.00    -0.300 OA
ENDBRANCH   1   2
BRANCH   1   5
ATOM      5  C   UNL     1       5.389   1.724  -0.236  1.00  0.00     0.043 C 
BRANCH   5   6
ATOM      6  C   UNL     1       6.560   1.025  -0.796  1.00  0.00    -0.044 A 
ATOM      7  C   UNL     1       7.865   1.463  -0.544  1.00  0.00     0.008 A 
ATOM      8  C   UNL     1       6.376  -0.088  -1.585  1.00  0.00     0.054 A 
ATOM      9  C   UNL     1       8.925   0.766  -1.096  1.00  0.00     0.051 A 
ATOM     10  C   UNL     1       7.451  -0.789  -2.140  1.00  0.00     0.166 A 
ATOM     11  C   UNL     1       8.736  -0.358  -1.894  1.00  0.00     0.165 A 
ATOM     12  O   UNL     1       7.529  -1.905  -2.945  1.00  0.00    -0.454 OA
ATOM     13  O   UNL     1       9.585  -1.228  -2.559  1.00  0.00    -0.454 OA
ATOM     14  C   UNL     1       8.866  -2.277  -3.164  1.00  0.00     0.468 C 
ENDBRANCH   5   6
ENDBRANCH   1   5
TORSDOF 3
ENDMDL
MODEL 4
REMARK VINA RESULT:      -7.5      1.972      3.040
REMARK SMILES CC(=O)CCc1ccc2c(c1)OCO2
REMARK SMILES IDX 4 1 2 2 1 3 3 4 5 5 6 6 7 7 11 8 8 9 10 10 9 11 12 12 14 13
REMARK SMILES IDX 13 14
REMARK H PARENT
REMARK Flexibility Score: inf
ROOT
ATOM      1  C   UNL     1       5.799   1.353  -0.410  1.00  0.00     0.080 C 
ENDROOT
BRANCH   1   2
ATOM      2  C   UNL     1       5.151   1.351   0.931  1.00  0.00     0.130 C 
ATOM      3  C   UNL     1       5.387   0.256   1.911  1.00  0.00     0.087 C 
ATOM      4  O   UNL     1       4.401   2.253   1.266  1.00  0.00    -0.300 OA
ENDBRANCH   1   2
BRANCH   1   5
ATOM      5  C   UNL     1       7.286   1.079  -0.303  1.00  0.00     0.043 C 
BRANCH   5   6
ATOM      6  C   UNL     1       7.646  -0.222  -0.893  1.00  0.00    -0.044 A 
ATOM      7  C   UNL     1       7.706  -0.408  -2.279  1.00  0.00     0.008 A 
ATOM      8  C   UNL     1       7.934  -1.288  -0.070  1.00  0.00     0.054 A 
ATOM      9  C   UNL     1       8.050  -1.652  -2.775  1.00  0.00     0.051 A 
ATOM     10  C   UNL     1       8.283  -2.543  -0.577  1.00  0.00     0.166 A 
ATOM     11  C   UNL     1       8.340  -2.727  -1.941  1.00  0.00     0.165 A 
ATOM     12  O   UNL     1       8.608  -3.741   0.022  1.00  0.00    -0.454 OA
ATOM     13  O   UNL     1       8.705  -4.047  -2.152  1.00  0.00    -0.454 OA
ATOM     14  C   UNL     1       8.973  -4.702  -0.935  1.00  0.00     0.468 C 
ENDBRANCH   5   6
ENDBRANCH   1   5
TORSDOF 3
ENDMDL
MODEL 5
REMARK VINA RESULT:      -7.5      1.827      2.805
REMARK SMILES CC(=O)CCc1ccc2c(c1)OCO2
REMARK SMILES IDX 4 1 2 2 1 3 3 4 5 5 6 6 7 7 11 8 8 9 10 10 9 11 12 12 14 13
REMARK SMILES IDX 13 14
REMARK H PARENT
REMARK Flexibility Score: inf
ROOT
ATOM      1  C   UNL     1       6.270   0.902   1.169  1.00  0.00     0.080 C 
ENDROOT
BRANCH   1   2
ATOM      2  C   UNL     1       5.066   1.753   0.959  1.00  0.00     0.130 C 
ATOM      3  C   UNL     1       4.900   2.585  -0.263  1.00  0.00     0.087 C 
ATOM      4  O   UNL     1       4.174   1.793   1.791  1.00  0.00    -0.300 OA
ENDBRANCH   1   2
BRANCH   1   5
ATOM      5  C   UNL     1       7.286   1.105   0.062  1.00  0.00     0.043 C 
BRANCH   5   6
ATOM      6  C   UNL     1       7.616  -0.162  -0.615  1.00  0.00    -0.044 A 
ATOM      7  C   UNL     1       7.588  -0.276  -2.010  1.00  0.00     0.008 A 
ATOM      8  C   UNL     1       7.963  -1.265   0.131  1.00  0.00     0.054 A 
ATOM      9  C   UNL     1       7.908  -1.490  -2.590  1.00  0.00     0.051 A 
ATOM     10  C   UNL     1       8.286  -2.490  -0.460  1.00  0.00     0.166 A 
ATOM     11  C   UNL     1       8.258  -2.603  -1.833  1.00  0.00     0.165 A 
ATOM     12  O   UNL     1       8.657  -3.713   0.055  1.00  0.00    -0.454 OA
ATOM     13  O   UNL     1       8.617  -3.908  -2.134  1.00  0.00    -0.454 OA
ATOM     14  C   UNL     1       8.966  -4.620  -0.972  1.00  0.00     0.468 C 
ENDBRANCH   5   6
ENDBRANCH   1   5
TORSDOF 3
ENDMDL
