@<TRIPOS>MOLECULE
/home/cewinharhar/GITHUB/reincatalyze/data/processed/docking_pred/2023-May-22-1902_sub9_nm5_bs15_s42_ex16_mel10_mts1000_k50_ec02_g099_lra9e-4_lrc1e-3/895ea28dab147140afd805a2e235fc395d2e1c3a_ligand_9.pdbqt
 14 15 0 0 0
SMALL
GASTEIGER

@<TRIPOS>ATOM
      1  C          6.2700    0.9020    1.1690 C.3     1  UNL1        0.0800
      2  C          5.0660    1.7530    0.9590 C.2     1  UNL1        0.1300
      3  C          4.9000    2.5850   -0.2630 C.3     1  UNL1        0.0870
      4  O          4.1740    1.7930    1.7910 O.2     1  UNL1       -0.3000
      5  C          7.2860    1.1050    0.0620 C.3     1  UNL1        0.0430
      6  C          7.6160   -0.1620   -0.6150 C.2     1  UNL1       -0.0440
      7  C          7.5880   -0.2760   -2.0100 C.2     1  UNL1        0.0080
      8  C          7.9630   -1.2650    0.1310 C.2     1  UNL1        0.0540
      9  C          7.9080   -1.4900   -2.5900 C.2     1  UNL1        0.0510
     10  C          8.2860   -2.4900   -0.4600 C.2     1  UNL1        0.1660
     11  C          8.2580   -2.6030   -1.8330 C.2     1  UNL1        0.1650
     12  O          8.6570   -3.7130    0.0550 O.2     1  UNL1       -0.4540
     13  O          8.6170   -3.9080   -2.1340 O.2     1  UNL1       -0.4540
     14  C          8.9660   -4.6200   -0.9720 C.3     1  UNL1        0.4680
@<TRIPOS>BOND
     1     9     7    1
     2     9    11    2
     3    13    11    1
     4    13    14    1
     5     7     6    2
     6    11    10    1
     7    14    12    1
     8     6     5    1
     9     6     8    1
    10    10    12    1
    11    10     8    2
    12     3     2    1
    13     5     1    1
    14     2     1    1
    15     2     4    2
