@<TRIPOS>MOLECULE
/home/cewinharhar/GITHUB/reincatalyze/data/processed/docking_pred/2023-May-22-1902_sub9_nm5_bs15_s42_ex16_mel10_mts1000_k50_ec02_g099_lra9e-4_lrc1e-3/895ea28dab147140afd805a2e235fc395d2e1c3a_ligand_9.pdbqt
 14 15 0 0 0
SMALL
GASTEIGER

@<TRIPOS>ATOM
      1  C          5.7990    1.3530   -0.4100 C.3     1  UNL1        0.0800
      2  C          5.1510    1.3510    0.9310 C.2     1  UNL1        0.1300
      3  C          5.3870    0.2560    1.9110 C.3     1  UNL1        0.0870
      4  O          4.4010    2.2530    1.2660 O.2     1  UNL1       -0.3000
      5  C          7.2860    1.0790   -0.3030 C.3     1  UNL1        0.0430
      6  C          7.6460   -0.2220   -0.8930 C.2     1  UNL1       -0.0440
      7  C          7.7060   -0.4080   -2.2790 C.2     1  UNL1        0.0080
      8  C          7.9340   -1.2880   -0.0700 C.2     1  UNL1        0.0540
      9  C          8.0500   -1.6520   -2.7750 C.2     1  UNL1        0.0510
     10  C          8.2830   -2.5430   -0.5770 C.2     1  UNL1        0.1660
     11  C          8.3400   -2.7270   -1.9410 C.2     1  UNL1        0.1650
     12  O          8.6080   -3.7410    0.0220 O.2     1  UNL1       -0.4540
     13  O          8.7050   -4.0470   -2.1520 O.2     1  UNL1       -0.4540
     14  C          8.9730   -4.7020   -0.9350 C.3     1  UNL1        0.4680
@<TRIPOS>BOND
     1     9     7    1
     2     9    11    2
     3     7     6    2
     4    13    11    1
     5    13    14    1
     6    11    10    1
     7    14    12    1
     8     6     5    1
     9     6     8    1
    10    10     8    2
    11    10    12    1
    12     1     5    1
    13     1     2    1
    14     2     4    2
    15     2     3    1
