@<TRIPOS>MOLECULE
/home/cewinharhar/GITHUB/reincatalyze/data/processed/docking_pred/2023-May-22-1902_sub9_nm5_bs15_s42_ex16_mel10_mts1000_k50_ec02_g099_lra9e-4_lrc1e-3/895ea28dab147140afd805a2e235fc395d2e1c3a_ligand_9.pdbqt
 14 15 0 0 0
SMALL
GASTEIGER

@<TRIPOS>ATOM
      1  C          5.3270    3.0410    0.2100 C.3     1  UNL1        0.0800
      2  C          6.3640    3.7280    1.0300 C.2     1  UNL1        0.1300
      3  C          7.2490    4.7750    0.4520 C.3     1  UNL1        0.0870
      4  O          6.5190    3.4470    2.2070 O.2     1  UNL1       -0.3000
      5  C          4.9800    1.6830    0.7860 C.3     1  UNL1        0.0430
      6  C          5.8640    0.6250    0.2640 C.2     1  UNL1       -0.0440
      7  C          6.3090    0.6310   -1.0630 C.2     1  UNL1        0.0080
      8  C          6.2700   -0.3960    1.0920 C.2     1  UNL1        0.0540
      9  C          7.1380   -0.3870   -1.4980 C.2     1  UNL1        0.0510
     10  C          7.1080   -1.4230    0.6480 C.2     1  UNL1        0.1660
     11  C          7.5460   -1.4180   -0.6570 C.2     1  UNL1        0.1650
     12  O          7.6430   -2.5330    1.2670 O.2     1  UNL1       -0.4540
     13  O          8.3490   -2.5370   -0.8150 O.2     1  UNL1       -0.4540
     14  C          8.5120   -3.2210    0.4040 C.3     1  UNL1        0.4680
@<TRIPOS>BOND
     1     9     7    1
     2     9    11    2
     3     7     6    2
     4    13    11    1
     5    13    14    1
     6    11    10    1
     7     1     5    1
     8     1     2    1
     9     6     5    1
    10     6     8    1
    11    14    12    1
    12     3     2    1
    13    10     8    2
    14    10    12    1
    15     2     4    2
