@<TRIPOS>MOLECULE
/home/cewinharhar/GITHUB/reincatalyze/data/processed/docking_pred/2023-May-22-1902_sub9_nm5_bs15_s42_ex16_mel10_mts1000_k50_ec02_g099_lra9e-4_lrc1e-3/895ea28dab147140afd805a2e235fc395d2e1c3a_ligand_9.pdbqt
 14 15 0 0 0
SMALL
GASTEIGER

@<TRIPOS>ATOM
      1  C          5.4050    2.8880    0.2060 C.3     1  UNL1        0.0800
      2  C          6.3000    3.7790    0.9960 C.2     1  UNL1        0.1300
      3  C          7.1890    4.7750    0.3390 C.3     1  UNL1        0.0870
      4  O          6.3300    3.7160    2.2150 O.2     1  UNL1       -0.3000
      5  C          5.1560    1.5780    0.9270 C.3     1  UNL1        0.0430
      6  C          6.0030    0.4940    0.3990 C.2     1  UNL1       -0.0440
      7  C          6.4180   -0.5720    1.2060 C.2     1  UNL1        0.0080
      8  C          6.4000    0.5190   -0.9190 C.2     1  UNL1        0.0540
      9  C          7.2110   -1.5610    0.6550 C.2     1  UNL1        0.0510
     10  C          7.2010   -0.4840   -1.4710 C.2     1  UNL1        0.1660
     11  C          7.6110   -1.5330   -0.6780 C.2     1  UNL1        0.1650
     12  O          7.7220   -0.6830   -2.7330 O.2     1  UNL1       -0.4540
     13  O          8.3810   -2.3630   -1.4770 O.2     1  UNL1       -0.4540
     14  C          8.4020   -1.9100   -2.8100 C.3     1  UNL1        0.4680
@<TRIPOS>BOND
     1    14    12    1
     2    14    13    1
     3    12    10    1
     4    13    11    1
     5    10     8    1
     6    10    11    2
     7     8     6    2
     8    11     9    1
     9     1     5    1
    10     1     2    1
    11     3     2    1
    12     6     5    1
    13     6     7    1
    14     9     7    2
    15     2     4    2
