MODEL 1
REMARK VINA RESULT:      -8.2      0.000      0.000
REMARK SMILES CC(=O)CCc1ccc2c(c1)OCO2
REMARK SMILES IDX 4 1 2 2 1 3 3 4 5 5 6 6 7 7 11 8 8 9 10 10 9 11 12 12 14 13
REMARK SMILES IDX 13 14
REMARK H PARENT
REMARK Flexibility Score: inf
ROOT
ATOM      1  C   UNL     1       5.847   1.605   0.876  1.00  0.00     0.080 C 
ENDROOT
BRANCH   1   2
ATOM      2  C   UNL     1       5.401   0.588   1.868  1.00  0.00     0.130 C 
ATOM      3  C   UNL     1       6.251  -0.579   2.226  1.00  0.00     0.087 C 
ATOM      4  O   UNL     1       4.316   0.684   2.419  1.00  0.00    -0.300 OA
ENDBRANCH   1   2
BRANCH   1   5
ATOM      5  C   UNL     1       5.759   1.069  -0.539  1.00  0.00     0.043 C 
BRANCH   5   6
ATOM      6  C   UNL     1       7.010   0.411  -0.954  1.00  0.00    -0.044 A 
ATOM      7  C   UNL     1       8.257   1.014  -0.753  1.00  0.00     0.008 A 
ATOM      8  C   UNL     1       6.964  -0.828  -1.551  1.00  0.00     0.054 A 
ATOM      9  C   UNL     1       9.398   0.348  -1.162  1.00  0.00     0.051 A 
ATOM     10  C   UNL     1       8.121  -1.497  -1.962  1.00  0.00     0.166 A 
ATOM     11  C   UNL     1       9.348  -0.904  -1.766  1.00  0.00     0.165 A 
ATOM     12  O   UNL     1       8.335  -2.716  -2.570  1.00  0.00    -0.454 OA
ATOM     13  O   UNL     1      10.301  -1.780  -2.262  1.00  0.00    -0.454 OA
ATOM     14  C   UNL     1       9.709  -2.981  -2.699  1.00  0.00     0.468 C 
ENDBRANCH   5   6
ENDBRANCH   1   5
TORSDOF 3
ENDMDL
MODEL 2
REMARK VINA RESULT:      -7.8      1.324      1.719
REMARK SMILES CC(=O)CCc1ccc2c(c1)OCO2
REMARK SMILES IDX 4 1 2 2 1 3 3 4 5 5 6 6 7 7 11 8 8 9 10 10 9 11 12 12 14 13
REMARK SMILES IDX 13 14
REMARK H PARENT
REMARK Flexibility Score: inf
ROOT
ATOM      1  C   UNL     1       5.775   1.189   0.270  1.00  0.00     0.080 C 
ENDROOT
BRANCH   1   2
ATOM      2  C   UNL     1       5.429   2.633   0.392  1.00  0.00     0.130 C 
ATOM      3  C   UNL     1       6.473   3.670   0.611  1.00  0.00     0.087 C 
ATOM      4  O   UNL     1       4.271   3.009   0.315  1.00  0.00    -0.300 OA
ENDBRANCH   1   2
BRANCH   1   5
ATOM      5  C   UNL     1       6.052   0.809  -1.171  1.00  0.00     0.043 C 
BRANCH   5   6
ATOM      6  C   UNL     1       7.368   0.162  -1.322  1.00  0.00    -0.044 A 
ATOM      7  C   UNL     1       8.541   0.770  -0.861  1.00  0.00     0.008 A 
ATOM      8  C   UNL     1       7.456  -1.070  -1.928  1.00  0.00     0.054 A 
ATOM      9  C   UNL     1       9.747   0.115  -1.030  1.00  0.00     0.051 A 
ATOM     10  C   UNL     1       8.678  -1.729  -2.096  1.00  0.00     0.166 A 
ATOM     11  C   UNL     1       9.833  -1.131  -1.643  1.00  0.00     0.165 A 
ATOM     12  O   UNL     1       9.023  -2.939  -2.658  1.00  0.00    -0.454 OA
ATOM     13  O   UNL     1      10.874  -1.996  -1.939  1.00  0.00    -0.454 OA
ATOM     14  C   UNL     1      10.395  -3.195  -2.500  1.00  0.00     0.468 C 
ENDBRANCH   5   6
ENDBRANCH   1   5
TORSDOF 3
ENDMDL
MODEL 3
REMARK VINA RESULT:      -7.7      2.125      2.585
REMARK SMILES CC(=O)CCc1ccc2c(c1)OCO2
REMARK SMILES IDX 4 1 2 2 1 3 3 4 5 5 6 6 7 7 11 8 8 9 10 10 9 11 12 12 14 13
REMARK SMILES IDX 13 14
REMARK H PARENT
REMARK Flexibility Score: inf
ROOT
ATOM      1  C   UNL     1       5.686   1.175  -0.367  1.00  0.00     0.080 C 
ENDROOT
BRANCH   1   2
ATOM      2  C   UNL     1       5.308   2.305   0.528  1.00  0.00     0.130 C 
ATOM      3  C   UNL     1       6.078   3.577   0.546  1.00  0.00     0.087 C 
ATOM      4  O   UNL     1       4.348   2.217   1.277  1.00  0.00    -0.300 OA
ENDBRANCH   1   2
BRANCH   1   5
ATOM      5  C   UNL     1       6.364   0.063   0.408  1.00  0.00     0.043 C 
BRANCH   5   6
ATOM      6  C   UNL     1       7.792  -0.053   0.060  1.00  0.00    -0.044 A 
ATOM      7  C   UNL     1       8.402   0.833  -0.835  1.00  0.00     0.008 A 
ATOM      8  C   UNL     1       8.553  -1.051   0.625  1.00  0.00     0.054 A 
ATOM      9  C   UNL     1       9.746   0.676  -1.123  1.00  0.00     0.051 A 
ATOM     10  C   UNL     1       9.911  -1.205   0.332  1.00  0.00     0.166 A 
ATOM     11  C   UNL     1      10.512  -0.335  -0.550  1.00  0.00     0.165 A 
ATOM     12  O   UNL     1      10.868  -2.103   0.755  1.00  0.00    -0.454 OA
ATOM     13  O   UNL     1      11.840  -0.720  -0.650  1.00  0.00    -0.454 OA
ATOM     14  C   UNL     1      12.130  -1.780   0.230  1.00  0.00     0.468 C 
ENDBRANCH   5   6
ENDBRANCH   1   5
TORSDOF 3
ENDMDL
MODEL 4
REMARK VINA RESULT:      -7.7      1.249      1.854
REMARK SMILES CC(=O)CCc1ccc2c(c1)OCO2
REMARK SMILES IDX 4 1 2 2 1 3 3 4 5 5 6 6 7 7 11 8 8 9 10 10 9 11 12 12 14 13
REMARK SMILES IDX 13 14
REMARK H PARENT
REMARK Flexibility Score: inf
ROOT
ATOM      1  C   UNL     1       5.577   2.331  -0.429  1.00  0.00     0.080 C 
ENDROOT
BRANCH   1   2
ATOM      2  C   UNL     1       6.078   3.190   0.680  1.00  0.00     0.130 C 
ATOM      3  C   UNL     1       6.835   4.443   0.417  1.00  0.00     0.087 C 
ATOM      4  O   UNL     1       5.880   2.887   1.846  1.00  0.00    -0.300 OA
ENDBRANCH   1   2
BRANCH   1   5
ATOM      5  C   UNL     1       5.712   0.860  -0.089  1.00  0.00     0.043 C 
BRANCH   5   6
ATOM      6  C   UNL     1       6.939   0.277  -0.662  1.00  0.00    -0.044 A 
ATOM      7  C   UNL     1       8.148   0.981  -0.673  1.00  0.00     0.008 A 
ATOM      8  C   UNL     1       6.906  -0.989  -1.200  1.00  0.00     0.054 A 
ATOM      9  C   UNL     1       9.267   0.383  -1.223  1.00  0.00     0.051 A 
ATOM     10  C   UNL     1       8.040  -1.590  -1.754  1.00  0.00     0.166 A 
ATOM     11  C   UNL     1       9.230  -0.898  -1.767  1.00  0.00     0.165 A 
ATOM     12  O   UNL     1       8.261  -2.817  -2.342  1.00  0.00    -0.454 OA
ATOM     13  O   UNL     1      10.168  -1.724  -2.367  1.00  0.00    -0.454 OA
ATOM     14  C   UNL     1       9.618  -2.984  -2.665  1.00  0.00     0.468 C 
ENDBRANCH   5   6
ENDBRANCH   1   5
TORSDOF 3
ENDMDL
MODEL 5
REMARK VINA RESULT:      -7.7      1.116      1.779
REMARK SMILES CC(=O)CCc1ccc2c(c1)OCO2
REMARK SMILES IDX 4 1 2 2 1 3 3 4 5 5 6 6 7 7 11 8 8 9 10 10 9 11 12 12 14 13
REMARK SMILES IDX 13 14
REMARK H PARENT
REMARK Flexibility Score: inf
ROOT
ATOM      1  C   UNL     1       5.882   1.250  -0.312  1.00  0.00     0.080 C 
ENDROOT
BRANCH   1   2
ATOM      2  C   UNL     1       5.284   1.091   1.043  1.00  0.00     0.130 C 
ATOM      3  C   UNL     1       5.590  -0.087   1.899  1.00  0.00     0.087 C 
ATOM      4  O   UNL     1       4.519   1.930   1.493  1.00  0.00    -0.300 OA
ENDBRANCH   1   2
BRANCH   1   5
ATOM      5  C   UNL     1       7.396   1.252  -0.248  1.00  0.00     0.043 C 
BRANCH   5   6
ATOM      6  C   UNL     1       7.979   0.160  -1.048  1.00  0.00    -0.044 A 
ATOM      7  C   UNL     1       7.436  -0.213  -2.283  1.00  0.00     0.008 A 
ATOM      8  C   UNL     1       9.084  -0.514  -0.581  1.00  0.00     0.054 A 
ATOM      9  C   UNL     1       8.026  -1.245  -2.991  1.00  0.00     0.051 A 
ATOM     10  C   UNL     1       9.677  -1.556  -1.300  1.00  0.00     0.166 A 
ATOM     11  C   UNL     1       9.143  -1.925  -2.515  1.00  0.00     0.165 A 
ATOM     12  O   UNL     1      10.762  -2.369  -1.053  1.00  0.00    -0.454 OA
ATOM     13  O   UNL     1       9.921  -2.967  -2.994  1.00  0.00    -0.454 OA
ATOM     14  C   UNL     1      11.013  -3.220  -2.142  1.00  0.00     0.468 C 
ENDBRANCH   5   6
ENDBRANCH   1   5
TORSDOF 3
ENDMDL
