@<TRIPOS>MOLECULE
/home/cewinharhar/GITHUB/reincatalyze/data/processed/docking_pred/2023-May-22-1902_sub9_nm5_bs15_s42_ex16_mel10_mts1000_k50_ec02_g099_lra9e-4_lrc1e-3/8a11bcf53d23875e79cb17a52aa7b3de0dc85e7d_ligand_9.pdbqt
 14 15 0 0 0
SMALL
GASTEIGER

@<TRIPOS>ATOM
      1  C          5.8470    1.6050    0.8760 C.3     1  UNL1        0.0800
      2  C          5.4010    0.5880    1.8680 C.2     1  UNL1        0.1300
      3  C          6.2510   -0.5790    2.2260 C.3     1  UNL1        0.0870
      4  O          4.3160    0.6840    2.4190 O.2     1  UNL1       -0.3000
      5  C          5.7590    1.0690   -0.5390 C.3     1  UNL1        0.0430
      6  C          7.0100    0.4110   -0.9540 C.2     1  UNL1       -0.0440
      7  C          8.2570    1.0140   -0.7530 C.2     1  UNL1        0.0080
      8  C          6.9640   -0.8280   -1.5510 C.2     1  UNL1        0.0540
      9  C          9.3980    0.3480   -1.1620 C.2     1  UNL1        0.0510
     10  C          8.1210   -1.4970   -1.9620 C.2     1  UNL1        0.1660
     11  C          9.3480   -0.9040   -1.7660 C.2     1  UNL1        0.1650
     12  O          8.3350   -2.7160   -2.5700 O.2     1  UNL1       -0.4540
     13  O         10.3010   -1.7800   -2.2620 O.2     1  UNL1       -0.4540
     14  C          9.7090   -2.9810   -2.6990 C.3     1  UNL1        0.4680
@<TRIPOS>BOND
     1    14    12    1
     2    14    13    1
     3    12    10    1
     4    13    11    1
     5    10    11    2
     6    10     8    1
     7    11     9    1
     8     8     6    2
     9     9     7    2
    10     6     7    1
    11     6     5    1
    12     5     1    1
    13     1     2    1
    14     2     3    1
    15     2     4    2
