@<TRIPOS>MOLECULE
/home/cewinharhar/GITHUB/reincatalyze/data/processed/docking_pred/2023-May-22-1902_sub9_nm5_bs15_s42_ex16_mel10_mts1000_k50_ec02_g099_lra9e-4_lrc1e-3/8a11bcf53d23875e79cb17a52aa7b3de0dc85e7d_ligand_9.pdbqt
 14 15 0 0 0
SMALL
GASTEIGER

@<TRIPOS>ATOM
      1  C          5.8820    1.2500   -0.3120 C.3     1  UNL1        0.0800
      2  C          5.2840    1.0910    1.0430 C.2     1  UNL1        0.1300
      3  C          5.5900   -0.0870    1.8990 C.3     1  UNL1        0.0870
      4  O          4.5190    1.9300    1.4930 O.2     1  UNL1       -0.3000
      5  C          7.3960    1.2520   -0.2480 C.3     1  UNL1        0.0430
      6  C          7.9790    0.1600   -1.0480 C.2     1  UNL1       -0.0440
      7  C          7.4360   -0.2130   -2.2830 C.2     1  UNL1        0.0080
      8  C          9.0840   -0.5140   -0.5810 C.2     1  UNL1        0.0540
      9  C          8.0260   -1.2450   -2.9910 C.2     1  UNL1        0.0510
     10  C          9.6770   -1.5560   -1.3000 C.2     1  UNL1        0.1660
     11  C          9.1430   -1.9250   -2.5150 C.2     1  UNL1        0.1650
     12  O         10.7620   -2.3690   -1.0530 O.2     1  UNL1       -0.4540
     13  O          9.9210   -2.9670   -2.9940 O.2     1  UNL1       -0.4540
     14  C         11.0130   -3.2200   -2.1420 C.3     1  UNL1        0.4680
@<TRIPOS>BOND
     1    13    11    1
     2    13    14    1
     3     9    11    2
     4     9     7    1
     5    11    10    1
     6     7     6    2
     7    14    12    1
     8    10    12    1
     9    10     8    2
    10     6     8    1
    11     6     5    1
    12     1     5    1
    13     1     2    1
    14     2     4    2
    15     2     3    1
