@<TRIPOS>MOLECULE
/home/cewinharhar/GITHUB/reincatalyze/data/processed/docking_pred/2023-May-22-1902_sub9_nm5_bs15_s42_ex16_mel10_mts1000_k50_ec02_g099_lra9e-4_lrc1e-3/8a11bcf53d23875e79cb17a52aa7b3de0dc85e7d_ligand_9.pdbqt
 14 15 0 0 0
SMALL
GASTEIGER

@<TRIPOS>ATOM
      1  C          5.6860    1.1750   -0.3670 C.3     1  UNL1        0.0800
      2  C          5.3080    2.3050    0.5280 C.2     1  UNL1        0.1300
      3  C          6.0780    3.5770    0.5460 C.3     1  UNL1        0.0870
      4  O          4.3480    2.2170    1.2770 O.2     1  UNL1       -0.3000
      5  C          6.3640    0.0630    0.4080 C.3     1  UNL1        0.0430
      6  C          7.7920   -0.0530    0.0600 C.2     1  UNL1       -0.0440
      7  C          8.4020    0.8330   -0.8350 C.2     1  UNL1        0.0080
      8  C          8.5530   -1.0510    0.6250 C.2     1  UNL1        0.0540
      9  C          9.7460    0.6760   -1.1230 C.2     1  UNL1        0.0510
     10  C          9.9110   -1.2050    0.3320 C.2     1  UNL1        0.1660
     11  C         10.5120   -0.3350   -0.5500 C.2     1  UNL1        0.1650
     12  O         10.8680   -2.1030    0.7550 O.2     1  UNL1       -0.4540
     13  O         11.8400   -0.7200   -0.6500 O.2     1  UNL1       -0.4540
     14  C         12.1300   -1.7800    0.2300 C.3     1  UNL1        0.4680
@<TRIPOS>BOND
     1     9     7    1
     2     9    11    2
     3     7     6    2
     4    13    11    1
     5    13    14    1
     6    11    10    1
     7     1     5    1
     8     1     2    1
     9     6     5    1
    10     6     8    1
    11    14    12    1
    12    10     8    2
    13    10    12    1
    14     2     3    1
    15     2     4    2
