@<TRIPOS>MOLECULE
/home/cewinharhar/GITHUB/reincatalyze/data/processed/docking_pred/2023-May-22-1902_sub9_nm5_bs15_s42_ex16_mel10_mts1000_k50_ec02_g099_lra9e-4_lrc1e-3/8c75984685002de52dc1feb6518b36ce8b766619_ligand_9.pdbqt
 14 15 0 0 0
SMALL
GASTEIGER

@<TRIPOS>ATOM
      1  C          6.2200    0.8520    1.0620 C.3     1  UNL1        0.0800
      2  C          5.0380    1.7510    0.9440 C.2     1  UNL1        0.1300
      3  C          4.8620    2.6610   -0.2200 C.3     1  UNL1        0.0870
      4  O          4.1740    1.7660    1.8050 O.2     1  UNL1       -0.3000
      5  C          7.1940    1.0710   -0.0790 C.3     1  UNL1        0.0430
      6  C          7.5730   -0.1980   -0.7260 C.2     1  UNL1       -0.0440
      7  C          7.6370   -0.3200   -2.1180 C.2     1  UNL1        0.0080
      8  C          7.8750   -1.2950    0.0490 C.2     1  UNL1        0.0540
      9  C          8.0000   -1.5360   -2.6690 C.2     1  UNL1        0.0510
     10  C          8.2410   -2.5220   -0.5130 C.2     1  UNL1        0.1660
     11  C          8.3040   -2.6430   -1.8830 C.2     1  UNL1        0.1650
     12  O          8.5830   -3.7410    0.0340 O.2     1  UNL1       -0.4540
     13  O          8.6870   -3.9480   -2.1520 O.2     1  UNL1       -0.4540
     14  C          8.9620   -4.6520   -0.9650 C.3     1  UNL1        0.4680
@<TRIPOS>BOND
     1     9     7    1
     2     9    11    2
     3    13    11    1
     4    13    14    1
     5     7     6    2
     6    11    10    1
     7    14    12    1
     8     6     5    1
     9     6     8    1
    10    10    12    1
    11    10     8    2
    12     3     2    1
    13     5     1    1
    14     2     1    1
    15     2     4    2
