@<TRIPOS>MOLECULE
/home/cewinharhar/GITHUB/reincatalyze/data/processed/docking_pred/2023-May-22-1902_sub9_nm5_bs15_s42_ex16_mel10_mts1000_k50_ec02_g099_lra9e-4_lrc1e-3/8f258178c278a1f8efc989ef7d8625b520fa90c8_ligand_9.pdbqt
 14 15 0 0 0
SMALL
GASTEIGER

@<TRIPOS>ATOM
      1  C          5.4830    1.9310    1.2600 C.3     1  UNL1        0.0800
      2  C          5.0080    0.7190    1.9850 C.2     1  UNL1        0.1300
      3  C          5.8590   -0.4930    2.1200 C.3     1  UNL1        0.0870
      4  O          3.8980    0.6860    2.4910 O.2     1  UNL1       -0.3000
      5  C          5.3710    1.7540   -0.2410 C.3     1  UNL1        0.0430
      6  C          6.5400    1.0470   -0.7960 C.2     1  UNL1       -0.0440
      7  C          7.8470    1.4720   -0.5320 C.2     1  UNL1        0.0080
      8  C          6.3520   -0.0610   -1.5910 C.2     1  UNL1        0.0540
      9  C          8.9040    0.7680   -1.0800 C.2     1  UNL1        0.0510
     10  C          7.4250   -0.7690   -2.1420 C.2     1  UNL1        0.1660
     11  C          8.7110   -0.3510   -1.8840 C.2     1  UNL1        0.1650
     12  O          7.4990   -1.8820   -2.9520 O.2     1  UNL1       -0.4540
     13  O          9.5570   -1.2250   -2.5470 O.2     1  UNL1       -0.4540
     14  C          8.8340   -2.2650   -3.1620 C.3     1  UNL1        0.4680
@<TRIPOS>BOND
     1    14    12    1
     2    14    13    1
     3    12    10    1
     4    13    11    1
     5    10    11    2
     6    10     8    1
     7    11     9    1
     8     8     6    2
     9     9     7    2
    10     6     7    1
    11     6     5    1
    12     5     1    1
    13     1     2    1
    14     2     3    1
    15     2     4    2
