@<TRIPOS>MOLECULE
/home/cewinharhar/GITHUB/reincatalyze/data/processed/docking_pred/2023-May-22-1902_sub9_nm5_bs15_s42_ex16_mel10_mts1000_k50_ec02_g099_lra9e-4_lrc1e-3/8f258178c278a1f8efc989ef7d8625b520fa90c8_ligand_9.pdbqt
 14 15 0 0 0
SMALL
GASTEIGER

@<TRIPOS>ATOM
      1  C          5.7160    1.3340   -0.2930 C.3     1  UNL1        0.0800
      2  C          5.0530    1.2470    1.0370 C.2     1  UNL1        0.1300
      3  C          5.2570    0.0800    1.9370 C.3     1  UNL1        0.0870
      4  O          4.3160    2.1370    1.4300 O.2     1  UNL1       -0.3000
      5  C          7.2060    1.0780   -0.1830 C.3     1  UNL1        0.0430
      6  C          7.5890   -0.2010   -0.8060 C.2     1  UNL1       -0.0440
      7  C          7.6620   -0.3470   -2.1960 C.2     1  UNL1        0.0080
      8  C          7.8860   -1.2850   -0.0110 C.2     1  UNL1        0.0540
      9  C          8.0280   -1.5720   -2.7240 C.2     1  UNL1        0.0510
     10  C          8.2550   -2.5210   -0.5500 C.2     1  UNL1        0.1660
     11  C          8.3270   -2.6660   -1.9180 C.2     1  UNL1        0.1650
     12  O          8.5930   -3.7310    0.0190 O.2     1  UNL1       -0.4540
     13  O          8.7110   -3.9740   -2.1630 O.2     1  UNL1       -0.4540
     14  C          8.9790   -4.6590   -0.9620 C.3     1  UNL1        0.4680
@<TRIPOS>BOND
     1     9     7    1
     2     9    11    2
     3     7     6    2
     4    13    11    1
     5    13    14    1
     6    11    10    1
     7    14    12    1
     8     6     5    1
     9     6     8    1
    10    10     8    2
    11    10    12    1
    12     1     5    1
    13     1     2    1
    14     2     4    2
    15     2     3    1
