@<TRIPOS>MOLECULE
/home/cewinharhar/GITHUB/reincatalyze/data/processed/docking_pred/2023-May-22-1902_sub9_nm5_bs15_s42_ex16_mel10_mts1000_k50_ec02_g099_lra9e-4_lrc1e-3/8f258178c278a1f8efc989ef7d8625b520fa90c8_ligand_9.pdbqt
 14 15 0 0 0
SMALL
GASTEIGER

@<TRIPOS>ATOM
      1  C          5.4060    2.9560    0.1230 C.3     1  UNL1        0.0800
      2  C          6.2710    3.8350    0.9580 C.2     1  UNL1        0.1300
      3  C          7.2490    4.7750    0.3470 C.3     1  UNL1        0.0870
      4  O          6.2030    3.8080    2.1760 O.2     1  UNL1       -0.3000
      5  C          5.0970    1.6520    0.8330 C.3     1  UNL1        0.0430
      6  C          5.9200    0.5420    0.3210 C.2     1  UNL1       -0.0440
      7  C          6.2150   -0.5760    1.1080 C.2     1  UNL1        0.0080
      8  C          6.4140    0.5960   -0.9630 C.2     1  UNL1        0.0540
      9  C          6.9920   -1.5880    0.5730 C.2     1  UNL1        0.0510
     10  C          7.1980   -0.4300   -1.5000 C.2     1  UNL1        0.1660
     11  C          7.4900   -1.5300   -0.7250 C.2     1  UNL1        0.1650
     12  O          7.7990   -0.6090   -2.7280 O.2     1  UNL1       -0.4540
     13  O          8.2710   -2.3720   -1.5020 O.2     1  UNL1       -0.4540
     14  C          8.4150   -1.8680   -2.8090 C.3     1  UNL1        0.4680
@<TRIPOS>BOND
     1    14    12    1
     2    14    13    1
     3    12    10    1
     4    13    11    1
     5    10     8    1
     6    10    11    2
     7     8     6    2
     8    11     9    1
     9     1     5    1
    10     1     2    1
    11     6     5    1
    12     6     7    1
    13     3     2    1
    14     9     7    2
    15     2     4    2
