@<TRIPOS>MOLECULE
/home/cewinharhar/GITHUB/reincatalyze/data/processed/docking_pred/2023-May-22-1902_sub9_nm5_bs15_s42_ex16_mel10_mts1000_k50_ec02_g099_lra9e-4_lrc1e-3/8f3f3cc121b2e0b9b67c9595347d7d2b0dd21437_ligand_9.pdbqt
 14 15 0 0 0
SMALL
GASTEIGER

@<TRIPOS>ATOM
      1  C          6.0610    3.3300    0.0740 C.3     1  UNL1        0.0800
      2  C          6.5910    3.8040    1.3830 C.2     1  UNL1        0.1300
      3  C          7.9780    3.4970    1.8210 C.3     1  UNL1        0.0870
      4  O          5.8950    4.4630    2.1390 O.2     1  UNL1       -0.3000
      5  C          5.0320    2.2330    0.2610 C.3     1  UNL1        0.0430
      6  C          5.6600    0.9520    0.6310 C.2     1  UNL1       -0.0440
      7  C          5.3790    0.3220    1.8480 C.2     1  UNL1        0.0080
      8  C          6.5440    0.3510   -0.2360 C.2     1  UNL1        0.0540
      9  C          5.9980   -0.8800    2.1410 C.2     1  UNL1        0.0510
     10  C          7.1670   -0.8640    0.0640 C.2     1  UNL1        0.1660
     11  C          6.8920   -1.4840    1.2630 C.2     1  UNL1        0.1650
     12  O          8.0700   -1.6510   -0.6190 O.2     1  UNL1       -0.4540
     13  O          7.6380   -2.6520    1.2900 O.2     1  UNL1       -0.4540
     14  C          8.3290   -2.8430    0.0790 C.3     1  UNL1        0.4680
@<TRIPOS>BOND
     1    12    10    1
     2    12    14    1
     3     8    10    1
     4     8     6    2
     5    10    11    2
     6     1     5    1
     7     1     2    1
     8    14    13    1
     9     5     6    1
    10     6     7    1
    11    11    13    1
    12    11     9    1
    13     2     3    1
    14     2     4    2
    15     7     9    2
