@<TRIPOS>MOLECULE
/home/cewinharhar/GITHUB/reincatalyze/data/processed/docking_pred/2023-May-22-1902_sub9_nm5_bs15_s42_ex16_mel10_mts1000_k50_ec02_g099_lra9e-4_lrc1e-3/8f7c925e970cb887b69f6e81c5db99fda922d0ae_ligand_9.pdbqt
 14 15 0 0 0
SMALL
GASTEIGER

@<TRIPOS>ATOM
      1  C          5.3830    2.9650    0.1410 C.3     1  UNL1        0.0800
      2  C          6.2890    3.8120    0.9660 C.2     1  UNL1        0.1300
      3  C          7.2390    4.7740    0.3460 C.3     1  UNL1        0.0870
      4  O          6.2770    3.7400    2.1840 O.2     1  UNL1       -0.3000
      5  C          5.1140    1.6320    0.8100 C.3     1  UNL1        0.0430
      6  C          5.9580    0.5600    0.2520 C.2     1  UNL1       -0.0440
      7  C          6.3370    0.5520   -1.0950 C.2     1  UNL1        0.0080
      8  C          6.3910   -0.4610    1.0670 C.2     1  UNL1        0.0540
      9  C          7.1300   -0.4790   -1.5630 C.2     1  UNL1        0.0510
     10  C          7.1930   -1.5010    0.5890 C.2     1  UNL1        0.1660
     11  C          7.5660   -1.5110   -0.7360 C.2     1  UNL1        0.1650
     12  O          7.7440   -2.6140    1.1880 O.2     1  UNL1       -0.4540
     13  O          8.3470   -2.6400   -0.9260 O.2     1  UNL1       -0.4540
     14  C          8.5600   -3.3200    0.2890 C.3     1  UNL1        0.4680
@<TRIPOS>BOND
     1     9     7    1
     2     9    11    2
     3     7     6    2
     4    13    11    1
     5    13    14    1
     6    11    10    1
     7     1     5    1
     8     1     2    1
     9     6     5    1
    10     6     8    1
    11    14    12    1
    12     3     2    1
    13    10     8    2
    14    10    12    1
    15     2     4    2
