MODEL 1
REMARK VINA RESULT:      -7.8      0.000      0.000
REMARK SMILES CC(=O)CCc1ccc2c(c1)OCO2
REMARK SMILES IDX 4 1 2 2 1 3 3 4 5 5 6 6 7 7 11 8 8 9 10 10 9 11 12 12 14 13
REMARK SMILES IDX 13 14
REMARK H PARENT
REMARK Flexibility Score: inf
ROOT
ATOM      1  C   UNL     1       5.512   2.861   0.152  1.00  0.00     0.080 C 
ENDROOT
BRANCH   1   2
ATOM      2  C   UNL     1       6.289   3.845   0.957  1.00  0.00     0.130 C 
ATOM      3  C   UNL     1       7.263   4.774   0.324  1.00  0.00     0.087 C 
ATOM      4  O   UNL     1       6.147   3.916   2.167  1.00  0.00    -0.300 OA
ENDBRANCH   1   2
BRANCH   1   5
ATOM      5  C   UNL     1       5.294   1.572   0.920  1.00  0.00     0.043 C 
BRANCH   5   6
ATOM      6  C   UNL     1       6.098   0.466   0.371  1.00  0.00    -0.044 A 
ATOM      7  C   UNL     1       6.433  -0.651   1.144  1.00  0.00     0.008 A 
ATOM      8  C   UNL     1       6.532   0.521  -0.934  1.00  0.00     0.054 A 
ATOM      9  C   UNL     1       7.190  -1.659   0.574  1.00  0.00     0.051 A 
ATOM     10  C   UNL     1       7.296  -0.501  -1.506  1.00  0.00     0.166 A 
ATOM     11  C   UNL     1       7.627  -1.600  -0.745  1.00  0.00     0.165 A 
ATOM     12  O   UNL     1       7.840  -0.679  -2.760  1.00  0.00    -0.454 OA
ATOM     13  O   UNL     1       8.376  -2.439  -1.557  1.00  0.00    -0.454 OA
ATOM     14  C   UNL     1       8.458  -1.935  -2.869  1.00  0.00     0.468 C 
ENDBRANCH   5   6
ENDBRANCH   1   5
TORSDOF 3
ENDMDL
MODEL 2
REMARK VINA RESULT:      -7.8      1.004      1.979
REMARK SMILES CC(=O)CCc1ccc2c(c1)OCO2
REMARK SMILES IDX 4 1 2 2 1 3 3 4 5 5 6 6 7 7 11 8 8 9 10 10 9 11 12 12 14 13
REMARK SMILES IDX 13 14
REMARK H PARENT
REMARK Flexibility Score: inf
ROOT
ATOM      1  C   UNL     1       5.376   3.023   0.072  1.00  0.00     0.080 C 
ENDROOT
BRANCH   1   2
ATOM      2  C   UNL     1       6.361   3.706   0.957  1.00  0.00     0.130 C 
ATOM      3  C   UNL     1       7.262   4.773   0.445  1.00  0.00     0.087 C 
ATOM      4  O   UNL     1       6.459   3.405   2.136  1.00  0.00    -0.300 OA
ENDBRANCH   1   2
BRANCH   1   5
ATOM      5  C   UNL     1       4.996   1.661   0.619  1.00  0.00     0.043 C 
BRANCH   5   6
ATOM      6  C   UNL     1       5.885   0.601   0.111  1.00  0.00    -0.044 A 
ATOM      7  C   UNL     1       6.353   0.607  -1.208  1.00  0.00     0.008 A 
ATOM      8  C   UNL     1       6.273  -0.422   0.946  1.00  0.00     0.054 A 
ATOM      9  C   UNL     1       7.186  -0.414  -1.629  1.00  0.00     0.051 A 
ATOM     10  C   UNL     1       7.116  -1.451   0.516  1.00  0.00     0.166 A 
ATOM     11  C   UNL     1       7.576  -1.447  -0.782  1.00  0.00     0.165 A 
ATOM     12  O   UNL     1       7.637  -2.563   1.143  1.00  0.00    -0.454 OA
ATOM     13  O   UNL     1       8.378  -2.568  -0.926  1.00  0.00    -0.454 OA
ATOM     14  C   UNL     1       8.518  -3.254   0.295  1.00  0.00     0.468 C 
ENDBRANCH   5   6
ENDBRANCH   1   5
TORSDOF 3
ENDMDL
MODEL 3
REMARK VINA RESULT:      -7.7      1.900      2.645
REMARK SMILES CC(=O)CCc1ccc2c(c1)OCO2
REMARK SMILES IDX 4 1 2 2 1 3 3 4 5 5 6 6 7 7 11 8 8 9 10 10 9 11 12 12 14 13
REMARK SMILES IDX 13 14
REMARK H PARENT
REMARK Flexibility Score: inf
ROOT
ATOM      1  C   UNL     1       5.543   1.924   1.269  1.00  0.00     0.080 C 
ENDROOT
BRANCH   1   2
ATOM      2  C   UNL     1       5.126   0.702   2.013  1.00  0.00     0.130 C 
ATOM      3  C   UNL     1       6.040  -0.459   2.182  1.00  0.00     0.087 C 
ATOM      4  O   UNL     1       4.013   0.619   2.507  1.00  0.00    -0.300 OA
ENDBRANCH   1   2
BRANCH   1   5
ATOM      5  C   UNL     1       5.412   1.728  -0.228  1.00  0.00     0.043 C 
BRANCH   5   6
ATOM      6  C   UNL     1       6.578   1.025  -0.792  1.00  0.00    -0.044 A 
ATOM      7  C   UNL     1       7.886   1.451  -0.534  1.00  0.00     0.008 A 
ATOM      8  C   UNL     1       6.388  -0.080  -1.590  1.00  0.00     0.054 A 
ATOM      9  C   UNL     1       8.942   0.751  -1.090  1.00  0.00     0.051 A 
ATOM     10  C   UNL     1       7.459  -0.785  -2.148  1.00  0.00     0.166 A 
ATOM     11  C   UNL     1       8.746  -0.365  -1.896  1.00  0.00     0.165 A 
ATOM     12  O   UNL     1       7.530  -1.896  -2.962  1.00  0.00    -0.454 OA
ATOM     13  O   UNL     1       9.590  -1.237  -2.567  1.00  0.00    -0.454 OA
ATOM     14  C   UNL     1       8.865  -2.275  -3.181  1.00  0.00     0.468 C 
ENDBRANCH   5   6
ENDBRANCH   1   5
TORSDOF 3
ENDMDL
MODEL 4
REMARK VINA RESULT:      -7.5      1.957      2.986
REMARK SMILES CC(=O)CCc1ccc2c(c1)OCO2
REMARK SMILES IDX 4 1 2 2 1 3 3 4 5 5 6 6 7 7 11 8 8 9 10 10 9 11 12 12 14 13
REMARK SMILES IDX 13 14
REMARK H PARENT
REMARK Flexibility Score: inf
ROOT
ATOM      1  C   UNL     1       5.780   1.391  -0.338  1.00  0.00     0.080 C 
ENDROOT
BRANCH   1   2
ATOM      2  C   UNL     1       5.137   1.321   1.004  1.00  0.00     0.130 C 
ATOM      3  C   UNL     1       5.421   0.208   1.949  1.00  0.00     0.087 C 
ATOM      4  O   UNL     1       4.351   2.181   1.368  1.00  0.00    -0.300 OA
ENDBRANCH   1   2
BRANCH   1   5
ATOM      5  C   UNL     1       7.270   1.124  -0.248  1.00  0.00     0.043 C 
BRANCH   5   6
ATOM      6  C   UNL     1       7.631  -0.170  -0.853  1.00  0.00    -0.044 A 
ATOM      7  C   UNL     1       7.696  -0.337  -2.241  1.00  0.00     0.008 A 
ATOM      8  C   UNL     1       7.915  -1.246  -0.043  1.00  0.00     0.054 A 
ATOM      9  C   UNL     1       8.041  -1.575  -2.752  1.00  0.00     0.051 A 
ATOM     10  C   UNL     1       8.264  -2.495  -0.565  1.00  0.00     0.166 A 
ATOM     11  C   UNL     1       8.328  -2.661  -1.931  1.00  0.00     0.165 A 
ATOM     12  O   UNL     1       8.586  -3.701   0.020  1.00  0.00    -0.454 OA
ATOM     13  O   UNL     1       8.692  -3.979  -2.158  1.00  0.00    -0.454 OA
ATOM     14  C   UNL     1       8.954  -4.650  -0.949  1.00  0.00     0.468 C 
ENDBRANCH   5   6
ENDBRANCH   1   5
TORSDOF 3
ENDMDL
MODEL 5
REMARK VINA RESULT:      -7.4      1.846      2.783
REMARK SMILES CC(=O)CCc1ccc2c(c1)OCO2
REMARK SMILES IDX 4 1 2 2 1 3 3 4 5 5 6 6 7 7 11 8 8 9 10 10 9 11 12 12 14 13
REMARK SMILES IDX 13 14
REMARK H PARENT
REMARK Flexibility Score: inf
ROOT
ATOM      1  C   UNL     1       6.405   0.988   1.115  1.00  0.00     0.080 C 
ENDROOT
BRANCH   1   2
ATOM      2  C   UNL     1       5.149   1.765   0.925  1.00  0.00     0.130 C 
ATOM      3  C   UNL     1       4.902   2.560  -0.308  1.00  0.00     0.087 C 
ATOM      4  O   UNL     1       4.280   1.773   1.782  1.00  0.00    -0.300 OA
ENDBRANCH   1   2
BRANCH   1   5
ATOM      5  C   UNL     1       7.335   1.145  -0.072  1.00  0.00     0.043 C 
BRANCH   5   6
ATOM      6  C   UNL     1       7.634  -0.151  -0.707  1.00  0.00    -0.044 A 
ATOM      7  C   UNL     1       7.583  -0.316  -2.095  1.00  0.00     0.008 A 
ATOM      8  C   UNL     1       7.976  -1.231   0.075  1.00  0.00     0.054 A 
ATOM      9  C   UNL     1       7.875  -1.556  -2.635  1.00  0.00     0.051 A 
ATOM     10  C   UNL     1       8.271  -2.482  -0.475  1.00  0.00     0.166 A 
ATOM     11  C   UNL     1       8.220  -2.645  -1.841  1.00  0.00     0.165 A 
ATOM     12  O   UNL     1       8.631  -3.691   0.080  1.00  0.00    -0.454 OA
ATOM     13  O   UNL     1       8.554  -3.966  -2.100  1.00  0.00    -0.454 OA
ATOM     14  C   UNL     1       8.910  -4.641  -0.917  1.00  0.00     0.468 C 
ENDBRANCH   5   6
ENDBRANCH   1   5
TORSDOF 3
ENDMDL
