@<TRIPOS>MOLECULE
/home/cewinharhar/GITHUB/reincatalyze/data/processed/docking_pred/2023-May-22-1902_sub9_nm5_bs15_s42_ex16_mel10_mts1000_k50_ec02_g099_lra9e-4_lrc1e-3/8f7e92428ebbeefdf44ae8ea1c0956f20f305f25_ligand_9.pdbqt
 14 15 0 0 0
SMALL
GASTEIGER

@<TRIPOS>ATOM
      1  C          6.4050    0.9880    1.1150 C.3     1  UNL1        0.0800
      2  C          5.1490    1.7650    0.9250 C.2     1  UNL1        0.1300
      3  C          4.9020    2.5600   -0.3080 C.3     1  UNL1        0.0870
      4  O          4.2800    1.7730    1.7820 O.2     1  UNL1       -0.3000
      5  C          7.3350    1.1450   -0.0720 C.3     1  UNL1        0.0430
      6  C          7.6340   -0.1510   -0.7070 C.2     1  UNL1       -0.0440
      7  C          7.5830   -0.3160   -2.0950 C.2     1  UNL1        0.0080
      8  C          7.9760   -1.2310    0.0750 C.2     1  UNL1        0.0540
      9  C          7.8750   -1.5560   -2.6350 C.2     1  UNL1        0.0510
     10  C          8.2710   -2.4820   -0.4750 C.2     1  UNL1        0.1660
     11  C          8.2200   -2.6450   -1.8410 C.2     1  UNL1        0.1650
     12  O          8.6310   -3.6910    0.0800 O.2     1  UNL1       -0.4540
     13  O          8.5540   -3.9660   -2.1000 O.2     1  UNL1       -0.4540
     14  C          8.9100   -4.6410   -0.9170 C.3     1  UNL1        0.4680
@<TRIPOS>BOND
     1     9     7    1
     2     9    11    2
     3    13    11    1
     4    13    14    1
     5     7     6    2
     6    11    10    1
     7    14    12    1
     8     6     5    1
     9     6     8    1
    10    10     8    2
    11    10    12    1
    12     3     2    1
    13     5     1    1
    14     2     1    1
    15     2     4    2
