@<TRIPOS>MOLECULE
/home/cewinharhar/GITHUB/reincatalyze/data/processed/docking_pred/2023-May-22-1902_sub9_nm5_bs15_s42_ex16_mel10_mts1000_k50_ec02_g099_lra9e-4_lrc1e-3/91438d65c636cbfd2c8442c68b92b155f88758ee_ligand_9.pdbqt
 14 15 0 0 0
SMALL
GASTEIGER

@<TRIPOS>ATOM
      1  C          5.5450    1.9050    1.2830 C.3     1  UNL1        0.0800
      2  C          5.1180    0.6810    2.0170 C.2     1  UNL1        0.1300
      3  C          6.0250   -0.4870    2.1830 C.3     1  UNL1        0.0870
      4  O          4.0030    0.6000    2.5050 O.2     1  UNL1       -0.3000
      5  C          5.4150    1.7220   -0.2160 C.3     1  UNL1        0.0430
      6  C          6.5790    1.0190   -0.7840 C.2     1  UNL1       -0.0440
      7  C          7.8880    1.4470   -0.5320 C.2     1  UNL1        0.0080
      8  C          6.3870   -0.0860   -1.5810 C.2     1  UNL1        0.0540
      9  C          8.9420    0.7470   -1.0920 C.2     1  UNL1        0.0510
     10  C          7.4550   -0.7900   -2.1440 C.2     1  UNL1        0.1660
     11  C          8.7430   -0.3700   -1.8980 C.2     1  UNL1        0.1650
     12  O          7.5240   -1.9010   -2.9580 O.2     1  UNL1       -0.4540
     13  O          9.5850   -1.2410   -2.5720 O.2     1  UNL1       -0.4540
     14  C          8.8580   -2.2800   -3.1820 C.3     1  UNL1        0.4680
@<TRIPOS>BOND
     1    14    12    1
     2    14    13    1
     3    12    10    1
     4    13    11    1
     5    10    11    2
     6    10     8    1
     7    11     9    1
     8     8     6    2
     9     9     7    2
    10     6     7    1
    11     6     5    1
    12     5     1    1
    13     1     2    1
    14     2     3    1
    15     2     4    2
