@<TRIPOS>MOLECULE
/home/cewinharhar/GITHUB/reincatalyze/data/processed/docking_pred/2023-May-22-1902_sub9_nm5_bs15_s42_ex16_mel10_mts1000_k50_ec02_g099_lra9e-4_lrc1e-3/91438d65c636cbfd2c8442c68b92b155f88758ee_ligand_9.pdbqt
 14 15 0 0 0
SMALL
GASTEIGER

@<TRIPOS>ATOM
      1  C          5.5310    2.9060    0.0130 C.3     1  UNL1        0.0800
      2  C          6.2170    3.8570    0.9310 C.2     1  UNL1        0.1300
      3  C          7.2840    4.7750    0.4490 C.3     1  UNL1        0.0870
      4  O          5.9200    3.9120    2.1130 O.2     1  UNL1       -0.3000
      5  C          5.7420    1.4700    0.4510 C.3     1  UNL1        0.0430
      6  C          6.7980    0.8080   -0.3350 C.2     1  UNL1       -0.0440
      7  C          8.0790    1.3590   -0.4520 C.2     1  UNL1        0.0080
      8  C          6.5300   -0.3830   -0.9720 C.2     1  UNL1        0.0540
      9  C          9.0300    0.6920   -1.2020 C.2     1  UNL1        0.0510
     10  C          7.4950   -1.0530   -1.7290 C.2     1  UNL1        0.1660
     11  C          8.7560   -0.5110   -1.8450 C.2     1  UNL1        0.1650
     12  O          7.4750   -2.2300   -2.4470 O.2     1  UNL1       -0.4540
     13  O          9.4920   -1.3760   -2.6400 O.2     1  UNL1       -0.4540
     14  C          8.7460   -2.5240   -2.9680 C.3     1  UNL1        0.4680
@<TRIPOS>BOND
     1    14    13    1
     2    14    12    1
     3    13    11    1
     4    12    10    1
     5    11    10    2
     6    11     9    1
     7    10     8    1
     8     9     7    2
     9     8     6    2
    10     7     6    1
    11     6     5    1
    12     1     5    1
    13     1     2    1
    14     3     2    1
    15     2     4    2
