@<TRIPOS>MOLECULE
/home/cewinharhar/GITHUB/reincatalyze/data/processed/docking_pred/2023-May-22-1902_sub9_nm5_bs15_s42_ex16_mel10_mts1000_k50_ec02_g099_lra9e-4_lrc1e-3/91438d65c636cbfd2c8442c68b92b155f88758ee_ligand_9.pdbqt
 14 15 0 0 0
SMALL
GASTEIGER

@<TRIPOS>ATOM
      1  C          5.5220    2.8780    0.2450 C.3     1  UNL1        0.0800
      2  C          6.3290    3.8570    1.0260 C.2     1  UNL1        0.1300
      3  C          7.2960    4.7750    0.3660 C.3     1  UNL1        0.0870
      4  O          6.2190    3.9330    2.2390 O.2     1  UNL1       -0.3000
      5  C          5.3800    1.5640    0.9880 C.3     1  UNL1        0.0430
      6  C          6.1450    0.4840    0.3400 C.2     1  UNL1       -0.0440
      7  C          6.4070    0.4940   -1.0350 C.2     1  UNL1        0.0080
      8  C          6.6210   -0.5630    1.0970 C.2     1  UNL1        0.0540
      9  C          7.1320   -0.5470   -1.5870 C.2     1  UNL1        0.0510
     10  C          7.3540   -1.6120    0.5340 C.2     1  UNL1        0.1660
     11  C          7.6110   -1.6040   -0.8190 C.2     1  UNL1        0.1650
     12  O          7.9260   -2.7490    1.0640 O.2     1  UNL1       -0.4540
     13  O          8.3440   -2.7470   -1.0950 O.2     1  UNL1       -0.4540
     14  C          8.6440   -3.4550    0.0850 C.3     1  UNL1        0.4680
@<TRIPOS>BOND
     1     9     7    1
     2     9    11    2
     3    13    11    1
     4    13    14    1
     5     7     6    2
     6    11    10    1
     7    14    12    1
     8     1     5    1
     9     1     2    1
    10     6     5    1
    11     6     8    1
    12     3     2    1
    13    10    12    1
    14    10     8    2
    15     2     4    2
