MODEL 1
REMARK VINA RESULT:      -7.9      0.000      0.000
REMARK SMILES CC(=O)CCc1ccc2c(c1)OCO2
REMARK SMILES IDX 4 1 2 2 1 3 3 4 5 5 6 6 7 7 11 8 8 9 10 10 9 11 12 12 14 13
REMARK SMILES IDX 13 14
REMARK H PARENT
REMARK Flexibility Score: inf
ROOT
ATOM      1  C   UNL     1       5.438   2.920   0.081  1.00  0.00     0.080 C 
ENDROOT
BRANCH   1   2
ATOM      2  C   UNL     1       6.278   3.814   0.927  1.00  0.00     0.130 C 
ATOM      3  C   UNL     1       7.245   4.773   0.329  1.00  0.00     0.087 C 
ATOM      4  O   UNL     1       6.195   3.784   2.144  1.00  0.00    -0.300 OA
ENDBRANCH   1   2
BRANCH   1   5
ATOM      5  C   UNL     1       5.137   1.615   0.790  1.00  0.00     0.043 C 
BRANCH   5   6
ATOM      6  C   UNL     1       5.967   0.510   0.279  1.00  0.00    -0.044 A 
ATOM      7  C   UNL     1       6.274  -0.603   1.070  1.00  0.00     0.008 A 
ATOM      8  C   UNL     1       6.456   0.563  -1.007  1.00  0.00     0.054 A 
ATOM      9  C   UNL     1       7.058  -1.610   0.536  1.00  0.00     0.051 A 
ATOM     10  C   UNL     1       7.247  -0.458  -1.542  1.00  0.00     0.166 A 
ATOM     11  C   UNL     1       7.550  -1.553  -0.764  1.00  0.00     0.165 A 
ATOM     12  O   UNL     1       7.844  -0.637  -2.772  1.00  0.00    -0.454 OA
ATOM     13  O   UNL     1       8.335  -2.391  -1.541  1.00  0.00    -0.454 OA
ATOM     14  C   UNL     1       8.471  -1.892  -2.850  1.00  0.00     0.468 C 
ENDBRANCH   5   6
ENDBRANCH   1   5
TORSDOF 3
ENDMDL
MODEL 2
REMARK VINA RESULT:      -7.7      0.979      1.954
REMARK SMILES CC(=O)CCc1ccc2c(c1)OCO2
REMARK SMILES IDX 4 1 2 2 1 3 3 4 5 5 6 6 7 7 11 8 8 9 10 10 9 11 12 12 14 13
REMARK SMILES IDX 13 14
REMARK H PARENT
REMARK Flexibility Score: inf
ROOT
ATOM      1  C   UNL     1       5.522   2.878   0.245  1.00  0.00     0.080 C 
ENDROOT
BRANCH   1   2
ATOM      2  C   UNL     1       6.329   3.857   1.026  1.00  0.00     0.130 C 
ATOM      3  C   UNL     1       7.296   4.775   0.366  1.00  0.00     0.087 C 
ATOM      4  O   UNL     1       6.219   3.933   2.239  1.00  0.00    -0.300 OA
ENDBRANCH   1   2
BRANCH   1   5
ATOM      5  C   UNL     1       5.380   1.564   0.988  1.00  0.00     0.043 C 
BRANCH   5   6
ATOM      6  C   UNL     1       6.145   0.484   0.340  1.00  0.00    -0.044 A 
ATOM      7  C   UNL     1       6.407   0.494  -1.035  1.00  0.00     0.008 A 
ATOM      8  C   UNL     1       6.621  -0.563   1.097  1.00  0.00     0.054 A 
ATOM      9  C   UNL     1       7.132  -0.547  -1.587  1.00  0.00     0.051 A 
ATOM     10  C   UNL     1       7.354  -1.612   0.534  1.00  0.00     0.166 A 
ATOM     11  C   UNL     1       7.611  -1.604  -0.819  1.00  0.00     0.165 A 
ATOM     12  O   UNL     1       7.926  -2.749   1.064  1.00  0.00    -0.454 OA
ATOM     13  O   UNL     1       8.344  -2.747  -1.095  1.00  0.00    -0.454 OA
ATOM     14  C   UNL     1       8.644  -3.455   0.085  1.00  0.00     0.468 C 
ENDBRANCH   5   6
ENDBRANCH   1   5
TORSDOF 3
ENDMDL
MODEL 3
REMARK VINA RESULT:      -7.6      1.887      2.645
REMARK SMILES CC(=O)CCc1ccc2c(c1)OCO2
REMARK SMILES IDX 4 1 2 2 1 3 3 4 5 5 6 6 7 7 11 8 8 9 10 10 9 11 12 12 14 13
REMARK SMILES IDX 13 14
REMARK H PARENT
REMARK Flexibility Score: inf
ROOT
ATOM      1  C   UNL     1       5.545   1.905   1.283  1.00  0.00     0.080 C 
ENDROOT
BRANCH   1   2
ATOM      2  C   UNL     1       5.118   0.681   2.017  1.00  0.00     0.130 C 
ATOM      3  C   UNL     1       6.025  -0.487   2.183  1.00  0.00     0.087 C 
ATOM      4  O   UNL     1       4.003   0.600   2.505  1.00  0.00    -0.300 OA
ENDBRANCH   1   2
BRANCH   1   5
ATOM      5  C   UNL     1       5.415   1.722  -0.216  1.00  0.00     0.043 C 
BRANCH   5   6
ATOM      6  C   UNL     1       6.579   1.019  -0.784  1.00  0.00    -0.044 A 
ATOM      7  C   UNL     1       7.888   1.447  -0.532  1.00  0.00     0.008 A 
ATOM      8  C   UNL     1       6.387  -0.086  -1.581  1.00  0.00     0.054 A 
ATOM      9  C   UNL     1       8.942   0.747  -1.092  1.00  0.00     0.051 A 
ATOM     10  C   UNL     1       7.455  -0.790  -2.144  1.00  0.00     0.166 A 
ATOM     11  C   UNL     1       8.743  -0.370  -1.898  1.00  0.00     0.165 A 
ATOM     12  O   UNL     1       7.524  -1.901  -2.958  1.00  0.00    -0.454 OA
ATOM     13  O   UNL     1       9.585  -1.241  -2.572  1.00  0.00    -0.454 OA
ATOM     14  C   UNL     1       8.858  -2.280  -3.182  1.00  0.00     0.468 C 
ENDBRANCH   5   6
ENDBRANCH   1   5
TORSDOF 3
ENDMDL
MODEL 4
REMARK VINA RESULT:      -7.5      1.149      1.588
REMARK SMILES CC(=O)CCc1ccc2c(c1)OCO2
REMARK SMILES IDX 4 1 2 2 1 3 3 4 5 5 6 6 7 7 11 8 8 9 10 10 9 11 12 12 14 13
REMARK SMILES IDX 13 14
REMARK H PARENT
REMARK Flexibility Score: inf
ROOT
ATOM      1  C   UNL     1       5.531   2.906   0.013  1.00  0.00     0.080 C 
ENDROOT
BRANCH   1   2
ATOM      2  C   UNL     1       6.217   3.857   0.931  1.00  0.00     0.130 C 
ATOM      3  C   UNL     1       7.284   4.775   0.449  1.00  0.00     0.087 C 
ATOM      4  O   UNL     1       5.920   3.912   2.113  1.00  0.00    -0.300 OA
ENDBRANCH   1   2
BRANCH   1   5
ATOM      5  C   UNL     1       5.742   1.470   0.451  1.00  0.00     0.043 C 
BRANCH   5   6
ATOM      6  C   UNL     1       6.798   0.808  -0.335  1.00  0.00    -0.044 A 
ATOM      7  C   UNL     1       8.079   1.359  -0.452  1.00  0.00     0.008 A 
ATOM      8  C   UNL     1       6.530  -0.383  -0.972  1.00  0.00     0.054 A 
ATOM      9  C   UNL     1       9.030   0.692  -1.202  1.00  0.00     0.051 A 
ATOM     10  C   UNL     1       7.495  -1.053  -1.729  1.00  0.00     0.166 A 
ATOM     11  C   UNL     1       8.756  -0.511  -1.845  1.00  0.00     0.165 A 
ATOM     12  O   UNL     1       7.475  -2.230  -2.447  1.00  0.00    -0.454 OA
ATOM     13  O   UNL     1       9.492  -1.376  -2.640  1.00  0.00    -0.454 OA
ATOM     14  C   UNL     1       8.746  -2.524  -2.968  1.00  0.00     0.468 C 
ENDBRANCH   5   6
ENDBRANCH   1   5
TORSDOF 3
ENDMDL
MODEL 5
REMARK VINA RESULT:      -7.5      1.963      3.022
REMARK SMILES CC(=O)CCc1ccc2c(c1)OCO2
REMARK SMILES IDX 4 1 2 2 1 3 3 4 5 5 6 6 7 7 11 8 8 9 10 10 9 11 12 12 14 13
REMARK SMILES IDX 13 14
REMARK H PARENT
REMARK Flexibility Score: inf
ROOT
ATOM      1  C   UNL     1       5.743   1.319  -0.394  1.00  0.00     0.080 C 
ENDROOT
BRANCH   1   2
ATOM      2  C   UNL     1       5.143   1.342   0.969  1.00  0.00     0.130 C 
ATOM      3  C   UNL     1       5.354   0.230   1.934  1.00  0.00     0.087 C 
ATOM      4  O   UNL     1       4.456   2.282   1.335  1.00  0.00    -0.300 OA
ENDBRANCH   1   2
BRANCH   1   5
ATOM      5  C   UNL     1       7.239   1.080  -0.333  1.00  0.00     0.043 C 
BRANCH   5   6
ATOM      6  C   UNL     1       7.608  -0.223  -0.914  1.00  0.00    -0.044 A 
ATOM      7  C   UNL     1       7.658  -0.421  -2.299  1.00  0.00     0.008 A 
ATOM      8  C   UNL     1       7.916  -1.277  -0.084  1.00  0.00     0.054 A 
ATOM      9  C   UNL     1       8.012  -1.666  -2.786  1.00  0.00     0.051 A 
ATOM     10  C   UNL     1       8.274  -2.534  -0.582  1.00  0.00     0.166 A 
ATOM     11  C   UNL     1       8.322  -2.729  -1.945  1.00  0.00     0.165 A 
ATOM     12  O   UNL     1       8.619  -3.722   0.026  1.00  0.00    -0.454 OA
ATOM     13  O   UNL     1       8.700  -4.048  -2.147  1.00  0.00    -0.454 OA
ATOM     14  C   UNL     1       8.986  -4.688  -0.926  1.00  0.00     0.468 C 
ENDBRANCH   5   6
ENDBRANCH   1   5
TORSDOF 3
ENDMDL
