@<TRIPOS>MOLECULE
/home/cewinharhar/GITHUB/reincatalyze/data/processed/docking_pred/2023-May-22-1902_sub9_nm5_bs15_s42_ex16_mel10_mts1000_k50_ec02_g099_lra9e-4_lrc1e-3/91438d65c636cbfd2c8442c68b92b155f88758ee_ligand_9.pdbqt
 14 15 0 0 0
SMALL
GASTEIGER

@<TRIPOS>ATOM
      1  C          5.4380    2.9200    0.0810 C.3     1  UNL1        0.0800
      2  C          6.2780    3.8140    0.9270 C.2     1  UNL1        0.1300
      3  C          7.2450    4.7730    0.3290 C.3     1  UNL1        0.0870
      4  O          6.1950    3.7840    2.1440 O.2     1  UNL1       -0.3000
      5  C          5.1370    1.6150    0.7900 C.3     1  UNL1        0.0430
      6  C          5.9670    0.5100    0.2790 C.2     1  UNL1       -0.0440
      7  C          6.2740   -0.6030    1.0700 C.2     1  UNL1        0.0080
      8  C          6.4560    0.5630   -1.0070 C.2     1  UNL1        0.0540
      9  C          7.0580   -1.6100    0.5360 C.2     1  UNL1        0.0510
     10  C          7.2470   -0.4580   -1.5420 C.2     1  UNL1        0.1660
     11  C          7.5500   -1.5530   -0.7640 C.2     1  UNL1        0.1650
     12  O          7.8440   -0.6370   -2.7720 O.2     1  UNL1       -0.4540
     13  O          8.3350   -2.3910   -1.5410 O.2     1  UNL1       -0.4540
     14  C          8.4710   -1.8920   -2.8500 C.3     1  UNL1        0.4680
@<TRIPOS>BOND
     1    14    12    1
     2    14    13    1
     3    12    10    1
     4    10     8    1
     5    10    11    2
     6    13    11    1
     7     8     6    2
     8    11     9    1
     9     1     5    1
    10     1     2    1
    11     6     5    1
    12     6     7    1
    13     3     2    1
    14     9     7    2
    15     2     4    2
