@<TRIPOS>MOLECULE
/home/cewinharhar/GITHUB/reincatalyze/data/processed/docking_pred/2023-May-22-1902_sub9_nm5_bs15_s42_ex16_mel10_mts1000_k50_ec02_g099_lra9e-4_lrc1e-3/9282b18981f6708324b0af4486d36de930a99903_ligand_9.pdbqt
 14 15 0 0 0
SMALL
GASTEIGER

@<TRIPOS>ATOM
      1  C          7.9220   -5.9710   11.5620 C.3     1  UNL1        0.0800
      2  C          8.2290   -4.5710   11.9670 C.2     1  UNL1        0.1300
      3  C          7.1860   -3.5110   11.9650 C.3     1  UNL1        0.0870
      4  O          9.3540   -4.2520   12.3150 O.2     1  UNL1       -0.3000
      5  C          8.6810   -6.3600   10.3080 C.3     1  UNL1        0.0430
      6  C          9.8640   -7.1820   10.6190 C.2     1  UNL1       -0.0440
      7  C          9.7500   -8.4090   11.2830 C.2     1  UNL1        0.0080
      8  C         11.1160   -6.7440   10.2510 C.2     1  UNL1        0.0540
      9  C         10.8960   -9.1380   11.5470 C.2     1  UNL1        0.0510
     10  C         12.2710   -7.4850   10.5200 C.2     1  UNL1        0.1660
     11  C         12.1590   -8.6920   11.1730 C.2     1  UNL1        0.1650
     12  O         13.6070   -7.2680   10.2610 O.2     1  UNL1       -0.4540
     13  O         13.4440   -9.1970   11.3030 O.2     1  UNL1       -0.4540
     14  C         14.3830   -8.3700   10.6580 C.3     1  UNL1        0.4680
@<TRIPOS>BOND
     1     8    10    1
     2     8     6    2
     3    12    10    1
     4    12    14    1
     5     5     6    1
     6     5     1    1
     7    10    11    2
     8     6     7    1
     9    14    13    1
    10    11    13    1
    11    11     9    1
    12     7     9    2
    13     1     2    1
    14     3     2    1
    15     2     4    2
