@<TRIPOS>MOLECULE
/home/cewinharhar/GITHUB/reincatalyze/data/processed/docking_pred/2023-May-22-1902_sub9_nm5_bs15_s42_ex16_mel10_mts1000_k50_ec02_g099_lra9e-4_lrc1e-3/9282b18981f6708324b0af4486d36de930a99903_ligand_9.pdbqt
 14 15 0 0 0
SMALL
GASTEIGER

@<TRIPOS>ATOM
      1  C          8.3090   -5.4170   12.1540 C.3     1  UNL1        0.0800
      2  C          7.6490   -4.2280   11.5470 C.2     1  UNL1        0.1300
      3  C          6.9470   -3.2140   12.3800 C.3     1  UNL1        0.0870
      4  O          7.6640   -4.0510   10.3400 O.2     1  UNL1       -0.3000
      5  C          8.5460   -6.5020   11.1230 C.3     1  UNL1        0.0430
      6  C          9.9730   -6.8540   11.0170 C.2     1  UNL1       -0.0440
      7  C         10.9790   -5.9510   11.3790 C.2     1  UNL1        0.0080
      8  C         10.3360   -8.0990   10.5540 C.2     1  UNL1        0.0540
      9  C         12.3020   -6.3380   11.2580 C.2     1  UNL1        0.0510
     10  C         11.6740   -8.4840   10.4350 C.2     1  UNL1        0.1660
     11  C         12.6650   -7.5960   10.7900 C.2     1  UNL1        0.1650
     12  O         12.2830   -9.6450   10.0090 O.2     1  UNL1       -0.4540
     13  O         13.8750   -8.2380   10.5730 O.2     1  UNL1       -0.4540
     14  C         13.6770   -9.5700   10.1630 C.3     1  UNL1        0.4680
@<TRIPOS>BOND
     1    12    14    1
     2    12    10    1
     3    14    13    1
     4     4     2    2
     5    10     8    1
     6    10    11    2
     7     8     6    2
     8    13    11    1
     9    11     9    1
    10     6     5    1
    11     6     7    1
    12     5     1    1
    13     9     7    2
    14     2     1    1
    15     2     3    1
