@<TRIPOS>MOLECULE
/home/cewinharhar/GITHUB/reincatalyze/data/processed/docking_pred/2023-May-22-1902_sub9_nm5_bs15_s42_ex16_mel10_mts1000_k50_ec02_g099_lra9e-4_lrc1e-3/9282b18981f6708324b0af4486d36de930a99903_ligand_9.pdbqt
 14 15 0 0 0
SMALL
GASTEIGER

@<TRIPOS>ATOM
      1  C          8.8270   -5.6790   12.3000 C.3     1  UNL1        0.0800
      2  C          8.0210   -4.9080   11.3130 C.2     1  UNL1        0.1300
      3  C          7.2900   -3.6710   11.6970 C.3     1  UNL1        0.0870
      4  O          7.9360   -5.2730   10.1520 O.2     1  UNL1       -0.3000
      5  C         10.3120   -5.5190   12.0430 C.3     1  UNL1        0.0430
      6  C         10.8890   -6.7200   11.4120 C.2     1  UNL1       -0.0440
      7  C         10.2070   -7.9420   11.4010 C.2     1  UNL1        0.0080
      8  C         12.1260   -6.6480   10.8140 C.2     1  UNL1        0.0540
      9  C         10.7980   -9.0350   10.7930 C.2     1  UNL1        0.0510
     10  C         12.7190   -7.7550   10.2000 C.2     1  UNL1        0.1660
     11  C         12.0500   -8.9580   10.1900 C.2     1  UNL1        0.1650
     12  O         13.9200   -7.9370    9.5480 O.2     1  UNL1       -0.4540
     13  O         12.8620   -9.8630    9.5240 O.2     1  UNL1       -0.4540
     14  C         14.0170   -9.2350    9.0210 C.3     1  UNL1        0.4680
@<TRIPOS>BOND
     1    14    13    1
     2    14    12    1
     3    13    11    1
     4    12    10    1
     5     4     2    2
     6    11    10    2
     7    11     9    1
     8    10     8    1
     9     9     7    2
    10     8     6    2
    11     2     3    1
    12     2     1    1
    13     7     6    1
    14     6     5    1
    15     5     1    1
