MODEL 1
REMARK VINA RESULT:      -4.1      0.000      0.000
REMARK SMILES CC(=O)CCc1ccc2c(c1)OCO2
REMARK SMILES IDX 4 1 2 2 1 3 3 4 5 5 6 6 7 7 11 8 8 9 10 10 9 11 12 12 14 13
REMARK SMILES IDX 13 14
REMARK H PARENT
REMARK Flexibility Score: inf
ROOT
ATOM      1  C   UNL     1       8.309  -5.417  12.154  1.00  0.00     0.080 C 
ENDROOT
BRANCH   1   2
ATOM      2  C   UNL     1       7.649  -4.228  11.547  1.00  0.00     0.130 C 
ATOM      3  C   UNL     1       6.947  -3.214  12.380  1.00  0.00     0.087 C 
ATOM      4  O   UNL     1       7.664  -4.051  10.340  1.00  0.00    -0.300 OA
ENDBRANCH   1   2
BRANCH   1   5
ATOM      5  C   UNL     1       8.546  -6.502  11.123  1.00  0.00     0.043 C 
BRANCH   5   6
ATOM      6  C   UNL     1       9.973  -6.854  11.017  1.00  0.00    -0.044 A 
ATOM      7  C   UNL     1      10.979  -5.951  11.379  1.00  0.00     0.008 A 
ATOM      8  C   UNL     1      10.336  -8.099  10.554  1.00  0.00     0.054 A 
ATOM      9  C   UNL     1      12.302  -6.338  11.258  1.00  0.00     0.051 A 
ATOM     10  C   UNL     1      11.674  -8.484  10.435  1.00  0.00     0.166 A 
ATOM     11  C   UNL     1      12.665  -7.596  10.790  1.00  0.00     0.165 A 
ATOM     12  O   UNL     1      12.283  -9.645  10.009  1.00  0.00    -0.454 OA
ATOM     13  O   UNL     1      13.875  -8.238  10.573  1.00  0.00    -0.454 OA
ATOM     14  C   UNL     1      13.677  -9.570  10.163  1.00  0.00     0.468 C 
ENDBRANCH   5   6
ENDBRANCH   1   5
TORSDOF 3
ENDMDL
MODEL 2
REMARK VINA RESULT:      -4.0      1.248      1.769
REMARK SMILES CC(=O)CCc1ccc2c(c1)OCO2
REMARK SMILES IDX 4 1 2 2 1 3 3 4 5 5 6 6 7 7 11 8 8 9 10 10 9 11 12 12 14 13
REMARK SMILES IDX 13 14
REMARK H PARENT
REMARK Flexibility Score: inf
ROOT
ATOM      1  C   UNL     1       7.922  -5.971  11.562  1.00  0.00     0.080 C 
ENDROOT
BRANCH   1   2
ATOM      2  C   UNL     1       8.229  -4.571  11.967  1.00  0.00     0.130 C 
ATOM      3  C   UNL     1       7.186  -3.511  11.965  1.00  0.00     0.087 C 
ATOM      4  O   UNL     1       9.354  -4.252  12.315  1.00  0.00    -0.300 OA
ENDBRANCH   1   2
BRANCH   1   5
ATOM      5  C   UNL     1       8.681  -6.360  10.308  1.00  0.00     0.043 C 
BRANCH   5   6
ATOM      6  C   UNL     1       9.864  -7.182  10.619  1.00  0.00    -0.044 A 
ATOM      7  C   UNL     1       9.750  -8.409  11.283  1.00  0.00     0.008 A 
ATOM      8  C   UNL     1      11.116  -6.744  10.251  1.00  0.00     0.054 A 
ATOM      9  C   UNL     1      10.896  -9.138  11.547  1.00  0.00     0.051 A 
ATOM     10  C   UNL     1      12.271  -7.485  10.520  1.00  0.00     0.166 A 
ATOM     11  C   UNL     1      12.159  -8.692  11.173  1.00  0.00     0.165 A 
ATOM     12  O   UNL     1      13.607  -7.268  10.261  1.00  0.00    -0.454 OA
ATOM     13  O   UNL     1      13.444  -9.197  11.303  1.00  0.00    -0.454 OA
ATOM     14  C   UNL     1      14.383  -8.370  10.658  1.00  0.00     0.468 C 
ENDBRANCH   5   6
ENDBRANCH   1   5
TORSDOF 3
ENDMDL
MODEL 3
REMARK VINA RESULT:      -4.0      0.932      1.801
REMARK SMILES CC(=O)CCc1ccc2c(c1)OCO2
REMARK SMILES IDX 4 1 2 2 1 3 3 4 5 5 6 6 7 7 11 8 8 9 10 10 9 11 12 12 14 13
REMARK SMILES IDX 13 14
REMARK H PARENT
REMARK Flexibility Score: inf
ROOT
ATOM      1  C   UNL     1       8.827  -5.679  12.300  1.00  0.00     0.080 C 
ENDROOT
BRANCH   1   2
ATOM      2  C   UNL     1       8.021  -4.908  11.313  1.00  0.00     0.130 C 
ATOM      3  C   UNL     1       7.290  -3.671  11.697  1.00  0.00     0.087 C 
ATOM      4  O   UNL     1       7.936  -5.273  10.152  1.00  0.00    -0.300 OA
ENDBRANCH   1   2
BRANCH   1   5
ATOM      5  C   UNL     1      10.312  -5.519  12.043  1.00  0.00     0.043 C 
BRANCH   5   6
ATOM      6  C   UNL     1      10.889  -6.720  11.412  1.00  0.00    -0.044 A 
ATOM      7  C   UNL     1      10.207  -7.942  11.401  1.00  0.00     0.008 A 
ATOM      8  C   UNL     1      12.126  -6.648  10.814  1.00  0.00     0.054 A 
ATOM      9  C   UNL     1      10.798  -9.035  10.793  1.00  0.00     0.051 A 
ATOM     10  C   UNL     1      12.719  -7.755  10.200  1.00  0.00     0.166 A 
ATOM     11  C   UNL     1      12.050  -8.958  10.190  1.00  0.00     0.165 A 
ATOM     12  O   UNL     1      13.920  -7.937   9.548  1.00  0.00    -0.454 OA
ATOM     13  O   UNL     1      12.862  -9.863   9.524  1.00  0.00    -0.454 OA
ATOM     14  C   UNL     1      14.017  -9.235   9.021  1.00  0.00     0.468 C 
ENDBRANCH   5   6
ENDBRANCH   1   5
TORSDOF 3
ENDMDL
MODEL 4
REMARK VINA RESULT:      -4.0      1.227      1.312
REMARK SMILES CC(=O)CCc1ccc2c(c1)OCO2
REMARK SMILES IDX 4 1 2 2 1 3 3 4 5 5 6 6 7 7 11 8 8 9 10 10 9 11 12 12 14 13
REMARK SMILES IDX 13 14
REMARK H PARENT
REMARK Flexibility Score: inf
ROOT
ATOM      1  C   UNL     1       8.357  -6.169  11.698  1.00  0.00     0.080 C 
ENDROOT
BRANCH   1   2
ATOM      2  C   UNL     1       8.508  -4.717  11.993  1.00  0.00     0.130 C 
ATOM      3  C   UNL     1       7.347  -3.788  11.958  1.00  0.00     0.087 C 
ATOM      4  O   UNL     1       9.598  -4.244  12.274  1.00  0.00    -0.300 OA
ENDBRANCH   1   2
BRANCH   1   5
ATOM      5  C   UNL     1       8.891  -6.508  10.320  1.00  0.00     0.043 C 
BRANCH   5   6
ATOM      6  C   UNL     1      10.169  -7.240  10.394  1.00  0.00    -0.044 A 
ATOM      7  C   UNL     1      11.398  -6.571  10.380  1.00  0.00     0.008 A 
ATOM      8  C   UNL     1      10.164  -8.613  10.483  1.00  0.00     0.054 A 
ATOM      9  C   UNL     1      12.565  -7.310  10.453  1.00  0.00     0.051 A 
ATOM     10  C   UNL     1      11.347  -9.356  10.557  1.00  0.00     0.166 A 
ATOM     11  C   UNL     1      12.557  -8.698  10.542  1.00  0.00     0.165 A 
ATOM     12  O   UNL     1      11.603 -10.707  10.649  1.00  0.00    -0.454 OA
ATOM     13  O   UNL     1      13.542  -9.670  10.627  1.00  0.00    -0.454 OA
ATOM     14  C   UNL     1      12.980 -10.951  10.788  1.00  0.00     0.468 C 
ENDBRANCH   5   6
ENDBRANCH   1   5
TORSDOF 3
ENDMDL
MODEL 5
REMARK VINA RESULT:      -4.0      0.979      1.762
REMARK SMILES CC(=O)CCc1ccc2c(c1)OCO2
REMARK SMILES IDX 4 1 2 2 1 3 3 4 5 5 6 6 7 7 11 8 8 9 10 10 9 11 12 12 14 13
REMARK SMILES IDX 13 14
REMARK H PARENT
REMARK Flexibility Score: inf
ROOT
ATOM      1  C   UNL     1       8.593  -5.215  12.155  1.00  0.00     0.080 C 
ENDROOT
BRANCH   1   2
ATOM      2  C   UNL     1       7.746  -4.199  11.470  1.00  0.00     0.130 C 
ATOM      3  C   UNL     1       6.973  -3.183  12.234  1.00  0.00     0.087 C 
ATOM      4  O   UNL     1       7.660  -4.172  10.253  1.00  0.00    -0.300 OA
ENDBRANCH   1   2
BRANCH   1   5
ATOM      5  C   UNL     1       8.140  -6.623  11.823  1.00  0.00     0.043 C 
BRANCH   5   6
ATOM      6  C   UNL     1       9.277  -7.494  11.474  1.00  0.00    -0.044 A 
ATOM      7  C   UNL     1       9.257  -8.868  11.741  1.00  0.00     0.008 A 
ATOM      8  C   UNL     1      10.389  -6.955  10.869  1.00  0.00     0.054 A 
ATOM      9  C   UNL     1      10.352  -9.636  11.390  1.00  0.00     0.051 A 
ATOM     10  C   UNL     1      11.494  -7.736  10.516  1.00  0.00     0.166 A 
ATOM     11  C   UNL     1      11.475  -9.087  10.779  1.00  0.00     0.165 A 
ATOM     12  O   UNL     1      12.700  -7.441   9.916  1.00  0.00    -0.454 OA
ATOM     13  O   UNL     1      12.682  -9.600  10.330  1.00  0.00    -0.454 OA
ATOM     14  C   UNL     1      13.451  -8.607   9.693  1.00  0.00     0.468 C 
ENDBRANCH   5   6
ENDBRANCH   1   5
TORSDOF 3
ENDMDL
