@<TRIPOS>MOLECULE
/home/cewinharhar/GITHUB/reincatalyze/data/processed/docking_pred/2023-May-22-1902_sub9_nm5_bs15_s42_ex16_mel10_mts1000_k50_ec02_g099_lra9e-4_lrc1e-3/9282b18981f6708324b0af4486d36de930a99903_ligand_9.pdbqt
 14 15 0 0 0
SMALL
GASTEIGER

@<TRIPOS>ATOM
      1  C          8.3570   -6.1690   11.6980 C.3     1  UNL1        0.0800
      2  C          8.5080   -4.7170   11.9930 C.2     1  UNL1        0.1300
      3  C          7.3470   -3.7880   11.9580 C.3     1  UNL1        0.0870
      4  O          9.5980   -4.2440   12.2740 O.2     1  UNL1       -0.3000
      5  C          8.8910   -6.5080   10.3200 C.3     1  UNL1        0.0430
      6  C         10.1690   -7.2400   10.3940 C.2     1  UNL1       -0.0440
      7  C         11.3980   -6.5710   10.3800 C.2     1  UNL1        0.0080
      8  C         10.1640   -8.6130   10.4830 C.2     1  UNL1        0.0540
      9  C         12.5650   -7.3100   10.4530 C.2     1  UNL1        0.0510
     10  C         11.3470   -9.3560   10.5570 C.2     1  UNL1        0.1660
     11  C         12.5570   -8.6980   10.5420 C.2     1  UNL1        0.1650
     12  O         11.6030  -10.7070   10.6490 O.2     1  UNL1       -0.4540
     13  O         13.5420   -9.6700   10.6270 O.2     1  UNL1       -0.4540
     14  C         12.9800  -10.9510   10.7880 C.3     1  UNL1        0.4680
@<TRIPOS>BOND
     1     5     6    1
     2     5     1    1
     3     7     6    2
     4     7     9    1
     5     6     8    1
     6     9    11    2
     7     8    10    2
     8    11    10    1
     9    11    13    1
    10    10    12    1
    11    13    14    1
    12    12    14    1
    13     1     2    1
    14     3     2    1
    15     2     4    2
