@<TRIPOS>MOLECULE
/home/cewinharhar/GITHUB/reincatalyze/data/processed/docking_pred/2023-May-22-1902_sub9_nm5_bs15_s42_ex16_mel10_mts1000_k50_ec02_g099_lra9e-4_lrc1e-3/9282b18981f6708324b0af4486d36de930a99903_ligand_9.pdbqt
 14 15 0 0 0
SMALL
GASTEIGER

@<TRIPOS>ATOM
      1  C          8.5930   -5.2150   12.1550 C.3     1  UNL1        0.0800
      2  C          7.7460   -4.1990   11.4700 C.2     1  UNL1        0.1300
      3  C          6.9730   -3.1830   12.2340 C.3     1  UNL1        0.0870
      4  O          7.6600   -4.1720   10.2530 O.2     1  UNL1       -0.3000
      5  C          8.1400   -6.6230   11.8230 C.3     1  UNL1        0.0430
      6  C          9.2770   -7.4940   11.4740 C.2     1  UNL1       -0.0440
      7  C          9.2570   -8.8680   11.7410 C.2     1  UNL1        0.0080
      8  C         10.3890   -6.9550   10.8690 C.2     1  UNL1        0.0540
      9  C         10.3520   -9.6360   11.3900 C.2     1  UNL1        0.0510
     10  C         11.4940   -7.7360   10.5160 C.2     1  UNL1        0.1660
     11  C         11.4750   -9.0870   10.7790 C.2     1  UNL1        0.1650
     12  O         12.7000   -7.4410    9.9160 O.2     1  UNL1       -0.4540
     13  O         12.6820   -9.6000   10.3300 O.2     1  UNL1       -0.4540
     14  C         13.4510   -8.6070    9.6930 C.3     1  UNL1        0.4680
@<TRIPOS>BOND
     1    14    12    1
     2    14    13    1
     3    12    10    1
     4     4     2    2
     5    13    11    1
     6    10    11    2
     7    10     8    1
     8    11     9    1
     9     8     6    2
    10     9     7    2
    11     2     1    1
    12     2     3    1
    13     6     7    1
    14     6     5    1
    15     5     1    1
