@<TRIPOS>MOLECULE
/home/cewinharhar/GITHUB/reincatalyze/data/processed/docking_pred/2023-May-22-1902_sub9_nm5_bs15_s42_ex16_mel10_mts1000_k50_ec02_g099_lra9e-4_lrc1e-3/939bd1e5684a89eea32cbd4f4170b12915347732_ligand_9.pdbqt
 14 15 0 0 0
SMALL
GASTEIGER

@<TRIPOS>ATOM
      1  C          5.5330    1.9260    1.2710 C.3     1  UNL1        0.0800
      2  C          5.1170    0.7060    2.0180 C.2     1  UNL1        0.1300
      3  C          6.0330   -0.4530    2.1920 C.3     1  UNL1        0.0870
      4  O          4.0040    0.6220    2.5110 O.2     1  UNL1       -0.3000
      5  C          5.4020    1.7270   -0.2260 C.3     1  UNL1        0.0430
      6  C          6.5700    1.0270   -0.7890 C.2     1  UNL1       -0.0440
      7  C          7.8770    1.4550   -0.5280 C.2     1  UNL1        0.0080
      8  C          6.3830   -0.0770   -1.5900 C.2     1  UNL1        0.0540
      9  C          8.9340    0.7570   -1.0830 C.2     1  UNL1        0.0510
     10  C          7.4550   -0.7780   -2.1480 C.2     1  UNL1        0.1660
     11  C          8.7420   -0.3580   -1.8930 C.2     1  UNL1        0.1650
     12  O          7.5300   -1.8870   -2.9640 O.2     1  UNL1       -0.4540
     13  O          9.5880   -1.2260   -2.5640 O.2     1  UNL1       -0.4540
     14  C          8.8650   -2.2640   -3.1820 C.3     1  UNL1        0.4680
@<TRIPOS>BOND
     1    14    12    1
     2    14    13    1
     3    12    10    1
     4    13    11    1
     5    10    11    2
     6    10     8    1
     7    11     9    1
     8     8     6    2
     9     9     7    2
    10     6     7    1
    11     6     5    1
    12     5     1    1
    13     1     2    1
    14     2     3    1
    15     2     4    2
