@<TRIPOS>MOLECULE
/home/cewinharhar/GITHUB/reincatalyze/data/processed/docking_pred/2023-May-22-1902_sub9_nm5_bs15_s42_ex16_mel10_mts1000_k50_ec02_g099_lra9e-4_lrc1e-3/939bd1e5684a89eea32cbd4f4170b12915347732_ligand_9.pdbqt
 14 15 0 0 0
SMALL
GASTEIGER

@<TRIPOS>ATOM
      1  C          5.4220    2.9720    0.0640 C.3     1  UNL1        0.0800
      2  C          6.2830    3.7470    1.0010 C.2     1  UNL1        0.1300
      3  C          7.2440    4.7710    0.5120 C.3     1  UNL1        0.0870
      4  O          6.2230    3.5610    2.2050 O.2     1  UNL1       -0.3000
      5  C          5.5030    1.4850    0.3440 C.3     1  UNL1        0.0430
      6  C          6.6090    0.8490   -0.3930 C.2     1  UNL1       -0.0440
      7  C          7.8780    1.4370   -0.4610 C.2     1  UNL1        0.0080
      8  C          6.4030   -0.3530   -1.0310 C.2     1  UNL1        0.0540
      9  C          8.8780    0.7940   -1.1670 C.2     1  UNL1        0.0510
     10  C          7.4180   -0.9990   -1.7430 C.2     1  UNL1        0.1660
     11  C          8.6660   -0.4200   -1.8110 C.2     1  UNL1        0.1650
     12  O          7.4630   -2.1800   -2.4520 O.2     1  UNL1       -0.4540
     13  O          9.4600   -1.2680   -2.5680 O.2     1  UNL1       -0.4540
     14  C          8.7620   -2.4400   -2.9180 C.3     1  UNL1        0.4680
@<TRIPOS>BOND
     1    14    13    1
     2    14    12    1
     3    13    11    1
     4    12    10    1
     5    11    10    2
     6    11     9    1
     7    10     8    1
     8     9     7    2
     9     8     6    2
    10     7     6    1
    11     6     5    1
    12     1     5    1
    13     1     2    1
    14     3     2    1
    15     2     4    2
