MODEL 1
REMARK VINA RESULT:      -7.9      0.000      0.000
REMARK SMILES CC(=O)CCc1ccc2c(c1)OCO2
REMARK SMILES IDX 4 1 2 2 1 3 3 4 5 5 6 6 7 7 11 8 8 9 10 10 9 11 12 12 14 13
REMARK SMILES IDX 13 14
REMARK H PARENT
REMARK Flexibility Score: inf
ROOT
ATOM      1  C   UNL     1       5.466   2.903   0.143  1.00  0.00     0.080 C 
ENDROOT
BRANCH   1   2
ATOM      2  C   UNL     1       6.412   3.680   0.991  1.00  0.00     0.130 C 
ATOM      3  C   UNL     1       7.248   4.774   0.428  1.00  0.00     0.087 C 
ATOM      4  O   UNL     1       6.529   3.439   2.182  1.00  0.00    -0.300 OA
ENDBRANCH   1   2
BRANCH   1   5
ATOM      5  C   UNL     1       5.132   1.566   0.774  1.00  0.00     0.043 C 
BRANCH   5   6
ATOM      6  C   UNL     1       5.990   0.486   0.253  1.00  0.00    -0.044 A 
ATOM      7  C   UNL     1       6.359  -0.605   1.048  1.00  0.00     0.008 A 
ATOM      8  C   UNL     1       6.441   0.540  -1.046  1.00  0.00     0.054 A 
ATOM      9  C   UNL     1       7.165  -1.589   0.505  1.00  0.00     0.051 A 
ATOM     10  C   UNL     1       7.255  -0.458  -1.591  1.00  0.00     0.166 A 
ATOM     11  C   UNL     1       7.620  -1.531  -0.809  1.00  0.00     0.165 A 
ATOM     12  O   UNL     1       7.825  -0.630  -2.834  1.00  0.00    -0.454 OA
ATOM     13  O   UNL     1       8.415  -2.349  -1.596  1.00  0.00    -0.454 OA
ATOM     14  C   UNL     1       8.496  -1.862  -2.915  1.00  0.00     0.468 C 
ENDBRANCH   5   6
ENDBRANCH   1   5
TORSDOF 3
ENDMDL
MODEL 2
REMARK VINA RESULT:      -7.7      1.019      1.998
REMARK SMILES CC(=O)CCc1ccc2c(c1)OCO2
REMARK SMILES IDX 4 1 2 2 1 3 3 4 5 5 6 6 7 7 11 8 8 9 10 10 9 11 12 12 14 13
REMARK SMILES IDX 13 14
REMARK H PARENT
REMARK Flexibility Score: inf
ROOT
ATOM      1  C   UNL     1       5.416   2.920   0.252  1.00  0.00     0.080 C 
ENDROOT
BRANCH   1   2
ATOM      2  C   UNL     1       6.273   3.875   1.008  1.00  0.00     0.130 C 
ATOM      3  C   UNL     1       7.236   4.775   0.318  1.00  0.00     0.087 C 
ATOM      4  O   UNL     1       6.209   3.947   2.225  1.00  0.00    -0.300 OA
ENDBRANCH   1   2
BRANCH   1   5
ATOM      5  C   UNL     1       5.272   1.605   0.992  1.00  0.00     0.043 C 
BRANCH   5   6
ATOM      6  C   UNL     1       6.076   0.537   0.371  1.00  0.00    -0.044 A 
ATOM      7  C   UNL     1       6.437   0.584  -0.981  1.00  0.00     0.008 A 
ATOM      8  C   UNL     1       6.489  -0.535   1.129  1.00  0.00     0.054 A 
ATOM      9  C   UNL     1       7.194  -0.447  -1.509  1.00  0.00     0.051 A 
ATOM     10  C   UNL     1       7.254  -1.574   0.590  1.00  0.00     0.166 A 
ATOM     11  C   UNL     1       7.609  -1.529  -0.739  1.00  0.00     0.165 A 
ATOM     12  O   UNL     1       7.779  -2.730   1.127  1.00  0.00    -0.454 OA
ATOM     13  O   UNL     1       8.353  -2.671  -0.994  1.00  0.00    -0.454 OA
ATOM     14  C   UNL     1       8.562  -3.414   0.183  1.00  0.00     0.468 C 
ENDBRANCH   5   6
ENDBRANCH   1   5
TORSDOF 3
ENDMDL
MODEL 3
REMARK VINA RESULT:      -7.7      1.867      2.587
REMARK SMILES CC(=O)CCc1ccc2c(c1)OCO2
REMARK SMILES IDX 4 1 2 2 1 3 3 4 5 5 6 6 7 7 11 8 8 9 10 10 9 11 12 12 14 13
REMARK SMILES IDX 13 14
REMARK H PARENT
REMARK Flexibility Score: inf
ROOT
ATOM      1  C   UNL     1       5.533   1.926   1.271  1.00  0.00     0.080 C 
ENDROOT
BRANCH   1   2
ATOM      2  C   UNL     1       5.117   0.706   2.018  1.00  0.00     0.130 C 
ATOM      3  C   UNL     1       6.033  -0.453   2.192  1.00  0.00     0.087 C 
ATOM      4  O   UNL     1       4.004   0.622   2.511  1.00  0.00    -0.300 OA
ENDBRANCH   1   2
BRANCH   1   5
ATOM      5  C   UNL     1       5.402   1.727  -0.226  1.00  0.00     0.043 C 
BRANCH   5   6
ATOM      6  C   UNL     1       6.570   1.027  -0.789  1.00  0.00    -0.044 A 
ATOM      7  C   UNL     1       7.877   1.455  -0.528  1.00  0.00     0.008 A 
ATOM      8  C   UNL     1       6.383  -0.077  -1.590  1.00  0.00     0.054 A 
ATOM      9  C   UNL     1       8.934   0.757  -1.083  1.00  0.00     0.051 A 
ATOM     10  C   UNL     1       7.455  -0.778  -2.148  1.00  0.00     0.166 A 
ATOM     11  C   UNL     1       8.742  -0.358  -1.893  1.00  0.00     0.165 A 
ATOM     12  O   UNL     1       7.530  -1.887  -2.964  1.00  0.00    -0.454 OA
ATOM     13  O   UNL     1       9.588  -1.226  -2.564  1.00  0.00    -0.454 OA
ATOM     14  C   UNL     1       8.865  -2.264  -3.182  1.00  0.00     0.468 C 
ENDBRANCH   5   6
ENDBRANCH   1   5
TORSDOF 3
ENDMDL
MODEL 4
REMARK VINA RESULT:      -7.5      1.965      3.020
REMARK SMILES CC(=O)CCc1ccc2c(c1)OCO2
REMARK SMILES IDX 4 1 2 2 1 3 3 4 5 5 6 6 7 7 11 8 8 9 10 10 9 11 12 12 14 13
REMARK SMILES IDX 13 14
REMARK H PARENT
REMARK Flexibility Score: inf
ROOT
ATOM      1  C   UNL     1       5.753   1.327  -0.367  1.00  0.00     0.080 C 
ENDROOT
BRANCH   1   2
ATOM      2  C   UNL     1       5.154   1.310   0.997  1.00  0.00     0.130 C 
ATOM      3  C   UNL     1       5.364   0.169   1.928  1.00  0.00     0.087 C 
ATOM      4  O   UNL     1       4.469   2.240   1.392  1.00  0.00    -0.300 OA
ENDBRANCH   1   2
BRANCH   1   5
ATOM      5  C   UNL     1       7.251   1.102  -0.314  1.00  0.00     0.043 C 
BRANCH   5   6
ATOM      6  C   UNL     1       7.630  -0.197  -0.896  1.00  0.00    -0.044 A 
ATOM      7  C   UNL     1       7.718  -0.382  -2.281  1.00  0.00     0.008 A 
ATOM      8  C   UNL     1       7.908  -1.261  -0.068  1.00  0.00     0.054 A 
ATOM      9  C   UNL     1       8.080  -1.624  -2.770  1.00  0.00     0.051 A 
ATOM     10  C   UNL     1       8.274  -2.515  -0.568  1.00  0.00     0.166 A 
ATOM     11  C   UNL     1       8.360  -2.698  -1.930  1.00  0.00     0.165 A 
ATOM     12  O   UNL     1       8.594  -3.711   0.038  1.00  0.00    -0.454 OA
ATOM     13  O   UNL     1       8.736  -4.016  -2.135  1.00  0.00    -0.454 OA
ATOM     14  C   UNL     1       8.984  -4.669  -0.913  1.00  0.00     0.468 C 
ENDBRANCH   5   6
ENDBRANCH   1   5
TORSDOF 3
ENDMDL
MODEL 5
REMARK VINA RESULT:      -7.5      1.103      1.520
REMARK SMILES CC(=O)CCc1ccc2c(c1)OCO2
REMARK SMILES IDX 4 1 2 2 1 3 3 4 5 5 6 6 7 7 11 8 8 9 10 10 9 11 12 12 14 13
REMARK SMILES IDX 13 14
REMARK H PARENT
REMARK Flexibility Score: inf
ROOT
ATOM      1  C   UNL     1       5.422   2.972   0.064  1.00  0.00     0.080 C 
ENDROOT
BRANCH   1   2
ATOM      2  C   UNL     1       6.283   3.747   1.001  1.00  0.00     0.130 C 
ATOM      3  C   UNL     1       7.244   4.771   0.512  1.00  0.00     0.087 C 
ATOM      4  O   UNL     1       6.223   3.561   2.205  1.00  0.00    -0.300 OA
ENDBRANCH   1   2
BRANCH   1   5
ATOM      5  C   UNL     1       5.503   1.485   0.344  1.00  0.00     0.043 C 
BRANCH   5   6
ATOM      6  C   UNL     1       6.609   0.849  -0.393  1.00  0.00    -0.044 A 
ATOM      7  C   UNL     1       7.878   1.437  -0.461  1.00  0.00     0.008 A 
ATOM      8  C   UNL     1       6.403  -0.353  -1.031  1.00  0.00     0.054 A 
ATOM      9  C   UNL     1       8.878   0.794  -1.167  1.00  0.00     0.051 A 
ATOM     10  C   UNL     1       7.418  -0.999  -1.743  1.00  0.00     0.166 A 
ATOM     11  C   UNL     1       8.666  -0.420  -1.811  1.00  0.00     0.165 A 
ATOM     12  O   UNL     1       7.463  -2.180  -2.452  1.00  0.00    -0.454 OA
ATOM     13  O   UNL     1       9.460  -1.268  -2.568  1.00  0.00    -0.454 OA
ATOM     14  C   UNL     1       8.762  -2.440  -2.918  1.00  0.00     0.468 C 
ENDBRANCH   5   6
ENDBRANCH   1   5
TORSDOF 3
ENDMDL
