@<TRIPOS>MOLECULE
/home/cewinharhar/GITHUB/reincatalyze/data/processed/docking_pred/2023-May-22-1902_sub9_nm5_bs15_s42_ex16_mel10_mts1000_k50_ec02_g099_lra9e-4_lrc1e-3/939bd1e5684a89eea32cbd4f4170b12915347732_ligand_9.pdbqt
 14 15 0 0 0
SMALL
GASTEIGER

@<TRIPOS>ATOM
      1  C          5.4160    2.9200    0.2520 C.3     1  UNL1        0.0800
      2  C          6.2730    3.8750    1.0080 C.2     1  UNL1        0.1300
      3  C          7.2360    4.7750    0.3180 C.3     1  UNL1        0.0870
      4  O          6.2090    3.9470    2.2250 O.2     1  UNL1       -0.3000
      5  C          5.2720    1.6050    0.9920 C.3     1  UNL1        0.0430
      6  C          6.0760    0.5370    0.3710 C.2     1  UNL1       -0.0440
      7  C          6.4370    0.5840   -0.9810 C.2     1  UNL1        0.0080
      8  C          6.4890   -0.5350    1.1290 C.2     1  UNL1        0.0540
      9  C          7.1940   -0.4470   -1.5090 C.2     1  UNL1        0.0510
     10  C          7.2540   -1.5740    0.5900 C.2     1  UNL1        0.1660
     11  C          7.6090   -1.5290   -0.7390 C.2     1  UNL1        0.1650
     12  O          7.7790   -2.7300    1.1270 O.2     1  UNL1       -0.4540
     13  O          8.3530   -2.6710   -0.9940 O.2     1  UNL1       -0.4540
     14  C          8.5620   -3.4140    0.1830 C.3     1  UNL1        0.4680
@<TRIPOS>BOND
     1     9     7    1
     2     9    11    2
     3    13    11    1
     4    13    14    1
     5     7     6    2
     6    11    10    1
     7    14    12    1
     8     1     5    1
     9     1     2    1
    10     3     2    1
    11     6     5    1
    12     6     8    1
    13    10    12    1
    14    10     8    2
    15     2     4    2
