@<TRIPOS>MOLECULE
/home/cewinharhar/GITHUB/reincatalyze/data/processed/docking_pred/2023-May-22-1902_sub9_nm5_bs15_s42_ex16_mel10_mts1000_k50_ec02_g099_lra9e-4_lrc1e-3/939bd1e5684a89eea32cbd4f4170b12915347732_ligand_9.pdbqt
 14 15 0 0 0
SMALL
GASTEIGER

@<TRIPOS>ATOM
      1  C          5.4660    2.9030    0.1430 C.3     1  UNL1        0.0800
      2  C          6.4120    3.6800    0.9910 C.2     1  UNL1        0.1300
      3  C          7.2480    4.7740    0.4280 C.3     1  UNL1        0.0870
      4  O          6.5290    3.4390    2.1820 O.2     1  UNL1       -0.3000
      5  C          5.1320    1.5660    0.7740 C.3     1  UNL1        0.0430
      6  C          5.9900    0.4860    0.2530 C.2     1  UNL1       -0.0440
      7  C          6.3590   -0.6050    1.0480 C.2     1  UNL1        0.0080
      8  C          6.4410    0.5400   -1.0460 C.2     1  UNL1        0.0540
      9  C          7.1650   -1.5890    0.5050 C.2     1  UNL1        0.0510
     10  C          7.2550   -0.4580   -1.5910 C.2     1  UNL1        0.1660
     11  C          7.6200   -1.5310   -0.8090 C.2     1  UNL1        0.1650
     12  O          7.8250   -0.6300   -2.8340 O.2     1  UNL1       -0.4540
     13  O          8.4150   -2.3490   -1.5960 O.2     1  UNL1       -0.4540
     14  C          8.4960   -1.8620   -2.9150 C.3     1  UNL1        0.4680
@<TRIPOS>BOND
     1    14    12    1
     2    14    13    1
     3    12    10    1
     4    13    11    1
     5    10     8    1
     6    10    11    2
     7     8     6    2
     8    11     9    1
     9     1     5    1
    10     1     2    1
    11     6     5    1
    12     6     7    1
    13     3     2    1
    14     9     7    2
    15     2     4    2
