@<TRIPOS>MOLECULE
/home/cewinharhar/GITHUB/reincatalyze/data/processed/docking_pred/2023-May-22-1902_sub9_nm5_bs15_s42_ex16_mel10_mts1000_k50_ec02_g099_lra9e-4_lrc1e-3/93b19c8378935853b44d27bbf459025f9fc44a5e_ligand_9.pdbqt
 14 15 0 0 0
SMALL
GASTEIGER

@<TRIPOS>ATOM
      1  C          5.4230    1.4050    0.5530 C.3     1  UNL1        0.0800
      2  C          5.1560    0.4750    1.6850 C.2     1  UNL1        0.1300
      3  C          5.8670   -0.8250    1.8110 C.3     1  UNL1        0.0870
      4  O          4.3390    0.7560    2.5470 O.2     1  UNL1       -0.3000
      5  C          6.4910    2.4190    0.9140 C.3     1  UNL1        0.0430
      6  C          7.8420    1.8340    0.8510 C.2     1  UNL1       -0.0440
      7  C          8.3840    1.3660   -0.3520 C.2     1  UNL1        0.0080
      8  C          8.6000    1.7430    1.9970 C.2     1  UNL1        0.0540
      9  C          9.6580    0.8280   -0.3500 C.2     1  UNL1        0.0510
     10  C          9.8880    1.1980    1.9930 C.2     1  UNL1        0.1660
     11  C         10.4210    0.7370    0.8100 C.2     1  UNL1        0.1650
     12  O         10.8260    0.9990    2.9830 O.2     1  UNL1       -0.4540
     13  O         11.6890    0.2600    1.1010 O.2     1  UNL1       -0.4540
     14  C         12.0210    0.4890    2.4500 C.3     1  UNL1        0.4680
@<TRIPOS>BOND
     1     7     9    1
     2     7     6    2
     3     9    11    2
     4     1     5    1
     5     1     2    1
     6    11    13    1
     7    11    10    1
     8     6     5    1
     9     6     8    1
    10    13    14    1
    11     2     3    1
    12     2     4    2
    13    10     8    2
    14    10    12    1
    15    14    12    1
