@<TRIPOS>MOLECULE
/home/cewinharhar/GITHUB/reincatalyze/data/processed/docking_pred/2023-May-22-1902_sub9_nm5_bs15_s42_ex16_mel10_mts1000_k50_ec02_g099_lra9e-4_lrc1e-3/93b19c8378935853b44d27bbf459025f9fc44a5e_ligand_9.pdbqt
 14 15 0 0 0
SMALL
GASTEIGER

@<TRIPOS>ATOM
      1  C          5.5600    3.0590    0.2080 C.3     1  UNL1        0.0800
      2  C          6.4360    3.7600    1.1880 C.2     1  UNL1        0.1300
      3  C          7.9060    3.5350    1.2230 C.3     1  UNL1        0.0870
      4  O          5.9680    4.5450    1.9970 O.2     1  UNL1       -0.3000
      5  C          5.1240    1.7050    0.7300 C.3     1  UNL1        0.0430
      6  C          5.9610    0.6170    0.1940 C.2     1  UNL1       -0.0440
      7  C          6.3450    0.5830   -1.1520 C.2     1  UNL1        0.0080
      8  C          6.3820   -0.3940    1.0280 C.2     1  UNL1        0.0540
      9  C          7.1320   -0.4630   -1.5980 C.2     1  UNL1        0.0510
     10  C          7.1780   -1.4490    0.5710 C.2     1  UNL1        0.1660
     11  C          7.5560   -1.4840   -0.7530 C.2     1  UNL1        0.1650
     12  O          7.7170   -2.5560    1.1920 O.2     1  UNL1       -0.4540
     13  O          8.3280   -2.6230   -0.9190 O.2     1  UNL1       -0.4540
     14  C          8.5310   -3.2830    0.3070 C.3     1  UNL1        0.4680
@<TRIPOS>BOND
     1     9     7    1
     2     9    11    2
     3     7     6    2
     4    13    11    1
     5    13    14    1
     6    11    10    1
     7     6     5    1
     8     6     8    1
     9     1     5    1
    10     1     2    1
    11    14    12    1
    12    10     8    2
    13    10    12    1
    14     2     3    1
    15     2     4    2
