@<TRIPOS>MOLECULE
/home/cewinharhar/GITHUB/reincatalyze/data/processed/docking_pred/2023-May-22-1902_sub9_nm5_bs15_s42_ex16_mel10_mts1000_k50_ec02_g099_lra9e-4_lrc1e-3/93b19c8378935853b44d27bbf459025f9fc44a5e_ligand_9.pdbqt
 14 15 0 0 0
SMALL
GASTEIGER

@<TRIPOS>ATOM
      1  C          5.7870    3.1740    0.1760 C.3     1  UNL1        0.0800
      2  C          6.5660    3.7370    1.3140 C.2     1  UNL1        0.1300
      3  C          8.0050    3.4160    1.5100 C.3     1  UNL1        0.0870
      4  O          6.0410    4.4850    2.1230 O.2     1  UNL1       -0.3000
      5  C          5.1080    1.8750    0.5640 C.3     1  UNL1        0.0430
      6  C          5.9130    0.7020    0.1800 C.2     1  UNL1       -0.0440
      7  C          6.2230   -0.3070    1.1000 C.2     1  UNL1        0.0080
      8  C          6.3740    0.5830   -1.1110 C.2     1  UNL1        0.0540
      9  C          6.9820   -1.3850    0.6830 C.2     1  UNL1        0.0510
     10  C          7.1400   -0.5090   -1.5280 C.2     1  UNL1        0.1660
     11  C          7.4470   -1.5020   -0.6240 C.2     1  UNL1        0.1650
     12  O          7.7080   -0.8520   -2.7370 O.2     1  UNL1       -0.4540
     13  O          8.2040   -2.4430   -1.3030 O.2     1  UNL1       -0.4540
     14  C          8.3170   -2.1160   -2.6670 C.3     1  UNL1        0.4680
@<TRIPOS>BOND
     1    12    14    1
     2    12    10    1
     3    14    13    1
     4    10     8    1
     5    10    11    2
     6    13    11    1
     7     8     6    2
     8    11     9    1
     9     1     5    1
    10     1     2    1
    11     6     5    1
    12     6     7    1
    13     9     7    2
    14     2     3    1
    15     2     4    2
