@<TRIPOS>MOLECULE
/home/cewinharhar/GITHUB/reincatalyze/data/processed/docking_pred/2023-May-22-1902_sub9_nm5_bs15_s42_ex16_mel10_mts1000_k50_ec02_g099_lra9e-4_lrc1e-3/93b19c8378935853b44d27bbf459025f9fc44a5e_ligand_9.pdbqt
 14 15 0 0 0
SMALL
GASTEIGER

@<TRIPOS>ATOM
      1  C          6.0630    3.2970    0.0010 C.3     1  UNL1        0.0800
      2  C          6.6130    3.7520    1.3090 C.2     1  UNL1        0.1300
      3  C          8.0200    3.4750    1.7030 C.3     1  UNL1        0.0870
      4  O          5.9180    4.3700    2.1000 O.2     1  UNL1       -0.3000
      5  C          5.0350    2.1990    0.1890 C.3     1  UNL1        0.0430
      6  C          5.6610    0.9270    0.5920 C.2     1  UNL1       -0.0440
      7  C          5.3640    0.3200    1.8170 C.2     1  UNL1        0.0080
      8  C          6.5580    0.3110   -0.2510 C.2     1  UNL1        0.0540
      9  C          5.9820   -0.8740    2.1420 C.2     1  UNL1        0.0510
     10  C          7.1790   -0.8970    0.0810 C.2     1  UNL1        0.1660
     11  C          6.8890   -1.4940    1.2870 C.2     1  UNL1        0.1650
     12  O          8.0920   -1.6950   -0.5740 O.2     1  UNL1       -0.4540
     13  O          7.6370   -2.6590    1.3480 O.2     1  UNL1       -0.4540
     14  C          8.3450   -2.8720    0.1500 C.3     1  UNL1        0.4680
@<TRIPOS>BOND
     1    12    10    1
     2    12    14    1
     3     8    10    1
     4     8     6    2
     5     1     5    1
     6     1     2    1
     7    10    11    2
     8    14    13    1
     9     5     6    1
    10     6     7    1
    11    11    13    1
    12    11     9    1
    13     2     3    1
    14     2     4    2
    15     7     9    2
