@<TRIPOS>MOLECULE
/home/cewinharhar/GITHUB/reincatalyze/data/processed/docking_pred/2023-May-22-1902_sub9_nm5_bs15_s42_ex16_mel10_mts1000_k50_ec02_g099_lra9e-4_lrc1e-3/93b19c8378935853b44d27bbf459025f9fc44a5e_ligand_9.pdbqt
 14 15 0 0 0
SMALL
GASTEIGER

@<TRIPOS>ATOM
      1  C          7.0390   -1.3980   -0.8820 C.3     1  UNL1        0.0800
      2  C          7.5950   -1.7040    0.4660 C.2     1  UNL1        0.1300
      3  C          6.7330   -1.7340    1.6780 C.3     1  UNL1        0.0870
      4  O          8.7830   -1.9400    0.6140 O.2     1  UNL1       -0.3000
      5  C          7.5380   -0.0610   -1.3930 C.3     1  UNL1        0.0430
      6  C          7.0050    1.0610   -0.6000 C.2     1  UNL1       -0.0440
      7  C          5.6340    1.3390   -0.5540 C.2     1  UNL1        0.0080
      8  C          7.8660    1.8590    0.1180 C.2     1  UNL1        0.0540
      9  C          5.1900    2.4050    0.2080 C.2     1  UNL1        0.0510
     10  C          7.4120    2.9350    0.8870 C.2     1  UNL1        0.1660
     11  C          6.0640    3.2100    0.9320 C.2     1  UNL1        0.1650
     12  O          8.0570    3.8640    1.6760 O.2     1  UNL1       -0.4540
     13  O          5.9070    4.3130    1.7580 O.2     1  UNL1       -0.4540
     14  C          7.1350    4.7030    2.3230 C.3     1  UNL1        0.4680
@<TRIPOS>BOND
     1     5     1    1
     2     5     6    1
     3     1     2    1
     4     6     7    2
     5     6     8    1
     6     7     9    1
     7     8    10    2
     8     9    11    2
     9     2     4    2
    10     2     3    1
    11    10    11    1
    12    10    12    1
    13    11    13    1
    14    12    14    1
    15    13    14    1
