MODEL 1
REMARK VINA RESULT:      -8.0      0.000      0.000
REMARK SMILES CC(=O)CCc1ccc2c(c1)OCO2
REMARK SMILES IDX 4 1 2 2 1 3 3 4 5 5 6 6 7 7 11 8 8 9 10 10 9 11 12 12 14 13
REMARK SMILES IDX 13 14
REMARK H PARENT
REMARK Flexibility Score: inf
ROOT
ATOM      1  C   UNL     1       5.429   2.935   0.069  1.00  0.00     0.080 C 
ENDROOT
BRANCH   1   2
ATOM      2  C   UNL     1       6.295   3.789   0.929  1.00  0.00     0.130 C 
ATOM      3  C   UNL     1       7.247   4.773   0.347  1.00  0.00     0.087 C 
ATOM      4  O   UNL     1       6.249   3.704   2.145  1.00  0.00    -0.300 OA
ENDBRANCH   1   2
BRANCH   1   5
ATOM      5  C   UNL     1       5.106   1.619   0.747  1.00  0.00     0.043 C 
BRANCH   5   6
ATOM      6  C   UNL     1       5.960   0.525   0.251  1.00  0.00    -0.044 A 
ATOM      7  C   UNL     1       6.313  -0.557   1.067  1.00  0.00     0.008 A 
ATOM      8  C   UNL     1       6.425   0.555  -1.044  1.00  0.00     0.054 A 
ATOM      9  C   UNL     1       7.116  -1.555   0.547  1.00  0.00     0.051 A 
ATOM     10  C   UNL     1       7.236  -0.457  -1.565  1.00  0.00     0.166 A 
ATOM     11  C   UNL     1       7.585  -1.521  -0.763  1.00  0.00     0.165 A 
ATOM     12  O   UNL     1       7.817  -0.653  -2.800  1.00  0.00    -0.454 OA
ATOM     13  O   UNL     1       8.380  -2.357  -1.530  1.00  0.00    -0.454 OA
ATOM     14  C   UNL     1       8.479  -1.891  -2.855  1.00  0.00     0.468 C 
ENDBRANCH   5   6
ENDBRANCH   1   5
TORSDOF 3
ENDMDL
MODEL 2
REMARK VINA RESULT:      -7.8      0.978      1.962
REMARK SMILES CC(=O)CCc1ccc2c(c1)OCO2
REMARK SMILES IDX 4 1 2 2 1 3 3 4 5 5 6 6 7 7 11 8 8 9 10 10 9 11 12 12 14 13
REMARK SMILES IDX 13 14
REMARK H PARENT
REMARK Flexibility Score: inf
ROOT
ATOM      1  C   UNL     1       5.482   2.894   0.210  1.00  0.00     0.080 C 
ENDROOT
BRANCH   1   2
ATOM      2  C   UNL     1       6.290   3.872   0.991  1.00  0.00     0.130 C 
ATOM      3  C   UNL     1       7.272   4.775   0.334  1.00  0.00     0.087 C 
ATOM      4  O   UNL     1       6.168   3.959   2.203  1.00  0.00    -0.300 OA
ENDBRANCH   1   2
BRANCH   1   5
ATOM      5  C   UNL     1       5.334   1.582   0.956  1.00  0.00     0.043 C 
BRANCH   5   6
ATOM      6  C   UNL     1       6.112   0.503   0.322  1.00  0.00    -0.044 A 
ATOM      7  C   UNL     1       6.401   0.514  -1.047  1.00  0.00     0.008 A 
ATOM      8  C   UNL     1       6.572  -0.545   1.086  1.00  0.00     0.054 A 
ATOM      9  C   UNL     1       7.136  -0.526  -1.587  1.00  0.00     0.051 A 
ATOM     10  C   UNL     1       7.315  -1.594   0.536  1.00  0.00     0.166 A 
ATOM     11  C   UNL     1       7.599  -1.584  -0.811  1.00  0.00     0.165 A 
ATOM     12  O   UNL     1       7.876  -2.732   1.076  1.00  0.00    -0.454 OA
ATOM     13  O   UNL     1       8.337  -2.728  -1.073  1.00  0.00    -0.454 OA
ATOM     14  C   UNL     1       8.613  -3.437   0.111  1.00  0.00     0.468 C 
ENDBRANCH   5   6
ENDBRANCH   1   5
TORSDOF 3
ENDMDL
MODEL 3
REMARK VINA RESULT:      -7.6      1.873      2.608
REMARK SMILES CC(=O)CCc1ccc2c(c1)OCO2
REMARK SMILES IDX 4 1 2 2 1 3 3 4 5 5 6 6 7 7 11 8 8 9 10 10 9 11 12 12 14 13
REMARK SMILES IDX 13 14
REMARK H PARENT
REMARK Flexibility Score: inf
ROOT
ATOM      1  C   UNL     1       5.541   1.936   1.260  1.00  0.00     0.080 C 
ENDROOT
BRANCH   1   2
ATOM      2  C   UNL     1       5.122   0.715   2.004  1.00  0.00     0.130 C 
ATOM      3  C   UNL     1       6.042  -0.438   2.192  1.00  0.00     0.087 C 
ATOM      4  O   UNL     1       4.003   0.626   2.483  1.00  0.00    -0.300 OA
ENDBRANCH   1   2
BRANCH   1   5
ATOM      5  C   UNL     1       5.412   1.740  -0.237  1.00  0.00     0.043 C 
BRANCH   5   6
ATOM      6  C   UNL     1       6.575   1.031  -0.798  1.00  0.00    -0.044 A 
ATOM      7  C   UNL     1       7.885   1.455  -0.544  1.00  0.00     0.008 A 
ATOM      8  C   UNL     1       6.382  -0.078  -1.590  1.00  0.00     0.054 A 
ATOM      9  C   UNL     1       8.938   0.749  -1.097  1.00  0.00     0.051 A 
ATOM     10  C   UNL     1       7.450  -0.789  -2.146  1.00  0.00     0.166 A 
ATOM     11  C   UNL     1       8.739  -0.371  -1.898  1.00  0.00     0.165 A 
ATOM     12  O   UNL     1       7.518  -1.904  -2.954  1.00  0.00    -0.454 OA
ATOM     13  O   UNL     1       9.580  -1.248  -2.564  1.00  0.00    -0.454 OA
ATOM     14  C   UNL     1       8.851  -2.288  -3.172  1.00  0.00     0.468 C 
ENDBRANCH   5   6
ENDBRANCH   1   5
TORSDOF 3
ENDMDL
MODEL 4
REMARK VINA RESULT:      -7.5      1.956      3.011
REMARK SMILES CC(=O)CCc1ccc2c(c1)OCO2
REMARK SMILES IDX 4 1 2 2 1 3 3 4 5 5 6 6 7 7 11 8 8 9 10 10 9 11 12 12 14 13
REMARK SMILES IDX 13 14
REMARK H PARENT
REMARK Flexibility Score: inf
ROOT
ATOM      1  C   UNL     1       5.799   1.397  -0.342  1.00  0.00     0.080 C 
ENDROOT
BRANCH   1   2
ATOM      2  C   UNL     1       5.143   1.329   0.993  1.00  0.00     0.130 C 
ATOM      3  C   UNL     1       5.417   0.217   1.942  1.00  0.00     0.087 C 
ATOM      4  O   UNL     1       4.355   2.191   1.349  1.00  0.00    -0.300 OA
ENDBRANCH   1   2
BRANCH   1   5
ATOM      5  C   UNL     1       7.285   1.118  -0.240  1.00  0.00     0.043 C 
BRANCH   5   6
ATOM      6  C   UNL     1       7.641  -0.177  -0.847  1.00  0.00    -0.044 A 
ATOM      7  C   UNL     1       7.695  -0.346  -2.235  1.00  0.00     0.008 A 
ATOM      8  C   UNL     1       7.931  -1.253  -0.038  1.00  0.00     0.054 A 
ATOM      9  C   UNL     1       8.036  -1.585  -2.747  1.00  0.00     0.051 A 
ATOM     10  C   UNL     1       8.275  -2.503  -0.561  1.00  0.00     0.166 A 
ATOM     11  C   UNL     1       8.328  -2.670  -1.927  1.00  0.00     0.165 A 
ATOM     12  O   UNL     1       8.601  -3.708   0.023  1.00  0.00    -0.454 OA
ATOM     13  O   UNL     1       8.689  -3.988  -2.156  1.00  0.00    -0.454 OA
ATOM     14  C   UNL     1       8.961  -4.658  -0.948  1.00  0.00     0.468 C 
ENDBRANCH   5   6
ENDBRANCH   1   5
TORSDOF 3
ENDMDL
MODEL 5
REMARK VINA RESULT:      -7.4      1.811      2.803
REMARK SMILES CC(=O)CCc1ccc2c(c1)OCO2
REMARK SMILES IDX 4 1 2 2 1 3 3 4 5 5 6 6 7 7 11 8 8 9 10 10 9 11 12 12 14 13
REMARK SMILES IDX 13 14
REMARK H PARENT
REMARK Flexibility Score: inf
ROOT
ATOM      1  C   UNL     1       6.139   0.797   1.173  1.00  0.00     0.080 C 
ENDROOT
BRANCH   1   2
ATOM      2  C   UNL     1       5.007   1.745   0.978  1.00  0.00     0.130 C 
ATOM      3  C   UNL     1       4.929   2.633  -0.212  1.00  0.00     0.087 C 
ATOM      4  O   UNL     1       4.105   1.820   1.796  1.00  0.00    -0.300 OA
ENDBRANCH   1   2
BRANCH   1   5
ATOM      5  C   UNL     1       7.223   1.012   0.135  1.00  0.00     0.043 C 
BRANCH   5   6
ATOM      6  C   UNL     1       7.556  -0.236  -0.574  1.00  0.00    -0.044 A 
ATOM      7  C   UNL     1       7.507  -0.321  -1.970  1.00  0.00     0.008 A 
ATOM      8  C   UNL     1       7.927  -1.350   0.143  1.00  0.00     0.054 A 
ATOM      9  C   UNL     1       7.831  -1.518  -2.582  1.00  0.00     0.051 A 
ATOM     10  C   UNL     1       8.254  -2.559  -0.480  1.00  0.00     0.166 A 
ATOM     11  C   UNL     1       8.206  -2.643  -1.853  1.00  0.00     0.165 A 
ATOM     12  O   UNL     1       8.647  -3.789   0.004  1.00  0.00    -0.454 OA
ATOM     13  O   UNL     1       8.574  -3.937  -2.189  1.00  0.00    -0.454 OA
ATOM     14  C   UNL     1       8.950  -4.670  -1.047  1.00  0.00     0.468 C 
ENDBRANCH   5   6
ENDBRANCH   1   5
TORSDOF 3
ENDMDL
