@<TRIPOS>MOLECULE
/home/cewinharhar/GITHUB/reincatalyze/data/processed/docking_pred/2023-May-22-1902_sub9_nm5_bs15_s42_ex16_mel10_mts1000_k50_ec02_g099_lra9e-4_lrc1e-3/93c3770ef064b633c902e85f3368d9330fbaaeb8_ligand_9.pdbqt
 14 15 0 0 0
SMALL
GASTEIGER

@<TRIPOS>ATOM
      1  C          5.5410    1.9360    1.2600 C.3     1  UNL1        0.0800
      2  C          5.1220    0.7150    2.0040 C.2     1  UNL1        0.1300
      3  C          6.0420   -0.4380    2.1920 C.3     1  UNL1        0.0870
      4  O          4.0030    0.6260    2.4830 O.2     1  UNL1       -0.3000
      5  C          5.4120    1.7400   -0.2370 C.3     1  UNL1        0.0430
      6  C          6.5750    1.0310   -0.7980 C.2     1  UNL1       -0.0440
      7  C          7.8850    1.4550   -0.5440 C.2     1  UNL1        0.0080
      8  C          6.3820   -0.0780   -1.5900 C.2     1  UNL1        0.0540
      9  C          8.9380    0.7490   -1.0970 C.2     1  UNL1        0.0510
     10  C          7.4500   -0.7890   -2.1460 C.2     1  UNL1        0.1660
     11  C          8.7390   -0.3710   -1.8980 C.2     1  UNL1        0.1650
     12  O          7.5180   -1.9040   -2.9540 O.2     1  UNL1       -0.4540
     13  O          9.5800   -1.2480   -2.5640 O.2     1  UNL1       -0.4540
     14  C          8.8510   -2.2880   -3.1720 C.3     1  UNL1        0.4680
@<TRIPOS>BOND
     1    14    12    1
     2    14    13    1
     3    12    10    1
     4    13    11    1
     5    10    11    2
     6    10     8    1
     7    11     9    1
     8     8     6    2
     9     9     7    2
    10     6     7    1
    11     6     5    1
    12     5     1    1
    13     1     2    1
    14     2     3    1
    15     2     4    2
