@<TRIPOS>MOLECULE
/home/cewinharhar/GITHUB/reincatalyze/data/processed/docking_pred/2023-May-22-1902_sub9_nm5_bs15_s42_ex16_mel10_mts1000_k50_ec02_g099_lra9e-4_lrc1e-3/9545d038953ad0bd3b50a81295f717fe73892d7b_ligand_9.pdbqt
 14 15 0 0 0
SMALL
GASTEIGER

@<TRIPOS>ATOM
      1  C          5.4920    2.9140    0.0400 C.3     1  UNL1        0.0800
      2  C          6.3970    3.6630    0.9560 C.2     1  UNL1        0.1300
      3  C          7.2600    4.7710    0.4660 C.3     1  UNL1        0.0870
      4  O          6.4550    3.3860    2.1430 O.2     1  UNL1       -0.3000
      5  C          5.1220    1.5610    0.6150 C.3     1  UNL1        0.0430
      6  C          5.9970    0.4920    0.1030 C.2     1  UNL1       -0.0440
      7  C          6.4380    0.4790   -1.2250 C.2     1  UNL1        0.0080
      8  C          6.3990   -0.5220    0.9430 C.2     1  UNL1        0.0540
      9  C          7.2590   -0.5500   -1.6500 C.2     1  UNL1        0.0510
     10  C          7.2300   -1.5590    0.5090 C.2     1  UNL1        0.1660
     11  C          7.6630   -1.5740   -0.7980 C.2     1  UNL1        0.1650
     12  O          7.7600   -2.6650    1.1390 O.2     1  UNL1       -0.4540
     13  O          8.4590   -2.6990   -0.9450 O.2     1  UNL1       -0.4540
     14  C          8.6210   -3.3700    0.2820 C.3     1  UNL1        0.4680
@<TRIPOS>BOND
     1     9     7    1
     2     9    11    2
     3     7     6    2
     4    13    11    1
     5    13    14    1
     6    11    10    1
     7     1     5    1
     8     1     2    1
     9     6     5    1
    10     6     8    1
    11    14    12    1
    12     3     2    1
    13    10     8    2
    14    10    12    1
    15     2     4    2
