MODEL 1
REMARK VINA RESULT:      -7.8      0.000      0.000
REMARK SMILES CC(=O)CCc1ccc2c(c1)OCO2
REMARK SMILES IDX 4 1 2 2 1 3 3 4 5 5 6 6 7 7 11 8 8 9 10 10 9 11 12 12 14 13
REMARK SMILES IDX 13 14
REMARK H PARENT
REMARK Flexibility Score: inf
ROOT
ATOM      1  C   UNL     1       5.425   2.912   0.280  1.00  0.00     0.080 C 
ENDROOT
BRANCH   1   2
ATOM      2  C   UNL     1       6.374   3.741   1.075  1.00  0.00     0.130 C 
ATOM      3  C   UNL     1       7.235   4.771   0.435  1.00  0.00     0.087 C 
ATOM      4  O   UNL     1       6.472   3.597   2.282  1.00  0.00    -0.300 OA
ENDBRANCH   1   2
BRANCH   1   5
ATOM      5  C   UNL     1       5.152   1.585   0.959  1.00  0.00     0.043 C 
BRANCH   5   6
ATOM      6  C   UNL     1       5.993   0.506   0.410  1.00  0.00    -0.044 A 
ATOM      7  C   UNL     1       6.383  -0.588   1.190  1.00  0.00     0.008 A 
ATOM      8  C   UNL     1       6.408   0.566  -0.901  1.00  0.00     0.054 A 
ATOM      9  C   UNL     1       7.172  -1.571   0.620  1.00  0.00     0.051 A 
ATOM     10  C   UNL     1       7.205  -0.431  -1.472  1.00  0.00     0.166 A 
ATOM     11  C   UNL     1       7.591  -1.507  -0.705  1.00  0.00     0.165 A 
ATOM     12  O   UNL     1       7.741  -0.598  -2.731  1.00  0.00    -0.454 OA
ATOM     13  O   UNL     1       8.362  -2.323  -1.518  1.00  0.00    -0.454 OA
ATOM     14  C   UNL     1       8.408  -1.830  -2.836  1.00  0.00     0.468 C 
ENDBRANCH   5   6
ENDBRANCH   1   5
TORSDOF 3
ENDMDL
MODEL 2
REMARK VINA RESULT:      -7.8      1.003      1.986
REMARK SMILES CC(=O)CCc1ccc2c(c1)OCO2
REMARK SMILES IDX 4 1 2 2 1 3 3 4 5 5 6 6 7 7 11 8 8 9 10 10 9 11 12 12 14 13
REMARK SMILES IDX 13 14
REMARK H PARENT
REMARK Flexibility Score: inf
ROOT
ATOM      1  C   UNL     1       5.492   2.914   0.040  1.00  0.00     0.080 C 
ENDROOT
BRANCH   1   2
ATOM      2  C   UNL     1       6.397   3.663   0.956  1.00  0.00     0.130 C 
ATOM      3  C   UNL     1       7.260   4.771   0.466  1.00  0.00     0.087 C 
ATOM      4  O   UNL     1       6.455   3.386   2.143  1.00  0.00    -0.300 OA
ENDBRANCH   1   2
BRANCH   1   5
ATOM      5  C   UNL     1       5.122   1.561   0.615  1.00  0.00     0.043 C 
BRANCH   5   6
ATOM      6  C   UNL     1       5.997   0.492   0.103  1.00  0.00    -0.044 A 
ATOM      7  C   UNL     1       6.438   0.479  -1.225  1.00  0.00     0.008 A 
ATOM      8  C   UNL     1       6.399  -0.522   0.943  1.00  0.00     0.054 A 
ATOM      9  C   UNL     1       7.259  -0.550  -1.650  1.00  0.00     0.051 A 
ATOM     10  C   UNL     1       7.230  -1.559   0.509  1.00  0.00     0.166 A 
ATOM     11  C   UNL     1       7.663  -1.574  -0.798  1.00  0.00     0.165 A 
ATOM     12  O   UNL     1       7.760  -2.665   1.139  1.00  0.00    -0.454 OA
ATOM     13  O   UNL     1       8.459  -2.699  -0.945  1.00  0.00    -0.454 OA
ATOM     14  C   UNL     1       8.621  -3.370   0.282  1.00  0.00     0.468 C 
ENDBRANCH   5   6
ENDBRANCH   1   5
TORSDOF 3
ENDMDL
MODEL 3
REMARK VINA RESULT:      -7.6      1.885      2.628
REMARK SMILES CC(=O)CCc1ccc2c(c1)OCO2
REMARK SMILES IDX 4 1 2 2 1 3 3 4 5 5 6 6 7 7 11 8 8 9 10 10 9 11 12 12 14 13
REMARK SMILES IDX 13 14
REMARK H PARENT
REMARK Flexibility Score: inf
ROOT
ATOM      1  C   UNL     1       5.540   1.926   1.273  1.00  0.00     0.080 C 
ENDROOT
BRANCH   1   2
ATOM      2  C   UNL     1       5.112   0.708   2.017  1.00  0.00     0.130 C 
ATOM      3  C   UNL     1       6.022  -0.455   2.199  1.00  0.00     0.087 C 
ATOM      4  O   UNL     1       3.994   0.629   2.500  1.00  0.00    -0.300 OA
ENDBRANCH   1   2
BRANCH   1   5
ATOM      5  C   UNL     1       5.407   1.732  -0.224  1.00  0.00     0.043 C 
BRANCH   5   6
ATOM      6  C   UNL     1       6.573   1.030  -0.790  1.00  0.00    -0.044 A 
ATOM      7  C   UNL     1       7.881   1.459  -0.536  1.00  0.00     0.008 A 
ATOM      8  C   UNL     1       6.384  -0.077  -1.585  1.00  0.00     0.054 A 
ATOM      9  C   UNL     1       8.937   0.761  -1.093  1.00  0.00     0.051 A 
ATOM     10  C   UNL     1       7.454  -0.780  -2.145  1.00  0.00     0.166 A 
ATOM     11  C   UNL     1       8.741  -0.358  -1.898  1.00  0.00     0.165 A 
ATOM     12  O   UNL     1       7.526  -1.892  -2.958  1.00  0.00    -0.454 OA
ATOM     13  O   UNL     1       9.585  -1.229  -2.569  1.00  0.00    -0.454 OA
ATOM     14  C   UNL     1       8.860  -2.270  -3.179  1.00  0.00     0.468 C 
ENDBRANCH   5   6
ENDBRANCH   1   5
TORSDOF 3
ENDMDL
MODEL 4
REMARK VINA RESULT:      -7.5      1.177      1.605
REMARK SMILES CC(=O)CCc1ccc2c(c1)OCO2
REMARK SMILES IDX 4 1 2 2 1 3 3 4 5 5 6 6 7 7 11 8 8 9 10 10 9 11 12 12 14 13
REMARK SMILES IDX 13 14
REMARK H PARENT
REMARK Flexibility Score: inf
ROOT
ATOM      1  C   UNL     1       5.500   2.824   0.201  1.00  0.00     0.080 C 
ENDROOT
BRANCH   1   2
ATOM      2  C   UNL     1       6.282   3.816   0.991  1.00  0.00     0.130 C 
ATOM      3  C   UNL     1       7.214   4.774   0.338  1.00  0.00     0.087 C 
ATOM      4  O   UNL     1       6.179   3.871   2.206  1.00  0.00    -0.300 OA
ENDBRANCH   1   2
BRANCH   1   5
ATOM      5  C   UNL     1       5.808   1.406   0.640  1.00  0.00     0.043 C 
BRANCH   5   6
ATOM      6  C   UNL     1       6.843   0.785  -0.205  1.00  0.00    -0.044 A 
ATOM      7  C   UNL     1       8.083   1.399  -0.415  1.00  0.00     0.008 A 
ATOM      8  C   UNL     1       6.596  -0.429  -0.805  1.00  0.00     0.054 A 
ATOM      9  C   UNL     1       9.017   0.768  -1.217  1.00  0.00     0.051 A 
ATOM     10  C   UNL     1       7.544  -1.062  -1.615  1.00  0.00     0.166 A 
ATOM     11  C   UNL     1       8.764  -0.459  -1.822  1.00  0.00     0.165 A 
ATOM     12  O   UNL     1       7.539  -2.251  -2.312  1.00  0.00    -0.454 OA
ATOM     13  O   UNL     1       9.491  -1.299  -2.651  1.00  0.00    -0.454 OA
ATOM     14  C   UNL     1       8.786  -2.489  -2.913  1.00  0.00     0.468 C 
ENDBRANCH   5   6
ENDBRANCH   1   5
TORSDOF 3
ENDMDL
MODEL 5
REMARK VINA RESULT:      -7.5      1.975      3.057
REMARK SMILES CC(=O)CCc1ccc2c(c1)OCO2
REMARK SMILES IDX 4 1 2 2 1 3 3 4 5 5 6 6 7 7 11 8 8 9 10 10 9 11 12 12 14 13
REMARK SMILES IDX 13 14
REMARK H PARENT
REMARK Flexibility Score: inf
ROOT
ATOM      1  C   UNL     1       5.742   1.313  -0.374  1.00  0.00     0.080 C 
ENDROOT
BRANCH   1   2
ATOM      2  C   UNL     1       5.165   1.317   1.000  1.00  0.00     0.130 C 
ATOM      3  C   UNL     1       5.368   0.178   1.935  1.00  0.00     0.087 C 
ATOM      4  O   UNL     1       4.504   2.261   1.400  1.00  0.00    -0.300 OA
ENDBRANCH   1   2
BRANCH   1   5
ATOM      5  C   UNL     1       7.242   1.100  -0.340  1.00  0.00     0.043 C 
BRANCH   5   6
ATOM      6  C   UNL     1       7.623  -0.200  -0.920  1.00  0.00    -0.044 A 
ATOM      7  C   UNL     1       7.710  -0.387  -2.305  1.00  0.00     0.008 A 
ATOM      8  C   UNL     1       7.903  -1.261  -0.090  1.00  0.00     0.054 A 
ATOM      9  C   UNL     1       8.073  -1.630  -2.792  1.00  0.00     0.051 A 
ATOM     10  C   UNL     1       8.270  -2.515  -0.588  1.00  0.00     0.166 A 
ATOM     11  C   UNL     1       8.355  -2.701  -1.950  1.00  0.00     0.165 A 
ATOM     12  O   UNL     1       8.592  -3.710   0.020  1.00  0.00    -0.454 OA
ATOM     13  O   UNL     1       8.733  -4.019  -2.152  1.00  0.00    -0.454 OA
ATOM     14  C   UNL     1       8.982  -4.670  -0.928  1.00  0.00     0.468 C 
ENDBRANCH   5   6
ENDBRANCH   1   5
TORSDOF 3
ENDMDL
