@<TRIPOS>MOLECULE
/home/cewinharhar/GITHUB/reincatalyze/data/processed/docking_pred/2023-May-22-1902_sub9_nm5_bs15_s42_ex16_mel10_mts1000_k50_ec02_g099_lra9e-4_lrc1e-3/955e59fc22a1e87e2ab10a68f3a5c98643a236a4_ligand_9.pdbqt
 14 15 0 0 0
SMALL
GASTEIGER

@<TRIPOS>ATOM
      1  C          6.9210    2.0870   -0.0460 C.3     1  UNL1        0.0800
      2  C          6.0770    2.9210    0.8550 C.2     1  UNL1        0.1300
      3  C          6.5060    4.2760    1.2920 C.3     1  UNL1        0.0870
      4  O          5.0020    2.5120    1.2630 O.2     1  UNL1       -0.3000
      5  C          6.1420    0.9060   -0.5920 C.3     1  UNL1        0.0430
      6  C          6.8280   -0.3710   -0.3250 C.2     1  UNL1       -0.0440
      7  C          7.0210   -0.8410    0.9800 C.2     1  UNL1        0.0080
      8  C          7.2910   -1.1300   -1.3760 C.2     1  UNL1        0.0540
      9  C          7.6710   -2.0470    1.1690 C.2     1  UNL1        0.0510
     10  C          7.9460   -2.3490   -1.1790 C.2     1  UNL1        0.1660
     11  C          8.1380   -2.8110    0.1040 C.2     1  UNL1        0.1650
     12  O          8.4920   -3.2730   -2.0440 O.2     1  UNL1       -0.4540
     13  O          8.8030   -4.0220   -0.0010 O.2     1  UNL1       -0.4540
     14  C          8.9670   -4.3970   -1.3480 C.3     1  UNL1        0.4680
@<TRIPOS>BOND
     1    12    14    1
     2    12    10    1
     3     8    10    1
     4     8     6    2
     5    14    13    1
     6    10    11    2
     7     5     6    1
     8     5     1    1
     9     6     7    1
    10     1     2    1
    11    13    11    1
    12    11     9    1
    13     2     4    2
    14     2     3    1
    15     7     9    2
