@<TRIPOS>MOLECULE
/home/cewinharhar/GITHUB/reincatalyze/data/processed/docking_pred/2023-May-22-1902_sub9_nm5_bs15_s42_ex16_mel10_mts1000_k50_ec02_g099_lra9e-4_lrc1e-3/955e59fc22a1e87e2ab10a68f3a5c98643a236a4_ligand_9.pdbqt
 14 15 0 0 0
SMALL
GASTEIGER

@<TRIPOS>ATOM
      1  C          5.5390    1.9100    1.2590 C.3     1  UNL1        0.0800
      2  C          5.0950    0.6990    2.0040 C.2     1  UNL1        0.1300
      3  C          5.9850   -0.4790    2.1820 C.3     1  UNL1        0.0870
      4  O          3.9780    0.6390    2.4930 O.2     1  UNL1       -0.3000
      5  C          5.4090    1.7130   -0.2380 C.3     1  UNL1        0.0430
      6  C          6.5760    1.0110   -0.8010 C.2     1  UNL1       -0.0440
      7  C          7.8830    1.4430   -0.5490 C.2     1  UNL1        0.0080
      8  C          6.3880   -0.0990   -1.5920 C.2     1  UNL1        0.0540
      9  C          8.9400    0.7440   -1.1030 C.2     1  UNL1        0.0510
     10  C          7.4590   -0.8030   -2.1500 C.2     1  UNL1        0.1660
     11  C          8.7460   -0.3780   -1.9030 C.2     1  UNL1        0.1650
     12  O          7.5320   -1.9180   -2.9580 O.2     1  UNL1       -0.4540
     13  O          9.5910   -1.2500   -2.5710 O.2     1  UNL1       -0.4540
     14  C          8.8680   -2.2940   -3.1780 C.3     1  UNL1        0.4680
@<TRIPOS>BOND
     1    14    12    1
     2    14    13    1
     3    12    10    1
     4    13    11    1
     5    10    11    2
     6    10     8    1
     7    11     9    1
     8     8     6    2
     9     9     7    2
    10     6     7    1
    11     6     5    1
    12     5     1    1
    13     1     2    1
    14     2     3    1
    15     2     4    2
