@<TRIPOS>MOLECULE
/home/cewinharhar/GITHUB/reincatalyze/data/processed/docking_pred/2023-May-22-1902_sub9_nm5_bs15_s42_ex16_mel10_mts1000_k50_ec02_g099_lra9e-4_lrc1e-3/955e59fc22a1e87e2ab10a68f3a5c98643a236a4_ligand_9.pdbqt
 14 15 0 0 0
SMALL
GASTEIGER

@<TRIPOS>ATOM
      1  C          6.3090    0.8830    1.0900 C.3     1  UNL1        0.0800
      2  C          5.0960    1.7360    0.9470 C.2     1  UNL1        0.1300
      3  C          4.8920    2.6110   -0.2390 C.3     1  UNL1        0.0870
      4  O          4.2290    1.7420    1.8060 O.2     1  UNL1       -0.3000
      5  C          7.2570    1.0730   -0.0780 C.3     1  UNL1        0.0430
      6  C          7.5910   -0.2080   -0.7250 C.2     1  UNL1       -0.0440
      7  C          7.5780   -0.3510   -2.1170 C.2     1  UNL1        0.0080
      8  C          7.9290   -1.2950    0.0480 C.2     1  UNL1        0.0540
      9  C          7.9020   -1.5780   -2.6680 C.2     1  UNL1        0.0510
     10  C          8.2560   -2.5330   -0.5140 C.2     1  UNL1        0.1660
     11  C          8.2420   -2.6750   -1.8840 C.2     1  UNL1        0.1650
     12  O          8.6190   -3.7460    0.0310 O.2     1  UNL1       -0.4540
     13  O          8.6010   -3.9860   -2.1540 O.2     1  UNL1       -0.4540
     14  C          8.9370   -4.6750   -0.9730 C.3     1  UNL1        0.4680
@<TRIPOS>BOND
     1     9     7    1
     2     9    11    2
     3    13    11    1
     4    13    14    1
     5     7     6    2
     6    11    10    1
     7    14    12    1
     8     6     5    1
     9     6     8    1
    10    10    12    1
    11    10     8    2
    12     3     2    1
    13     5     1    1
    14     2     1    1
    15     2     4    2
