@<TRIPOS>MOLECULE
/home/cewinharhar/GITHUB/reincatalyze/data/processed/docking_pred/2023-May-22-1902_sub9_nm5_bs15_s42_ex16_mel10_mts1000_k50_ec02_g099_lra9e-4_lrc1e-3/955e59fc22a1e87e2ab10a68f3a5c98643a236a4_ligand_9.pdbqt
 14 15 0 0 0
SMALL
GASTEIGER

@<TRIPOS>ATOM
      1  C          5.7360    1.3090   -0.3620 C.3     1  UNL1        0.0800
      2  C          5.1580    1.3050    1.0100 C.2     1  UNL1        0.1300
      3  C          5.3150    0.1390    1.9200 C.3     1  UNL1        0.0870
      4  O          4.5330    2.2660    1.4300 O.2     1  UNL1       -0.3000
      5  C          7.2370    1.1000   -0.3280 C.3     1  UNL1        0.0430
      6  C          7.6220   -0.1960   -0.9150 C.2     1  UNL1       -0.0440
      7  C          7.7310   -0.3690   -2.3000 C.2     1  UNL1        0.0080
      8  C          7.8840   -1.2670   -0.0920 C.2     1  UNL1        0.0540
      9  C          8.0970   -1.6080   -2.7940 C.2     1  UNL1        0.0510
     10  C          8.2540   -2.5170   -0.5970 C.2     1  UNL1        0.1660
     11  C          8.3610   -2.6890   -1.9600 C.2     1  UNL1        0.1650
     12  O          8.5620   -3.7200    0.0030 O.2     1  UNL1       -0.4540
     13  O          8.7370   -4.0060   -2.1690 O.2     1  UNL1       -0.4540
     14  C          8.9640   -4.6710   -0.9490 C.3     1  UNL1        0.4680
@<TRIPOS>BOND
     1     9     7    1
     2     9    11    2
     3     7     6    2
     4    13    11    1
     5    13    14    1
     6    11    10    1
     7    14    12    1
     8     6     5    1
     9     6     8    1
    10    10     8    2
    11    10    12    1
    12     1     5    1
    13     1     2    1
    14     2     4    2
    15     2     3    1
