MODEL 1
REMARK VINA RESULT:      -7.6      0.000      0.000
REMARK SMILES CC(=O)CCc1ccc2c(c1)OCO2
REMARK SMILES IDX 4 1 2 2 1 3 3 4 5 5 6 6 7 7 11 8 8 9 10 10 9 11 12 12 14 13
REMARK SMILES IDX 13 14
REMARK H PARENT
REMARK Flexibility Score: inf
ROOT
ATOM      1  C   UNL     1       5.539   1.910   1.259  1.00  0.00     0.080 C 
ENDROOT
BRANCH   1   2
ATOM      2  C   UNL     1       5.095   0.699   2.004  1.00  0.00     0.130 C 
ATOM      3  C   UNL     1       5.985  -0.479   2.182  1.00  0.00     0.087 C 
ATOM      4  O   UNL     1       3.978   0.639   2.493  1.00  0.00    -0.300 OA
ENDBRANCH   1   2
BRANCH   1   5
ATOM      5  C   UNL     1       5.409   1.713  -0.238  1.00  0.00     0.043 C 
BRANCH   5   6
ATOM      6  C   UNL     1       6.576   1.011  -0.801  1.00  0.00    -0.044 A 
ATOM      7  C   UNL     1       7.883   1.443  -0.549  1.00  0.00     0.008 A 
ATOM      8  C   UNL     1       6.388  -0.099  -1.592  1.00  0.00     0.054 A 
ATOM      9  C   UNL     1       8.940   0.744  -1.103  1.00  0.00     0.051 A 
ATOM     10  C   UNL     1       7.459  -0.803  -2.150  1.00  0.00     0.166 A 
ATOM     11  C   UNL     1       8.746  -0.378  -1.903  1.00  0.00     0.165 A 
ATOM     12  O   UNL     1       7.532  -1.918  -2.958  1.00  0.00    -0.454 OA
ATOM     13  O   UNL     1       9.591  -1.250  -2.571  1.00  0.00    -0.454 OA
ATOM     14  C   UNL     1       8.868  -2.294  -3.178  1.00  0.00     0.468 C 
ENDBRANCH   5   6
ENDBRANCH   1   5
TORSDOF 3
ENDMDL
MODEL 2
REMARK VINA RESULT:      -7.5      1.926      2.400
REMARK SMILES CC(=O)CCc1ccc2c(c1)OCO2
REMARK SMILES IDX 4 1 2 2 1 3 3 4 5 5 6 6 7 7 11 8 8 9 10 10 9 11 12 12 14 13
REMARK SMILES IDX 13 14
REMARK H PARENT
REMARK Flexibility Score: inf
ROOT
ATOM      1  C   UNL     1       5.736   1.309  -0.362  1.00  0.00     0.080 C 
ENDROOT
BRANCH   1   2
ATOM      2  C   UNL     1       5.158   1.305   1.010  1.00  0.00     0.130 C 
ATOM      3  C   UNL     1       5.315   0.139   1.920  1.00  0.00     0.087 C 
ATOM      4  O   UNL     1       4.533   2.266   1.430  1.00  0.00    -0.300 OA
ENDBRANCH   1   2
BRANCH   1   5
ATOM      5  C   UNL     1       7.237   1.100  -0.328  1.00  0.00     0.043 C 
BRANCH   5   6
ATOM      6  C   UNL     1       7.622  -0.196  -0.915  1.00  0.00    -0.044 A 
ATOM      7  C   UNL     1       7.731  -0.369  -2.300  1.00  0.00     0.008 A 
ATOM      8  C   UNL     1       7.884  -1.267  -0.092  1.00  0.00     0.054 A 
ATOM      9  C   UNL     1       8.097  -1.608  -2.794  1.00  0.00     0.051 A 
ATOM     10  C   UNL     1       8.254  -2.517  -0.597  1.00  0.00     0.166 A 
ATOM     11  C   UNL     1       8.361  -2.689  -1.960  1.00  0.00     0.165 A 
ATOM     12  O   UNL     1       8.562  -3.720   0.003  1.00  0.00    -0.454 OA
ATOM     13  O   UNL     1       8.737  -4.006  -2.169  1.00  0.00    -0.454 OA
ATOM     14  C   UNL     1       8.964  -4.671  -0.949  1.00  0.00     0.468 C 
ENDBRANCH   5   6
ENDBRANCH   1   5
TORSDOF 3
ENDMDL
MODEL 3
REMARK VINA RESULT:      -7.4      1.944      2.594
REMARK SMILES CC(=O)CCc1ccc2c(c1)OCO2
REMARK SMILES IDX 4 1 2 2 1 3 3 4 5 5 6 6 7 7 11 8 8 9 10 10 9 11 12 12 14 13
REMARK SMILES IDX 13 14
REMARK H PARENT
REMARK Flexibility Score: inf
ROOT
ATOM      1  C   UNL     1       6.309   0.883   1.090  1.00  0.00     0.080 C 
ENDROOT
BRANCH   1   2
ATOM      2  C   UNL     1       5.096   1.736   0.947  1.00  0.00     0.130 C 
ATOM      3  C   UNL     1       4.892   2.611  -0.239  1.00  0.00     0.087 C 
ATOM      4  O   UNL     1       4.229   1.742   1.806  1.00  0.00    -0.300 OA
ENDBRANCH   1   2
BRANCH   1   5
ATOM      5  C   UNL     1       7.257   1.073  -0.078  1.00  0.00     0.043 C 
BRANCH   5   6
ATOM      6  C   UNL     1       7.591  -0.208  -0.725  1.00  0.00    -0.044 A 
ATOM      7  C   UNL     1       7.578  -0.351  -2.117  1.00  0.00     0.008 A 
ATOM      8  C   UNL     1       7.929  -1.295   0.048  1.00  0.00     0.054 A 
ATOM      9  C   UNL     1       7.902  -1.578  -2.668  1.00  0.00     0.051 A 
ATOM     10  C   UNL     1       8.256  -2.533  -0.514  1.00  0.00     0.166 A 
ATOM     11  C   UNL     1       8.242  -2.675  -1.884  1.00  0.00     0.165 A 
ATOM     12  O   UNL     1       8.619  -3.746   0.031  1.00  0.00    -0.454 OA
ATOM     13  O   UNL     1       8.601  -3.986  -2.154  1.00  0.00    -0.454 OA
ATOM     14  C   UNL     1       8.937  -4.675  -0.973  1.00  0.00     0.468 C 
ENDBRANCH   5   6
ENDBRANCH   1   5
TORSDOF 3
ENDMDL
MODEL 4
REMARK VINA RESULT:      -7.2      2.184      2.791
REMARK SMILES CC(=O)CCc1ccc2c(c1)OCO2
REMARK SMILES IDX 4 1 2 2 1 3 3 4 5 5 6 6 7 7 11 8 8 9 10 10 9 11 12 12 14 13
REMARK SMILES IDX 13 14
REMARK H PARENT
REMARK Flexibility Score: inf
ROOT
ATOM      1  C   UNL     1       6.921   2.087  -0.046  1.00  0.00     0.080 C 
ENDROOT
BRANCH   1   2
ATOM      2  C   UNL     1       6.077   2.921   0.855  1.00  0.00     0.130 C 
ATOM      3  C   UNL     1       6.506   4.276   1.292  1.00  0.00     0.087 C 
ATOM      4  O   UNL     1       5.002   2.512   1.263  1.00  0.00    -0.300 OA
ENDBRANCH   1   2
BRANCH   1   5
ATOM      5  C   UNL     1       6.142   0.906  -0.592  1.00  0.00     0.043 C 
BRANCH   5   6
ATOM      6  C   UNL     1       6.828  -0.371  -0.325  1.00  0.00    -0.044 A 
ATOM      7  C   UNL     1       7.021  -0.841   0.980  1.00  0.00     0.008 A 
ATOM      8  C   UNL     1       7.291  -1.130  -1.376  1.00  0.00     0.054 A 
ATOM      9  C   UNL     1       7.671  -2.047   1.169  1.00  0.00     0.051 A 
ATOM     10  C   UNL     1       7.946  -2.349  -1.179  1.00  0.00     0.166 A 
ATOM     11  C   UNL     1       8.138  -2.811   0.104  1.00  0.00     0.165 A 
ATOM     12  O   UNL     1       8.492  -3.273  -2.044  1.00  0.00    -0.454 OA
ATOM     13  O   UNL     1       8.803  -4.022  -0.001  1.00  0.00    -0.454 OA
ATOM     14  C   UNL     1       8.967  -4.397  -1.348  1.00  0.00     0.468 C 
ENDBRANCH   5   6
ENDBRANCH   1   5
TORSDOF 3
ENDMDL
MODEL 5
REMARK VINA RESULT:      -7.2      2.204      2.744
REMARK SMILES CC(=O)CCc1ccc2c(c1)OCO2
REMARK SMILES IDX 4 1 2 2 1 3 3 4 5 5 6 6 7 7 11 8 8 9 10 10 9 11 12 12 14 13
REMARK SMILES IDX 13 14
REMARK H PARENT
REMARK Flexibility Score: inf
ROOT
ATOM      1  C   UNL     1       5.374   1.061   1.172  1.00  0.00     0.080 C 
ENDROOT
BRANCH   1   2
ATOM      2  C   UNL     1       5.383   2.462   0.667  1.00  0.00     0.130 C 
ATOM      3  C   UNL     1       6.571   3.343   0.829  1.00  0.00     0.087 C 
ATOM      4  O   UNL     1       4.408   2.932   0.104  1.00  0.00    -0.300 OA
ENDBRANCH   1   2
BRANCH   1   5
ATOM      5  C   UNL     1       6.781   0.561   1.434  1.00  0.00     0.043 C 
BRANCH   5   6
ATOM      6  C   UNL     1       7.205  -0.430   0.429  1.00  0.00    -0.044 A 
ATOM      7  C   UNL     1       7.095  -0.176  -0.943  1.00  0.00     0.008 A 
ATOM      8  C   UNL     1       7.724  -1.637   0.838  1.00  0.00     0.054 A 
ATOM      9  C   UNL     1       7.509  -1.144  -1.840  1.00  0.00     0.051 A 
ATOM     10  C   UNL     1       8.143  -2.612  -0.073  1.00  0.00     0.166 A 
ATOM     11  C   UNL     1       8.034  -2.363  -1.423  1.00  0.00     0.165 A 
ATOM     12  O   UNL     1       8.684  -3.871   0.080  1.00  0.00    -0.454 OA
ATOM     13  O   UNL     1       8.516  -3.486  -2.078  1.00  0.00    -0.454 OA
ATOM     14  C   UNL     1       9.023  -4.429  -1.164  1.00  0.00     0.468 C 
ENDBRANCH   5   6
ENDBRANCH   1   5
TORSDOF 3
ENDMDL
