@<TRIPOS>MOLECULE
/home/cewinharhar/GITHUB/reincatalyze/data/processed/docking_pred/2023-May-22-1902_sub9_nm5_bs15_s42_ex16_mel10_mts1000_k50_ec02_g099_lra9e-4_lrc1e-3/955e59fc22a1e87e2ab10a68f3a5c98643a236a4_ligand_9.pdbqt
 14 15 0 0 0
SMALL
GASTEIGER

@<TRIPOS>ATOM
      1  C          5.3740    1.0610    1.1720 C.3     1  UNL1        0.0800
      2  C          5.3830    2.4620    0.6670 C.2     1  UNL1        0.1300
      3  C          6.5710    3.3430    0.8290 C.3     1  UNL1        0.0870
      4  O          4.4080    2.9320    0.1040 O.2     1  UNL1       -0.3000
      5  C          6.7810    0.5610    1.4340 C.3     1  UNL1        0.0430
      6  C          7.2050   -0.4300    0.4290 C.2     1  UNL1       -0.0440
      7  C          7.0950   -0.1760   -0.9430 C.2     1  UNL1        0.0080
      8  C          7.7240   -1.6370    0.8380 C.2     1  UNL1        0.0540
      9  C          7.5090   -1.1440   -1.8400 C.2     1  UNL1        0.0510
     10  C          8.1430   -2.6120   -0.0730 C.2     1  UNL1        0.1660
     11  C          8.0340   -2.3630   -1.4230 C.2     1  UNL1        0.1650
     12  O          8.6840   -3.8710    0.0800 O.2     1  UNL1       -0.4540
     13  O          8.5160   -3.4860   -2.0780 O.2     1  UNL1       -0.4540
     14  C          9.0230   -4.4290   -1.1640 C.3     1  UNL1        0.4680
@<TRIPOS>BOND
     1    13    11    1
     2    13    14    1
     3     9    11    2
     4     9     7    1
     5    11    10    1
     6    14    12    1
     7     7     6    2
     8    10    12    1
     9    10     8    2
    10     4     2    2
    11     6     8    1
    12     6     5    1
    13     2     3    1
    14     2     1    1
    15     1     5    1
