@<TRIPOS>MOLECULE
/home/cewinharhar/GITHUB/reincatalyze/data/processed/docking_pred/2023-May-22-1902_sub9_nm5_bs15_s42_ex16_mel10_mts1000_k50_ec02_g099_lra9e-4_lrc1e-3/96aa1335557473cc7235c71144735280de1f686e_ligand_9.pdbqt
 14 15 0 0 0
SMALL
GASTEIGER

@<TRIPOS>ATOM
      1  C          5.4250    2.9460    0.1030 C.3     1  UNL1        0.0800
      2  C          6.1980    3.9010    0.9450 C.2     1  UNL1        0.1300
      3  C          7.2530    4.7750    0.3670 C.3     1  UNL1        0.0870
      4  O          5.9860    3.9930    2.1440 O.2     1  UNL1       -0.3000
      5  C          5.6600    1.5130    0.5380 C.3     1  UNL1        0.0430
      6  C          6.7220    0.8690   -0.2550 C.2     1  UNL1       -0.0440
      7  C          8.0140    1.4040   -0.3220 C.2     1  UNL1        0.0080
      8  C          6.4490   -0.2880   -0.9480 C.2     1  UNL1        0.0540
      9  C          8.9700    0.7550   -1.0810 C.2     1  UNL1        0.0510
     10  C          7.4200   -0.9410   -1.7140 C.2     1  UNL1        0.1660
     11  C          8.6910   -0.4150   -1.7810 C.2     1  UNL1        0.1650
     12  O          7.3970   -2.0850   -2.4830 O.2     1  UNL1       -0.4540
     13  O          9.4300   -1.2560   -2.5980 O.2     1  UNL1       -0.4540
     14  C          8.6740   -2.3770   -2.9910 C.3     1  UNL1        0.4680
@<TRIPOS>BOND
     1    14    13    1
     2    14    12    1
     3    13    11    1
     4    12    10    1
     5    11    10    2
     6    11     9    1
     7    10     8    1
     8     9     7    2
     9     8     6    2
    10     7     6    1
    11     6     5    1
    12     1     5    1
    13     1     2    1
    14     3     2    1
    15     2     4    2
