MODEL 1
REMARK VINA RESULT:      -7.9      0.000      0.000
REMARK SMILES CC(=O)CCc1ccc2c(c1)OCO2
REMARK SMILES IDX 4 1 2 2 1 3 3 4 5 5 6 6 7 7 11 8 8 9 10 10 9 11 12 12 14 13
REMARK SMILES IDX 13 14
REMARK H PARENT
REMARK Flexibility Score: inf
ROOT
ATOM      1  C   UNL     1       5.425   2.946   0.103  1.00  0.00     0.080 C 
ENDROOT
BRANCH   1   2
ATOM      2  C   UNL     1       6.198   3.901   0.945  1.00  0.00     0.130 C 
ATOM      3  C   UNL     1       7.253   4.775   0.367  1.00  0.00     0.087 C 
ATOM      4  O   UNL     1       5.986   3.993   2.144  1.00  0.00    -0.300 OA
ENDBRANCH   1   2
BRANCH   1   5
ATOM      5  C   UNL     1       5.660   1.513   0.538  1.00  0.00     0.043 C 
BRANCH   5   6
ATOM      6  C   UNL     1       6.722   0.869  -0.255  1.00  0.00    -0.044 A 
ATOM      7  C   UNL     1       8.014   1.404  -0.322  1.00  0.00     0.008 A 
ATOM      8  C   UNL     1       6.449  -0.288  -0.948  1.00  0.00     0.054 A 
ATOM      9  C   UNL     1       8.970   0.755  -1.081  1.00  0.00     0.051 A 
ATOM     10  C   UNL     1       7.420  -0.941  -1.714  1.00  0.00     0.166 A 
ATOM     11  C   UNL     1       8.691  -0.415  -1.781  1.00  0.00     0.165 A 
ATOM     12  O   UNL     1       7.397  -2.085  -2.483  1.00  0.00    -0.454 OA
ATOM     13  O   UNL     1       9.430  -1.256  -2.598  1.00  0.00    -0.454 OA
ATOM     14  C   UNL     1       8.674  -2.377  -2.991  1.00  0.00     0.468 C 
ENDBRANCH   5   6
ENDBRANCH   1   5
TORSDOF 3
ENDMDL
MODEL 2
REMARK VINA RESULT:      -7.9      1.213      1.420
REMARK SMILES CC(=O)CCc1ccc2c(c1)OCO2
REMARK SMILES IDX 4 1 2 2 1 3 3 4 5 5 6 6 7 7 11 8 8 9 10 10 9 11 12 12 14 13
REMARK SMILES IDX 13 14
REMARK H PARENT
REMARK Flexibility Score: inf
ROOT
ATOM      1  C   UNL     1       5.399   2.953   0.401  1.00  0.00     0.080 C 
ENDROOT
BRANCH   1   2
ATOM      2  C   UNL     1       6.256   3.951   1.099  1.00  0.00     0.130 C 
ATOM      3  C   UNL     1       7.293   4.733   0.374  1.00  0.00     0.087 C 
ATOM      4  O   UNL     1       6.130   4.158   2.295  1.00  0.00    -0.300 OA
ENDBRANCH   1   2
BRANCH   1   5
ATOM      5  C   UNL     1       5.284   1.670   1.201  1.00  0.00     0.043 C 
BRANCH   5   6
ATOM      6  C   UNL     1       6.184   0.622   0.686  1.00  0.00    -0.044 A 
ATOM      7  C   UNL     1       6.977  -0.149   1.544  1.00  0.00     0.008 A 
ATOM      8  C   UNL     1       6.251   0.386  -0.668  1.00  0.00     0.054 A 
ATOM      9  C   UNL     1       7.801  -1.119   1.004  1.00  0.00     0.051 A 
ATOM     10  C   UNL     1       7.086  -0.596  -1.209  1.00  0.00     0.166 A 
ATOM     11  C   UNL     1       7.867  -1.355  -0.366  1.00  0.00     0.165 A 
ATOM     12  O   UNL     1       7.329  -1.016  -2.499  1.00  0.00    -0.454 OA
ATOM     13  O   UNL     1       8.581  -2.235  -1.165  1.00  0.00    -0.454 OA
ATOM     14  C   UNL     1       8.202  -2.116  -2.516  1.00  0.00     0.468 C 
ENDBRANCH   5   6
ENDBRANCH   1   5
TORSDOF 3
ENDMDL
MODEL 3
REMARK VINA RESULT:      -7.7      1.861      2.592
REMARK SMILES CC(=O)CCc1ccc2c(c1)OCO2
REMARK SMILES IDX 4 1 2 2 1 3 3 4 5 5 6 6 7 7 11 8 8 9 10 10 9 11 12 12 14 13
REMARK SMILES IDX 13 14
REMARK H PARENT
REMARK Flexibility Score: inf
ROOT
ATOM      1  C   UNL     1       6.128   0.745   1.058  1.00  0.00     0.080 C 
ENDROOT
BRANCH   1   2
ATOM      2  C   UNL     1       5.019   1.732   0.935  1.00  0.00     0.130 C 
ATOM      3  C   UNL     1       4.918   2.653  -0.228  1.00  0.00     0.087 C 
ATOM      4  O   UNL     1       4.155   1.813   1.793  1.00  0.00    -0.300 OA
ENDBRANCH   1   2
BRANCH   1   5
ATOM      5  C   UNL     1       7.186   0.972  -0.003  1.00  0.00     0.043 C 
BRANCH   5   6
ATOM      6  C   UNL     1       7.550  -0.281  -0.689  1.00  0.00    -0.044 A 
ATOM      7  C   UNL     1       7.564  -0.375  -2.085  1.00  0.00     0.008 A 
ATOM      8  C   UNL     1       7.887  -1.391   0.052  1.00  0.00     0.054 A 
ATOM      9  C   UNL     1       7.915  -1.577  -2.673  1.00  0.00     0.051 A 
ATOM     10  C   UNL     1       8.241  -2.604  -0.547  1.00  0.00     0.166 A 
ATOM     11  C   UNL     1       8.254  -2.698  -1.921  1.00  0.00     0.165 A 
ATOM     12  O   UNL     1       8.610  -3.831  -0.038  1.00  0.00    -0.454 OA
ATOM     13  O   UNL     1       8.636  -3.994  -2.230  1.00  0.00    -0.454 OA
ATOM     14  C   UNL     1       8.959  -4.720  -1.068  1.00  0.00     0.468 C 
ENDBRANCH   5   6
ENDBRANCH   1   5
TORSDOF 3
ENDMDL
MODEL 4
REMARK VINA RESULT:      -7.6      2.078      2.460
REMARK SMILES CC(=O)CCc1ccc2c(c1)OCO2
REMARK SMILES IDX 4 1 2 2 1 3 3 4 5 5 6 6 7 7 11 8 8 9 10 10 9 11 12 12 14 13
REMARK SMILES IDX 13 14
REMARK H PARENT
REMARK Flexibility Score: inf
ROOT
ATOM      1  C   UNL     1       5.618   1.289  -0.516  1.00  0.00     0.080 C 
ENDROOT
BRANCH   1   2
ATOM      2  C   UNL     1       5.348   2.251   0.589  1.00  0.00     0.130 C 
ATOM      3  C   UNL     1       6.125   3.510   0.736  1.00  0.00     0.087 C 
ATOM      4  O   UNL     1       4.474   2.030   1.412  1.00  0.00    -0.300 OA
ENDBRANCH   1   2
BRANCH   1   5
ATOM      5  C   UNL     1       7.107   1.111  -0.738  1.00  0.00     0.043 C 
BRANCH   5   6
ATOM      6  C   UNL     1       7.545  -0.262  -0.433  1.00  0.00    -0.044 A 
ATOM      7  C   UNL     1       7.677  -0.713   0.886  1.00  0.00     0.008 A 
ATOM      8  C   UNL     1       7.830  -1.132  -1.461  1.00  0.00     0.054 A 
ATOM      9  C   UNL     1       8.091  -2.013   1.112  1.00  0.00     0.051 A 
ATOM     10  C   UNL     1       8.248  -2.446  -1.227  1.00  0.00     0.166 A 
ATOM     11  C   UNL     1       8.380  -2.890   0.070  1.00  0.00     0.165 A 
ATOM     12  O   UNL     1       8.588  -3.487  -2.064  1.00  0.00    -0.454 OA
ATOM     13  O   UNL     1       8.801  -4.208   0.001  1.00  0.00    -0.454 OA
ATOM     14  C   UNL     1       8.859  -4.655  -1.333  1.00  0.00     0.468 C 
ENDBRANCH   5   6
ENDBRANCH   1   5
TORSDOF 3
ENDMDL
MODEL 5
REMARK VINA RESULT:      -7.6      1.939      2.312
REMARK SMILES CC(=O)CCc1ccc2c(c1)OCO2
REMARK SMILES IDX 4 1 2 2 1 3 3 4 5 5 6 6 7 7 11 8 8 9 10 10 9 11 12 12 14 13
REMARK SMILES IDX 13 14
REMARK H PARENT
REMARK Flexibility Score: inf
ROOT
ATOM      1  C   UNL     1       5.385   1.102   1.123  1.00  0.00     0.080 C 
ENDROOT
BRANCH   1   2
ATOM      2  C   UNL     1       5.362   2.490   0.582  1.00  0.00     0.130 C 
ATOM      3  C   UNL     1       6.571   3.356   0.603  1.00  0.00     0.087 C 
ATOM      4  O   UNL     1       4.342   2.959   0.103  1.00  0.00    -0.300 OA
ENDBRANCH   1   2
BRANCH   1   5
ATOM      5  C   UNL     1       6.805   0.632   1.372  1.00  0.00     0.043 C 
BRANCH   5   6
ATOM      6  C   UNL     1       7.226  -0.382   0.389  1.00  0.00    -0.044 A 
ATOM      7  C   UNL     1       7.126  -0.153  -0.988  1.00  0.00     0.008 A 
ATOM      8  C   UNL     1       7.732  -1.585   0.824  1.00  0.00     0.054 A 
ATOM      9  C   UNL     1       7.538  -1.141  -1.864  1.00  0.00     0.051 A 
ATOM     10  C   UNL     1       8.148  -2.581  -0.066  1.00  0.00     0.166 A 
ATOM     11  C   UNL     1       8.049  -2.357  -1.421  1.00  0.00     0.165 A 
ATOM     12  O   UNL     1       8.676  -3.841   0.115  1.00  0.00    -0.454 OA
ATOM     13  O   UNL     1       8.526  -3.495  -2.051  1.00  0.00    -0.454 OA
ATOM     14  C   UNL     1       9.018  -4.425  -1.116  1.00  0.00     0.468 C 
ENDBRANCH   5   6
ENDBRANCH   1   5
TORSDOF 3
ENDMDL
