@<TRIPOS>MOLECULE
/home/cewinharhar/GITHUB/reincatalyze/data/processed/docking_pred/2023-May-22-1902_sub9_nm5_bs15_s42_ex16_mel10_mts1000_k50_ec02_g099_lra9e-4_lrc1e-3/97a603521aa4ec025b6db977763cb198737ffc85_ligand_9.pdbqt
 14 15 0 0 0
SMALL
GASTEIGER

@<TRIPOS>ATOM
      1  C          6.3920    0.9620    1.1080 C.3     1  UNL1        0.0800
      2  C          5.1460    1.7570    0.9210 C.2     1  UNL1        0.1300
      3  C          4.9040    2.5520   -0.3120 C.3     1  UNL1        0.0870
      4  O          4.2820    1.7780    1.7820 O.2     1  UNL1       -0.3000
      5  C          7.3280    1.1210   -0.0740 C.3     1  UNL1        0.0430
      6  C          7.6330   -0.1750   -0.7070 C.2     1  UNL1       -0.0440
      7  C          7.5820   -0.3430   -2.0960 C.2     1  UNL1        0.0080
      8  C          7.9810   -1.2520    0.0770 C.2     1  UNL1        0.0540
      9  C          7.8790   -1.5820   -2.6330 C.2     1  UNL1        0.0510
     10  C          8.2810   -2.5020   -0.4710 C.2     1  UNL1        0.1660
     11  C          8.2300   -2.6690   -1.8380 C.2     1  UNL1        0.1650
     12  O          8.6470   -3.7090    0.0860 O.2     1  UNL1       -0.4540
     13  O          8.5700   -3.9880   -2.0940 O.2     1  UNL1       -0.4540
     14  C          8.9300   -4.6590   -0.9100 C.3     1  UNL1        0.4680
@<TRIPOS>BOND
     1     9     7    1
     2     9    11    2
     3     7     6    2
     4    13    11    1
     5    13    14    1
     6    11    10    1
     7    14    12    1
     8     6     5    1
     9     6     8    1
    10    10     8    2
    11    10    12    1
    12     3     2    1
    13     5     1    1
    14     2     1    1
    15     2     4    2
