@<TRIPOS>MOLECULE
/home/cewinharhar/GITHUB/reincatalyze/data/processed/docking_pred/2023-May-22-1902_sub9_nm5_bs15_s42_ex16_mel10_mts1000_k50_ec02_g099_lra9e-4_lrc1e-3/98720eda2f8b5e3d73e45599e80051818594e19a_ligand_9.pdbqt
 14 15 0 0 0
SMALL
GASTEIGER

@<TRIPOS>ATOM
      1  C          6.8840   -0.6860   -0.8850 C.3     1  UNL1        0.0800
      2  C          7.7730   -0.4960   -2.0650 C.2     1  UNL1        0.1300
      3  C          8.1870   -1.6390   -2.9230 C.3     1  UNL1        0.0870
      4  O          8.1910    0.6110   -2.3640 O.2     1  UNL1       -0.3000
      5  C          7.5950   -1.4340    0.2250 C.3     1  UNL1        0.0430
      6  C          8.4220   -0.5330    1.0480 C.2     1  UNL1       -0.0440
      7  C          7.8530    0.4940    1.8100 C.2     1  UNL1        0.0080
      8  C          9.7880   -0.6990    1.0790 C.2     1  UNL1        0.0540
      9  C          8.6790    1.3070    2.5640 C.2     1  UNL1        0.0510
     10  C         10.6190    0.1260    1.8430 C.2     1  UNL1        0.1660
     11  C         10.0590    1.1370    2.5920 C.2     1  UNL1        0.1650
     12  O         11.9830    0.1650    2.0370 O.2     1  UNL1       -0.4540
     13  O         11.1030    1.7820    3.2370 O.2     1  UNL1       -0.4540
     14  C         12.3300    1.1410    2.9850 C.3     1  UNL1        0.4680
@<TRIPOS>BOND
     1     3     2    1
     2     4     2    2
     3     2     1    1
     4     1     5    1
     5     5     6    1
     6     6     8    2
     7     6     7    1
     8     8    10    1
     9     7     9    2
    10    10    12    1
    11    10    11    2
    12    12    14    1
    13     9    11    1
    14    11    13    1
    15    14    13    1
