@<TRIPOS>MOLECULE
/home/cewinharhar/GITHUB/reincatalyze/data/processed/docking_pred/2023-May-22-1902_sub9_nm5_bs15_s42_ex16_mel10_mts1000_k50_ec02_g099_lra9e-4_lrc1e-3/98720eda2f8b5e3d73e45599e80051818594e19a_ligand_9.pdbqt
 14 15 0 0 0
SMALL
GASTEIGER

@<TRIPOS>ATOM
      1  C          8.0010   -1.9900   -0.3340 C.3     1  UNL1        0.0800
      2  C          7.9050   -1.7350   -1.7990 C.2     1  UNL1        0.1300
      3  C          7.7730   -0.3580   -2.3440 C.3     1  UNL1        0.0870
      4  O          7.9310   -2.6570   -2.5980 O.2     1  UNL1       -0.3000
      5  C          7.3620   -0.8700    0.4630 C.3     1  UNL1        0.0430
      6  C          8.3570   -0.1300    1.2590 C.2     1  UNL1       -0.0440
      7  C          7.9860    0.9270    2.0980 C.2     1  UNL1        0.0080
      8  C          9.6870   -0.4790    1.1850 C.2     1  UNL1        0.0540
      9  C          8.9630    1.5850    2.8220 C.2     1  UNL1        0.0510
     10  C         10.6710    0.1890    1.9200 C.2     1  UNL1        0.1660
     11  C         10.3060    1.2300    2.7450 C.2     1  UNL1        0.1650
     12  O         12.0380    0.0350    2.0170 O.2     1  UNL1       -0.4540
     13  O         11.4680    1.6970    3.3380 O.2     1  UNL1       -0.4540
     14  C         12.5770    0.9090    2.9750 C.3     1  UNL1        0.4680
@<TRIPOS>BOND
     1     4     2    2
     2     3     2    1
     3     2     1    1
     4     1     5    1
     5     5     6    1
     6     8     6    2
     7     8    10    1
     8     6     7    1
     9    10    12    1
    10    10    11    2
    11    12    14    1
    12     7     9    2
    13    11     9    1
    14    11    13    1
    15    14    13    1
