@<TRIPOS>MOLECULE
/home/cewinharhar/GITHUB/reincatalyze/data/processed/docking_pred/2023-May-22-1902_sub9_nm5_bs15_s42_ex16_mel10_mts1000_k50_ec02_g099_lra9e-4_lrc1e-3/98720eda2f8b5e3d73e45599e80051818594e19a_ligand_9.pdbqt
 14 15 0 0 0
SMALL
GASTEIGER

@<TRIPOS>ATOM
      1  C         10.3730    1.6340    3.0640 C.3     1  UNL1        0.0800
      2  C         11.8320    1.4740    3.3180 C.2     1  UNL1        0.1300
      3  C         12.6460    0.4640    2.5900 C.3     1  UNL1        0.0870
      4  O         12.4060    2.1730    4.1380 O.2     1  UNL1       -0.3000
      5  C         10.1020    1.9740    1.6120 C.3     1  UNL1        0.0430
      6  C          9.3630    0.8980    0.9270 C.2     1  UNL1       -0.0440
      7  C          8.3980    0.1340    1.5930 C.2     1  UNL1        0.0080
      8  C          9.6170    0.6320   -0.3990 C.2     1  UNL1        0.0540
      9  C          7.7350   -0.8620    0.9000 C.2     1  UNL1        0.0510
     10  C          8.9440   -0.3750   -1.0960 C.2     1  UNL1        0.1660
     11  C          7.9950   -1.1290   -0.4410 C.2     1  UNL1        0.1650
     12  O          9.0160   -0.8280   -2.3960 O.2     1  UNL1       -0.4540
     13  O          7.4990   -2.0370   -1.3630 O.2     1  UNL1       -0.4540
     14  C          8.0530   -1.8210   -2.6390 C.3     1  UNL1        0.4680
@<TRIPOS>BOND
     1    14    12    1
     2    14    13    1
     3    12    10    1
     4    13    11    1
     5    10    11    2
     6    10     8    1
     7    11     9    1
     8     8     6    2
     9     9     7    2
    10     6     7    1
    11     6     5    1
    12     5     1    1
    13     3     2    1
    14     1     2    1
    15     2     4    2
