MODEL 1
REMARK VINA RESULT:      -7.8      0.000      0.000
REMARK SMILES CC(=O)CCc1ccc2c(c1)OCO2
REMARK SMILES IDX 4 1 2 2 1 3 3 4 5 5 6 6 7 7 11 8 8 9 10 10 9 11 12 12 14 13
REMARK SMILES IDX 13 14
REMARK H PARENT
REMARK Flexibility Score: inf
ROOT
ATOM      1  C   UNL     1       5.443   2.913   0.288  1.00  0.00     0.080 C 
ENDROOT
BRANCH   1   2
ATOM      2  C   UNL     1       6.285   3.887   1.038  1.00  0.00     0.130 C 
ATOM      3  C   UNL     1       7.256   4.775   0.346  1.00  0.00     0.087 C 
ATOM      4  O   UNL     1       6.200   3.983   2.252  1.00  0.00    -0.300 OA
ENDBRANCH   1   2
BRANCH   1   5
ATOM      5  C   UNL     1       5.289   1.614   1.055  1.00  0.00     0.043 C 
BRANCH   5   6
ATOM      6  C   UNL     1       6.092   0.531   0.460  1.00  0.00    -0.044 A 
ATOM      7  C   UNL     1       6.447  -0.607   1.195  1.00  0.00     0.008 A 
ATOM      8  C   UNL     1       6.507   0.628  -0.848  1.00  0.00     0.054 A 
ATOM      9  C   UNL     1       7.202  -1.592   0.585  1.00  0.00     0.051 A 
ATOM     10  C   UNL     1       7.269  -0.371  -1.461  1.00  0.00     0.166 A 
ATOM     11  C   UNL     1       7.620  -1.490  -0.739  1.00  0.00     0.165 A 
ATOM     12  O   UNL     1       7.797  -0.507  -2.728  1.00  0.00    -0.454 OA
ATOM     13  O   UNL     1       8.362  -2.298  -1.586  1.00  0.00    -0.454 OA
ATOM     14  C   UNL     1       8.421  -1.755  -2.883  1.00  0.00     0.468 C 
ENDBRANCH   5   6
ENDBRANCH   1   5
TORSDOF 3
ENDMDL
MODEL 2
REMARK VINA RESULT:      -7.7      0.994      1.981
REMARK SMILES CC(=O)CCc1ccc2c(c1)OCO2
REMARK SMILES IDX 4 1 2 2 1 3 3 4 5 5 6 6 7 7 11 8 8 9 10 10 9 11 12 12 14 13
REMARK SMILES IDX 13 14
REMARK H PARENT
REMARK Flexibility Score: inf
ROOT
ATOM      1  C   UNL     1       5.427   2.945   0.171  1.00  0.00     0.080 C 
ENDROOT
BRANCH   1   2
ATOM      2  C   UNL     1       6.206   3.930   0.973  1.00  0.00     0.130 C 
ATOM      3  C   UNL     1       7.273   4.765   0.361  1.00  0.00     0.087 C 
ATOM      4  O   UNL     1       5.988   4.080   2.164  1.00  0.00    -0.300 OA
ENDBRANCH   1   2
BRANCH   1   5
ATOM      5  C   UNL     1       5.259   1.637   0.918  1.00  0.00     0.043 C 
BRANCH   5   6
ATOM      6  C   UNL     1       6.051   0.553   0.310  1.00  0.00    -0.044 A 
ATOM      7  C   UNL     1       6.353   0.545  -1.057  1.00  0.00     0.008 A 
ATOM      8  C   UNL     1       6.512  -0.478   1.095  1.00  0.00     0.054 A 
ATOM      9  C   UNL     1       7.101  -0.498  -1.572  1.00  0.00     0.051 A 
ATOM     10  C   UNL     1       7.269  -1.530   0.569  1.00  0.00     0.166 A 
ATOM     11  C   UNL     1       7.565  -1.540  -0.776  1.00  0.00     0.165 A 
ATOM     12  O   UNL     1       7.834  -2.655   1.132  1.00  0.00    -0.454 OA
ATOM     13  O   UNL     1       8.315  -2.682  -1.013  1.00  0.00    -0.454 OA
ATOM     14  C   UNL     1       8.585  -3.370   0.185  1.00  0.00     0.468 C 
ENDBRANCH   5   6
ENDBRANCH   1   5
TORSDOF 3
ENDMDL
MODEL 3
REMARK VINA RESULT:      -7.7      1.920      2.653
REMARK SMILES CC(=O)CCc1ccc2c(c1)OCO2
REMARK SMILES IDX 4 1 2 2 1 3 3 4 5 5 6 6 7 7 11 8 8 9 10 10 9 11 12 12 14 13
REMARK SMILES IDX 13 14
REMARK H PARENT
REMARK Flexibility Score: inf
ROOT
ATOM      1  C   UNL     1       5.512   1.939   1.254  1.00  0.00     0.080 C 
ENDROOT
BRANCH   1   2
ATOM      2  C   UNL     1       5.088   0.721   2.000  1.00  0.00     0.130 C 
ATOM      3  C   UNL     1       5.998  -0.442   2.177  1.00  0.00     0.087 C 
ATOM      4  O   UNL     1       3.973   0.642   2.490  1.00  0.00    -0.300 OA
ENDBRANCH   1   2
BRANCH   1   5
ATOM      5  C   UNL     1       5.388   1.738  -0.243  1.00  0.00     0.043 C 
BRANCH   5   6
ATOM      6  C   UNL     1       6.556   1.032  -0.799  1.00  0.00    -0.044 A 
ATOM      7  C   UNL     1       7.863   1.459  -0.537  1.00  0.00     0.008 A 
ATOM      8  C   UNL     1       6.369  -0.076  -1.593  1.00  0.00     0.054 A 
ATOM      9  C   UNL     1       8.920   0.756  -1.085  1.00  0.00     0.051 A 
ATOM     10  C   UNL     1       7.441  -0.784  -2.144  1.00  0.00     0.166 A 
ATOM     11  C   UNL     1       8.728  -0.364  -1.888  1.00  0.00     0.165 A 
ATOM     12  O   UNL     1       7.516  -1.898  -2.953  1.00  0.00    -0.454 OA
ATOM     13  O   UNL     1       9.574  -1.238  -2.551  1.00  0.00    -0.454 OA
ATOM     14  C   UNL     1       8.851  -2.279  -3.164  1.00  0.00     0.468 C 
ENDBRANCH   5   6
ENDBRANCH   1   5
TORSDOF 3
ENDMDL
MODEL 4
REMARK VINA RESULT:      -7.5      1.995      3.059
REMARK SMILES CC(=O)CCc1ccc2c(c1)OCO2
REMARK SMILES IDX 4 1 2 2 1 3 3 4 5 5 6 6 7 7 11 8 8 9 10 10 9 11 12 12 14 13
REMARK SMILES IDX 13 14
REMARK H PARENT
REMARK Flexibility Score: inf
ROOT
ATOM      1  C   UNL     1       5.759   1.363  -0.357  1.00  0.00     0.080 C 
ENDROOT
BRANCH   1   2
ATOM      2  C   UNL     1       5.137   1.317   0.995  1.00  0.00     0.130 C 
ATOM      3  C   UNL     1       5.406   0.200   1.941  1.00  0.00     0.087 C 
ATOM      4  O   UNL     1       4.382   2.200   1.369  1.00  0.00    -0.300 OA
ENDBRANCH   1   2
BRANCH   1   5
ATOM      5  C   UNL     1       7.253   1.118  -0.285  1.00  0.00     0.043 C 
BRANCH   5   6
ATOM      6  C   UNL     1       7.623  -0.178  -0.882  1.00  0.00    -0.044 A 
ATOM      7  C   UNL     1       7.703  -0.349  -2.269  1.00  0.00     0.008 A 
ATOM      8  C   UNL     1       7.902  -1.251  -0.067  1.00  0.00     0.054 A 
ATOM      9  C   UNL     1       8.057  -1.587  -2.773  1.00  0.00     0.051 A 
ATOM     10  C   UNL     1       8.259  -2.501  -0.581  1.00  0.00     0.166 A 
ATOM     11  C   UNL     1       8.337  -2.670  -1.945  1.00  0.00     0.165 A 
ATOM     12  O   UNL     1       8.578  -3.704   0.011  1.00  0.00    -0.454 OA
ATOM     13  O   UNL     1       8.707  -3.988  -2.165  1.00  0.00    -0.454 OA
ATOM     14  C   UNL     1       8.959  -4.654  -0.951  1.00  0.00     0.468 C 
ENDBRANCH   5   6
ENDBRANCH   1   5
TORSDOF 3
ENDMDL
MODEL 5
REMARK VINA RESULT:      -7.5      1.860      2.867
REMARK SMILES CC(=O)CCc1ccc2c(c1)OCO2
REMARK SMILES IDX 4 1 2 2 1 3 3 4 5 5 6 6 7 7 11 8 8 9 10 10 9 11 12 12 14 13
REMARK SMILES IDX 13 14
REMARK H PARENT
REMARK Flexibility Score: inf
ROOT
ATOM      1  C   UNL     1       6.325   0.883   1.063  1.00  0.00     0.080 C 
ENDROOT
BRANCH   1   2
ATOM      2  C   UNL     1       5.116   1.744   0.929  1.00  0.00     0.130 C 
ATOM      3  C   UNL     1       4.912   2.625  -0.252  1.00  0.00     0.087 C 
ATOM      4  O   UNL     1       4.253   1.750   1.792  1.00  0.00    -0.300 OA
ENDBRANCH   1   2
BRANCH   1   5
ATOM      5  C   UNL     1       7.265   1.068  -0.112  1.00  0.00     0.043 C 
BRANCH   5   6
ATOM      6  C   UNL     1       7.592  -0.216  -0.757  1.00  0.00    -0.044 A 
ATOM      7  C   UNL     1       7.560  -0.366  -2.148  1.00  0.00     0.008 A 
ATOM      8  C   UNL     1       7.942  -1.298   0.017  1.00  0.00     0.054 A 
ATOM      9  C   UNL     1       7.878  -1.595  -2.698  1.00  0.00     0.051 A 
ATOM     10  C   UNL     1       8.263  -2.538  -0.543  1.00  0.00     0.166 A 
ATOM     11  C   UNL     1       8.231  -2.688  -1.912  1.00  0.00     0.165 A 
ATOM     12  O   UNL     1       8.636  -3.748   0.003  1.00  0.00    -0.454 OA
ATOM     13  O   UNL     1       8.588  -4.000  -2.180  1.00  0.00    -0.454 OA
ATOM     14  C   UNL     1       8.941  -4.682  -1.001  1.00  0.00     0.468 C 
ENDBRANCH   5   6
ENDBRANCH   1   5
TORSDOF 3
ENDMDL
