@<TRIPOS>MOLECULE
/home/cewinharhar/GITHUB/reincatalyze/data/processed/docking_pred/2023-May-22-1902_sub9_nm5_bs15_s42_ex16_mel10_mts1000_k50_ec02_g099_lra9e-4_lrc1e-3/9c92d7019ca479aa147a964f0da84773825070a7_ligand_9.pdbqt
 14 15 0 0 0
SMALL
GASTEIGER

@<TRIPOS>ATOM
      1  C          5.7420    1.3130   -0.3740 C.3     1  UNL1        0.0800
      2  C          5.1650    1.3170    1.0000 C.2     1  UNL1        0.1300
      3  C          5.3680    0.1780    1.9350 C.3     1  UNL1        0.0870
      4  O          4.5040    2.2610    1.4000 O.2     1  UNL1       -0.3000
      5  C          7.2420    1.1000   -0.3400 C.3     1  UNL1        0.0430
      6  C          7.6230   -0.2000   -0.9200 C.2     1  UNL1       -0.0440
      7  C          7.7100   -0.3870   -2.3050 C.2     1  UNL1        0.0080
      8  C          7.9030   -1.2610   -0.0900 C.2     1  UNL1        0.0540
      9  C          8.0730   -1.6300   -2.7920 C.2     1  UNL1        0.0510
     10  C          8.2700   -2.5150   -0.5880 C.2     1  UNL1        0.1660
     11  C          8.3550   -2.7010   -1.9500 C.2     1  UNL1        0.1650
     12  O          8.5920   -3.7100    0.0200 O.2     1  UNL1       -0.4540
     13  O          8.7330   -4.0190   -2.1520 O.2     1  UNL1       -0.4540
     14  C          8.9820   -4.6700   -0.9280 C.3     1  UNL1        0.4680
@<TRIPOS>BOND
     1     9     7    1
     2     9    11    2
     3     7     6    2
     4    13    11    1
     5    13    14    1
     6    11    10    1
     7    14    12    1
     8     6     5    1
     9     6     8    1
    10    10     8    2
    11    10    12    1
    12     1     5    1
    13     1     2    1
    14     2     4    2
    15     2     3    1
