@<TRIPOS>MOLECULE
/home/cewinharhar/GITHUB/reincatalyze/data/processed/docking_pred/2023-May-22-1902_sub9_nm5_bs15_s42_ex16_mel10_mts1000_k50_ec02_g099_lra9e-4_lrc1e-3/9cf679a9c5542d052f5b9fd38195e755841f8057_ligand_9.pdbqt
 14 15 0 0 0
SMALL
GASTEIGER

@<TRIPOS>ATOM
      1  C          5.3710    0.7380    1.5010 C.3     1  UNL1        0.0800
      2  C          5.4320    2.1540    1.0410 C.2     1  UNL1        0.1300
      3  C          4.9500    2.5590   -0.3060 C.3     1  UNL1        0.0870
      4  O          5.8840    3.0280    1.7640 O.2     1  UNL1       -0.3000
      5  C          6.7570    0.1810    1.7550 C.3     1  UNL1        0.0430
      6  C          7.1940   -0.7140    0.6690 C.2     1  UNL1       -0.0440
      7  C          7.0510   -0.3570   -0.6770 C.2     1  UNL1        0.0080
      8  C          7.7610   -1.9300    0.9730 C.2     1  UNL1        0.0540
      9  C          7.4800   -1.2370   -1.6540 C.2     1  UNL1        0.0510
     10  C          8.1940   -2.8160   -0.0180 C.2     1  UNL1        0.1660
     11  C          8.0520   -2.4670   -1.3420 C.2     1  UNL1        0.1650
     12  O          8.7780   -4.0640    0.0270 O.2     1  UNL1       -0.4540
     13  O          8.5590   -3.5180   -2.0910 O.2     1  UNL1       -0.4540
     14  C          9.1120   -4.5120   -1.2620 C.3     1  UNL1        0.4680
@<TRIPOS>BOND
     1    13    11    1
     2    13    14    1
     3     9    11    2
     4     9     7    1
     5    11    10    1
     6    14    12    1
     7     7     6    2
     8     3     2    1
     9    10    12    1
    10    10     8    2
    11     6     8    1
    12     6     5    1
    13     2     1    1
    14     2     4    2
    15     1     5    1
