@<TRIPOS>MOLECULE
/home/cewinharhar/GITHUB/reincatalyze/data/processed/docking_pred/2023-May-22-1902_sub9_nm5_bs15_s42_ex16_mel10_mts1000_k50_ec02_g099_lra9e-4_lrc1e-3/9cf679a9c5542d052f5b9fd38195e755841f8057_ligand_9.pdbqt
 14 15 0 0 0
SMALL
GASTEIGER

@<TRIPOS>ATOM
      1  C          6.9490    2.1590   -0.0190 C.3     1  UNL1        0.0800
      2  C          6.1290    2.9630    0.9300 C.2     1  UNL1        0.1300
      3  C          6.5440    4.3260    1.3590 C.3     1  UNL1        0.0870
      4  O          5.0870    2.5230    1.3870 O.2     1  UNL1       -0.3000
      5  C          6.1620    0.9850   -0.5670 C.3     1  UNL1        0.0430
      6  C          6.8310   -0.2990   -0.2910 C.2     1  UNL1       -0.0440
      7  C          7.0130   -0.7640    1.0160 C.2     1  UNL1        0.0080
      8  C          7.2900   -1.0680   -1.3360 C.2     1  UNL1        0.0540
      9  C          7.6480   -1.9770    1.2140 C.2     1  UNL1        0.0510
     10  C          7.9300   -2.2930   -1.1310 C.2     1  UNL1        0.1660
     11  C          8.1110   -2.7520    0.1550 C.2     1  UNL1        0.1650
     12  O          8.4690   -3.2280   -1.9900 O.2     1  UNL1       -0.4540
     13  O          8.7630   -3.9710    0.0580 O.2     1  UNL1       -0.4540
     14  C          8.9280   -4.3540   -1.2860 C.3     1  UNL1        0.4680
@<TRIPOS>BOND
     1    12    14    1
     2    12    10    1
     3     8    10    1
     4     8     6    2
     5    14    13    1
     6    10    11    2
     7     5     6    1
     8     5     1    1
     9     6     7    1
    10     1     2    1
    11    13    11    1
    12    11     9    1
    13     2     3    1
    14     2     4    2
    15     7     9    2
