MODEL 1
REMARK VINA RESULT:      -7.6      0.000      0.000
REMARK SMILES CC(=O)CCc1ccc2c(c1)OCO2
REMARK SMILES IDX 4 1 2 2 1 3 3 4 5 5 6 6 7 7 11 8 8 9 10 10 9 11 12 12 14 13
REMARK SMILES IDX 13 14
REMARK H PARENT
REMARK Flexibility Score: inf
ROOT
ATOM      1  C   UNL     1       5.530   1.919   1.248  1.00  0.00     0.080 C 
ENDROOT
BRANCH   1   2
ATOM      2  C   UNL     1       5.092   0.712   2.004  1.00  0.00     0.130 C 
ATOM      3  C   UNL     1       5.987  -0.461   2.189  1.00  0.00     0.087 C 
ATOM      4  O   UNL     1       3.977   0.652   2.497  1.00  0.00    -0.300 OA
ENDBRANCH   1   2
BRANCH   1   5
ATOM      5  C   UNL     1       5.398   1.709  -0.247  1.00  0.00     0.043 C 
BRANCH   5   6
ATOM      6  C   UNL     1       6.569   1.012  -0.807  1.00  0.00    -0.044 A 
ATOM      7  C   UNL     1       7.874   1.450  -0.554  1.00  0.00     0.008 A 
ATOM      8  C   UNL     1       6.387  -0.101  -1.597  1.00  0.00     0.054 A 
ATOM      9  C   UNL     1       8.934   0.755  -1.106  1.00  0.00     0.051 A 
ATOM     10  C   UNL     1       7.463  -0.801  -2.152  1.00  0.00     0.166 A 
ATOM     11  C   UNL     1       8.747  -0.369  -1.905  1.00  0.00     0.165 A 
ATOM     12  O   UNL     1       7.542  -1.916  -2.958  1.00  0.00    -0.454 OA
ATOM     13  O   UNL     1       9.597  -1.238  -2.570  1.00  0.00    -0.454 OA
ATOM     14  C   UNL     1       8.879  -2.287  -3.176  1.00  0.00     0.468 C 
ENDBRANCH   5   6
ENDBRANCH   1   5
TORSDOF 3
ENDMDL
MODEL 2
REMARK VINA RESULT:      -7.4      1.930      2.396
REMARK SMILES CC(=O)CCc1ccc2c(c1)OCO2
REMARK SMILES IDX 4 1 2 2 1 3 3 4 5 5 6 6 7 7 11 8 8 9 10 10 9 11 12 12 14 13
REMARK SMILES IDX 13 14
REMARK H PARENT
REMARK Flexibility Score: inf
ROOT
ATOM      1  C   UNL     1       5.710   1.286  -0.311  1.00  0.00     0.080 C 
ENDROOT
BRANCH   1   2
ATOM      2  C   UNL     1       5.168   1.303   1.077  1.00  0.00     0.130 C 
ATOM      3  C   UNL     1       5.345   0.148   1.998  1.00  0.00     0.087 C 
ATOM      4  O   UNL     1       4.559   2.272   1.500  1.00  0.00    -0.300 OA
ENDBRANCH   1   2
BRANCH   1   5
ATOM      5  C   UNL     1       7.214   1.098  -0.313  1.00  0.00     0.043 C 
BRANCH   5   6
ATOM      6  C   UNL     1       7.602  -0.197  -0.901  1.00  0.00    -0.044 A 
ATOM      7  C   UNL     1       7.699  -0.373  -2.286  1.00  0.00     0.008 A 
ATOM      8  C   UNL     1       7.879  -1.265  -0.078  1.00  0.00     0.054 A 
ATOM      9  C   UNL     1       8.069  -1.610  -2.781  1.00  0.00     0.051 A 
ATOM     10  C   UNL     1       8.252  -2.514  -0.583  1.00  0.00     0.166 A 
ATOM     11  C   UNL     1       8.347  -2.688  -1.946  1.00  0.00     0.165 A 
ATOM     12  O   UNL     1       8.573  -3.712   0.018  1.00  0.00    -0.454 OA
ATOM     13  O   UNL     1       8.730  -4.003  -2.156  1.00  0.00    -0.454 OA
ATOM     14  C   UNL     1       8.972  -4.663  -0.936  1.00  0.00     0.468 C 
ENDBRANCH   5   6
ENDBRANCH   1   5
TORSDOF 3
ENDMDL
MODEL 3
REMARK VINA RESULT:      -7.3      1.952      2.608
REMARK SMILES CC(=O)CCc1ccc2c(c1)OCO2
REMARK SMILES IDX 4 1 2 2 1 3 3 4 5 5 6 6 7 7 11 8 8 9 10 10 9 11 12 12 14 13
REMARK SMILES IDX 13 14
REMARK H PARENT
REMARK Flexibility Score: inf
ROOT
ATOM      1  C   UNL     1       6.262   0.844   1.073  1.00  0.00     0.080 C 
ENDROOT
BRANCH   1   2
ATOM      2  C   UNL     1       5.077   1.735   0.939  1.00  0.00     0.130 C 
ATOM      3  C   UNL     1       4.898   2.625  -0.239  1.00  0.00     0.087 C 
ATOM      4  O   UNL     1       4.212   1.762   1.800  1.00  0.00    -0.300 OA
ENDBRANCH   1   2
BRANCH   1   5
ATOM      5  C   UNL     1       7.230   1.039  -0.077  1.00  0.00     0.043 C 
BRANCH   5   6
ATOM      6  C   UNL     1       7.571  -0.239  -0.727  1.00  0.00    -0.044 A 
ATOM      7  C   UNL     1       7.554  -0.381  -2.119  1.00  0.00     0.008 A 
ATOM      8  C   UNL     1       7.919  -1.325   0.044  1.00  0.00     0.054 A 
ATOM      9  C   UNL     1       7.884  -1.604  -2.673  1.00  0.00     0.051 A 
ATOM     10  C   UNL     1       8.253  -2.559  -0.521  1.00  0.00     0.166 A 
ATOM     11  C   UNL     1       8.235  -2.700  -1.891  1.00  0.00     0.165 A 
ATOM     12  O   UNL     1       8.627  -3.771   0.021  1.00  0.00    -0.454 OA
ATOM     13  O   UNL     1       8.603  -4.008  -2.164  1.00  0.00    -0.454 OA
ATOM     14  C   UNL     1       8.948  -4.696  -0.986  1.00  0.00     0.468 C 
ENDBRANCH   5   6
ENDBRANCH   1   5
TORSDOF 3
ENDMDL
MODEL 4
REMARK VINA RESULT:      -7.2      2.168      2.820
REMARK SMILES CC(=O)CCc1ccc2c(c1)OCO2
REMARK SMILES IDX 4 1 2 2 1 3 3 4 5 5 6 6 7 7 11 8 8 9 10 10 9 11 12 12 14 13
REMARK SMILES IDX 13 14
REMARK H PARENT
REMARK Flexibility Score: inf
ROOT
ATOM      1  C   UNL     1       5.371   0.738   1.501  1.00  0.00     0.080 C 
ENDROOT
BRANCH   1   2
ATOM      2  C   UNL     1       5.432   2.154   1.041  1.00  0.00     0.130 C 
ATOM      3  C   UNL     1       4.950   2.559  -0.306  1.00  0.00     0.087 C 
ATOM      4  O   UNL     1       5.884   3.028   1.764  1.00  0.00    -0.300 OA
ENDBRANCH   1   2
BRANCH   1   5
ATOM      5  C   UNL     1       6.757   0.181   1.755  1.00  0.00     0.043 C 
BRANCH   5   6
ATOM      6  C   UNL     1       7.194  -0.714   0.669  1.00  0.00    -0.044 A 
ATOM      7  C   UNL     1       7.051  -0.357  -0.677  1.00  0.00     0.008 A 
ATOM      8  C   UNL     1       7.761  -1.930   0.973  1.00  0.00     0.054 A 
ATOM      9  C   UNL     1       7.480  -1.237  -1.654  1.00  0.00     0.051 A 
ATOM     10  C   UNL     1       8.194  -2.816  -0.018  1.00  0.00     0.166 A 
ATOM     11  C   UNL     1       8.052  -2.467  -1.342  1.00  0.00     0.165 A 
ATOM     12  O   UNL     1       8.778  -4.064   0.027  1.00  0.00    -0.454 OA
ATOM     13  O   UNL     1       8.559  -3.518  -2.091  1.00  0.00    -0.454 OA
ATOM     14  C   UNL     1       9.112  -4.512  -1.262  1.00  0.00     0.468 C 
ENDBRANCH   5   6
ENDBRANCH   1   5
TORSDOF 3
ENDMDL
MODEL 5
REMARK VINA RESULT:      -7.2      2.182      2.788
REMARK SMILES CC(=O)CCc1ccc2c(c1)OCO2
REMARK SMILES IDX 4 1 2 2 1 3 3 4 5 5 6 6 7 7 11 8 8 9 10 10 9 11 12 12 14 13
REMARK SMILES IDX 13 14
REMARK H PARENT
REMARK Flexibility Score: inf
ROOT
ATOM      1  C   UNL     1       6.949   2.159  -0.019  1.00  0.00     0.080 C 
ENDROOT
BRANCH   1   2
ATOM      2  C   UNL     1       6.129   2.963   0.930  1.00  0.00     0.130 C 
ATOM      3  C   UNL     1       6.544   4.326   1.359  1.00  0.00     0.087 C 
ATOM      4  O   UNL     1       5.087   2.523   1.387  1.00  0.00    -0.300 OA
ENDBRANCH   1   2
BRANCH   1   5
ATOM      5  C   UNL     1       6.162   0.985  -0.567  1.00  0.00     0.043 C 
BRANCH   5   6
ATOM      6  C   UNL     1       6.831  -0.299  -0.291  1.00  0.00    -0.044 A 
ATOM      7  C   UNL     1       7.013  -0.764   1.016  1.00  0.00     0.008 A 
ATOM      8  C   UNL     1       7.290  -1.068  -1.336  1.00  0.00     0.054 A 
ATOM      9  C   UNL     1       7.648  -1.977   1.214  1.00  0.00     0.051 A 
ATOM     10  C   UNL     1       7.930  -2.293  -1.131  1.00  0.00     0.166 A 
ATOM     11  C   UNL     1       8.111  -2.752   0.155  1.00  0.00     0.165 A 
ATOM     12  O   UNL     1       8.469  -3.228  -1.990  1.00  0.00    -0.454 OA
ATOM     13  O   UNL     1       8.763  -3.971   0.058  1.00  0.00    -0.454 OA
ATOM     14  C   UNL     1       8.928  -4.354  -1.286  1.00  0.00     0.468 C 
ENDBRANCH   5   6
ENDBRANCH   1   5
TORSDOF 3
ENDMDL
