MODEL 1
REMARK VINA RESULT:      -7.9      0.000      0.000
REMARK SMILES CC(=O)CCc1ccc2c(c1)OCO2
REMARK SMILES IDX 4 1 2 2 1 3 3 4 5 5 6 6 7 7 11 8 8 9 10 10 9 11 12 12 14 13
REMARK SMILES IDX 13 14
REMARK H PARENT
REMARK Flexibility Score: inf
ROOT
ATOM      1  C   UNL     1       5.437   2.905   0.135  1.00  0.00     0.080 C 
ENDROOT
BRANCH   1   2
ATOM      2  C   UNL     1       6.260   3.846   0.946  1.00  0.00     0.130 C 
ATOM      3  C   UNL     1       7.235   4.774   0.315  1.00  0.00     0.087 C 
ATOM      4  O   UNL     1       6.156   3.881   2.162  1.00  0.00    -0.300 OA
ENDBRANCH   1   2
BRANCH   1   5
ATOM      5  C   UNL     1       5.176   1.615   0.886  1.00  0.00     0.043 C 
BRANCH   5   6
ATOM      6  C   UNL     1       5.992   0.504   0.363  1.00  0.00    -0.044 A 
ATOM      7  C   UNL     1       6.351  -0.584   1.167  1.00  0.00     0.008 A 
ATOM      8  C   UNL     1       6.413   0.525  -0.947  1.00  0.00     0.054 A 
ATOM      9  C   UNL     1       7.117  -1.598   0.622  1.00  0.00     0.051 A 
ATOM     10  C   UNL     1       7.187  -0.503  -1.494  1.00  0.00     0.166 A 
ATOM     11  C   UNL     1       7.542  -1.573  -0.703  1.00  0.00     0.165 A 
ATOM     12  O   UNL     1       7.723  -0.711  -2.747  1.00  0.00    -0.454 OA
ATOM     13  O   UNL     1       8.295  -2.425  -1.495  1.00  0.00    -0.454 OA
ATOM     14  C   UNL     1       8.358  -1.962  -2.823  1.00  0.00     0.468 C 
ENDBRANCH   5   6
ENDBRANCH   1   5
TORSDOF 3
ENDMDL
MODEL 2
REMARK VINA RESULT:      -7.7      0.990      1.976
REMARK SMILES CC(=O)CCc1ccc2c(c1)OCO2
REMARK SMILES IDX 4 1 2 2 1 3 3 4 5 5 6 6 7 7 11 8 8 9 10 10 9 11 12 12 14 13
REMARK SMILES IDX 13 14
REMARK H PARENT
REMARK Flexibility Score: inf
ROOT
ATOM      1  C   UNL     1       5.328   2.982   0.282  1.00  0.00     0.080 C 
ENDROOT
BRANCH   1   2
ATOM      2  C   UNL     1       6.299   3.770   1.090  1.00  0.00     0.130 C 
ATOM      3  C   UNL     1       7.201   4.775   0.466  1.00  0.00     0.087 C 
ATOM      4  O   UNL     1       6.384   3.612   2.297  1.00  0.00    -0.300 OA
ENDBRANCH   1   2
BRANCH   1   5
ATOM      5  C   UNL     1       5.061   1.628   0.908  1.00  0.00     0.043 C 
BRANCH   5   6
ATOM      6  C   UNL     1       5.935   0.583   0.344  1.00  0.00    -0.044 A 
ATOM      7  C   UNL     1       6.404   0.652  -0.973  1.00  0.00     0.008 A 
ATOM      8  C   UNL     1       6.307  -0.489   1.123  1.00  0.00     0.054 A 
ATOM      9  C   UNL     1       7.221  -0.357  -1.448  1.00  0.00     0.051 A 
ATOM     10  C   UNL     1       7.134  -1.507   0.638  1.00  0.00     0.166 A 
ATOM     11  C   UNL     1       7.595  -1.440  -0.658  1.00  0.00     0.165 A 
ATOM     12  O   UNL     1       7.637  -2.659   1.204  1.00  0.00    -0.454 OA
ATOM     13  O   UNL     1       8.380  -2.564  -0.863  1.00  0.00    -0.454 OA
ATOM     14  C   UNL     1       8.508  -3.316   0.320  1.00  0.00     0.468 C 
ENDBRANCH   5   6
ENDBRANCH   1   5
TORSDOF 3
ENDMDL
MODEL 3
REMARK VINA RESULT:      -7.7      1.891      2.654
REMARK SMILES CC(=O)CCc1ccc2c(c1)OCO2
REMARK SMILES IDX 4 1 2 2 1 3 3 4 5 5 6 6 7 7 11 8 8 9 10 10 9 11 12 12 14 13
REMARK SMILES IDX 13 14
REMARK H PARENT
REMARK Flexibility Score: inf
ROOT
ATOM      1  C   UNL     1       5.497   1.935   1.254  1.00  0.00     0.080 C 
ENDROOT
BRANCH   1   2
ATOM      2  C   UNL     1       5.060   0.719   1.994  1.00  0.00     0.130 C 
ATOM      3  C   UNL     1       5.950  -0.463   2.148  1.00  0.00     0.087 C 
ATOM      4  O   UNL     1       3.951   0.657   2.500  1.00  0.00    -0.300 OA
ENDBRANCH   1   2
BRANCH   1   5
ATOM      5  C   UNL     1       5.376   1.740  -0.245  1.00  0.00     0.043 C 
BRANCH   5   6
ATOM      6  C   UNL     1       6.547   1.038  -0.800  1.00  0.00    -0.044 A 
ATOM      7  C   UNL     1       7.853   1.473  -0.543  1.00  0.00     0.008 A 
ATOM      8  C   UNL     1       6.365  -0.074  -1.591  1.00  0.00     0.054 A 
ATOM      9  C   UNL     1       8.913   0.775  -1.090  1.00  0.00     0.051 A 
ATOM     10  C   UNL     1       7.441  -0.777  -2.142  1.00  0.00     0.166 A 
ATOM     11  C   UNL     1       8.725  -0.349  -1.890  1.00  0.00     0.165 A 
ATOM     12  O   UNL     1       7.520  -1.893  -2.947  1.00  0.00    -0.454 OA
ATOM     13  O   UNL     1       9.575  -1.221  -2.552  1.00  0.00    -0.454 OA
ATOM     14  C   UNL     1       8.857  -2.267  -3.160  1.00  0.00     0.468 C 
ENDBRANCH   5   6
ENDBRANCH   1   5
TORSDOF 3
ENDMDL
MODEL 4
REMARK VINA RESULT:      -7.5      1.954      3.039
REMARK SMILES CC(=O)CCc1ccc2c(c1)OCO2
REMARK SMILES IDX 4 1 2 2 1 3 3 4 5 5 6 6 7 7 11 8 8 9 10 10 9 11 12 12 14 13
REMARK SMILES IDX 13 14
REMARK H PARENT
REMARK Flexibility Score: inf
ROOT
ATOM      1  C   UNL     1       5.794   1.313  -0.352  1.00  0.00     0.080 C 
ENDROOT
BRANCH   1   2
ATOM      2  C   UNL     1       5.205   1.320   1.016  1.00  0.00     0.130 C 
ATOM      3  C   UNL     1       5.330   0.149   1.925  1.00  0.00     0.087 C 
ATOM      4  O   UNL     1       4.599   2.293   1.432  1.00  0.00    -0.300 OA
ENDBRANCH   1   2
BRANCH   1   5
ATOM      5  C   UNL     1       7.287   1.051  -0.308  1.00  0.00     0.043 C 
BRANCH   5   6
ATOM      6  C   UNL     1       7.631  -0.250  -0.910  1.00  0.00    -0.044 A 
ATOM      7  C   UNL     1       7.657  -0.432  -2.297  1.00  0.00     0.008 A 
ATOM      8  C   UNL     1       7.939  -1.317  -0.097  1.00  0.00     0.054 A 
ATOM      9  C   UNL     1       7.988  -1.675  -2.805  1.00  0.00     0.051 A 
ATOM     10  C   UNL     1       8.274  -2.572  -0.616  1.00  0.00     0.166 A 
ATOM     11  C   UNL     1       8.298  -2.752  -1.981  1.00  0.00     0.165 A 
ATOM     12  O   UNL     1       8.613  -3.772  -0.027  1.00  0.00    -0.454 OA
ATOM     13  O   UNL     1       8.657  -4.072  -2.205  1.00  0.00    -0.454 OA
ATOM     14  C   UNL     1       8.954  -4.730  -0.996  1.00  0.00     0.468 C 
ENDBRANCH   5   6
ENDBRANCH   1   5
TORSDOF 3
ENDMDL
MODEL 5
REMARK VINA RESULT:      -7.4      1.606      2.691
REMARK SMILES CC(=O)CCc1ccc2c(c1)OCO2
REMARK SMILES IDX 4 1 2 2 1 3 3 4 5 5 6 6 7 7 11 8 8 9 10 10 9 11 12 12 14 13
REMARK SMILES IDX 13 14
REMARK H PARENT
REMARK Flexibility Score: inf
ROOT
ATOM      1  C   UNL     1       5.754   1.294  -0.393  1.00  0.00     0.080 C 
ENDROOT
BRANCH   1   2
ATOM      2  C   UNL     1       5.369   2.373   0.558  1.00  0.00     0.130 C 
ATOM      3  C   UNL     1       6.148   3.636   0.664  1.00  0.00     0.087 C 
ATOM      4  O   UNL     1       4.395   2.250   1.284  1.00  0.00    -0.300 OA
ENDBRANCH   1   2
BRANCH   1   5
ATOM      5  C   UNL     1       7.254   1.072  -0.395  1.00  0.00     0.043 C 
BRANCH   5   6
ATOM      6  C   UNL     1       7.611  -0.239  -0.966  1.00  0.00    -0.044 A 
ATOM      7  C   UNL     1       7.662  -0.447  -2.349  1.00  0.00     0.008 A 
ATOM      8  C   UNL     1       7.906  -1.291  -0.129  1.00  0.00     0.054 A 
ATOM      9  C   UNL     1       8.004  -1.698  -2.828  1.00  0.00     0.051 A 
ATOM     10  C   UNL     1       8.252  -2.554  -0.617  1.00  0.00     0.166 A 
ATOM     11  C   UNL     1       8.301  -2.760  -1.978  1.00  0.00     0.165 A 
ATOM     12  O   UNL     1       8.582  -3.742  -0.001  1.00  0.00    -0.454 OA
ATOM     13  O   UNL     1       8.665  -4.083  -2.171  1.00  0.00    -0.454 OA
ATOM     14  C   UNL     1       8.942  -4.718  -0.945  1.00  0.00     0.468 C 
ENDBRANCH   5   6
ENDBRANCH   1   5
TORSDOF 3
ENDMDL
