@<TRIPOS>MOLECULE
/home/cewinharhar/GITHUB/reincatalyze/data/processed/docking_pred/2023-May-22-1902_sub9_nm5_bs15_s42_ex16_mel10_mts1000_k50_ec02_g099_lra9e-4_lrc1e-3/9e6208548f5309b91e7f4e881f40d3475c8e3dc2_ligand_9.pdbqt
 14 15 0 0 0
SMALL
GASTEIGER

@<TRIPOS>ATOM
      1  C          5.7540    1.2940   -0.3930 C.3     1  UNL1        0.0800
      2  C          5.3690    2.3730    0.5580 C.2     1  UNL1        0.1300
      3  C          6.1480    3.6360    0.6640 C.3     1  UNL1        0.0870
      4  O          4.3950    2.2500    1.2840 O.2     1  UNL1       -0.3000
      5  C          7.2540    1.0720   -0.3950 C.3     1  UNL1        0.0430
      6  C          7.6110   -0.2390   -0.9660 C.2     1  UNL1       -0.0440
      7  C          7.6620   -0.4470   -2.3490 C.2     1  UNL1        0.0080
      8  C          7.9060   -1.2910   -0.1290 C.2     1  UNL1        0.0540
      9  C          8.0040   -1.6980   -2.8280 C.2     1  UNL1        0.0510
     10  C          8.2520   -2.5540   -0.6170 C.2     1  UNL1        0.1660
     11  C          8.3010   -2.7600   -1.9780 C.2     1  UNL1        0.1650
     12  O          8.5820   -3.7420   -0.0010 O.2     1  UNL1       -0.4540
     13  O          8.6650   -4.0830   -2.1710 O.2     1  UNL1       -0.4540
     14  C          8.9420   -4.7180   -0.9450 C.3     1  UNL1        0.4680
@<TRIPOS>BOND
     1     9     7    1
     2     9    11    2
     3     7     6    2
     4    13    11    1
     5    13    14    1
     6    11    10    1
     7     6     5    1
     8     6     8    1
     9    14    12    1
    10    10     8    2
    11    10    12    1
    12     5     1    1
    13     1     2    1
    14     2     3    1
    15     2     4    2
