@<TRIPOS>MOLECULE
/home/cewinharhar/GITHUB/reincatalyze/data/processed/docking_pred/2023-May-22-1902_sub9_nm5_bs15_s42_ex16_mel10_mts1000_k50_ec02_g099_lra9e-4_lrc1e-3/9e6208548f5309b91e7f4e881f40d3475c8e3dc2_ligand_9.pdbqt
 14 15 0 0 0
SMALL
GASTEIGER

@<TRIPOS>ATOM
      1  C          5.4370    2.9050    0.1350 C.3     1  UNL1        0.0800
      2  C          6.2600    3.8460    0.9460 C.2     1  UNL1        0.1300
      3  C          7.2350    4.7740    0.3150 C.3     1  UNL1        0.0870
      4  O          6.1560    3.8810    2.1620 O.2     1  UNL1       -0.3000
      5  C          5.1760    1.6150    0.8860 C.3     1  UNL1        0.0430
      6  C          5.9920    0.5040    0.3630 C.2     1  UNL1       -0.0440
      7  C          6.3510   -0.5840    1.1670 C.2     1  UNL1        0.0080
      8  C          6.4130    0.5250   -0.9470 C.2     1  UNL1        0.0540
      9  C          7.1170   -1.5980    0.6220 C.2     1  UNL1        0.0510
     10  C          7.1870   -0.5030   -1.4940 C.2     1  UNL1        0.1660
     11  C          7.5420   -1.5730   -0.7030 C.2     1  UNL1        0.1650
     12  O          7.7230   -0.7110   -2.7470 O.2     1  UNL1       -0.4540
     13  O          8.2950   -2.4250   -1.4950 O.2     1  UNL1       -0.4540
     14  C          8.3580   -1.9620   -2.8230 C.3     1  UNL1        0.4680
@<TRIPOS>BOND
     1    14    12    1
     2    14    13    1
     3    12    10    1
     4    13    11    1
     5    10     8    1
     6    10    11    2
     7     8     6    2
     8    11     9    1
     9     1     5    1
    10     1     2    1
    11     3     2    1
    12     6     5    1
    13     6     7    1
    14     9     7    2
    15     2     4    2
