@<TRIPOS>MOLECULE
/home/cewinharhar/GITHUB/reincatalyze/data/processed/docking_pred/2023-May-22-1902_sub9_nm5_bs15_s42_ex16_mel10_mts1000_k50_ec02_g099_lra9e-4_lrc1e-3/a1c3c4a97d6bd518e48ffa0772dda1f342f6565e_ligand_9.pdbqt
 14 15 0 0 0
SMALL
GASTEIGER

@<TRIPOS>ATOM
      1  C          7.0380   -1.3830   -0.8920 C.3     1  UNL1        0.0800
      2  C          7.5600   -1.7260    0.4600 C.2     1  UNL1        0.1300
      3  C          6.6880   -1.6970    1.6650 C.3     1  UNL1        0.0870
      4  O          8.7280   -2.0410    0.6190 O.2     1  UNL1       -0.3000
      5  C          7.5760   -0.0480   -1.3680 C.3     1  UNL1        0.0430
      6  C          7.0290    1.0730   -0.5840 C.2     1  UNL1       -0.0440
      7  C          5.6560    1.3450   -0.5520 C.2     1  UNL1        0.0080
      8  C          7.8790    1.8780    0.1400 C.2     1  UNL1        0.0540
      9  C          5.2000    2.4100    0.2020 C.2     1  UNL1        0.0510
     10  C          7.4130    2.9540    0.9020 C.2     1  UNL1        0.1660
     11  C          6.0620    3.2220    0.9330 C.2     1  UNL1        0.1650
     12  O          8.0450    3.8870    1.6960 O.2     1  UNL1       -0.4540
     13  O          5.8920    4.3260    1.7540 O.2     1  UNL1       -0.4540
     14  C          7.1120    4.7240    2.3310 C.3     1  UNL1        0.4680
@<TRIPOS>BOND
     1     5     1    1
     2     5     6    1
     3     1     2    1
     4     6     7    2
     5     6     8    1
     6     7     9    1
     7     8    10    2
     8     9    11    2
     9     2     4    2
    10     2     3    1
    11    10    11    1
    12    10    12    1
    13    11    13    1
    14    12    14    1
    15    13    14    1
