MODEL 1
REMARK VINA RESULT:      -7.5      0.000      0.000
REMARK SMILES CC(=O)CCc1ccc2c(c1)OCO2
REMARK SMILES IDX 4 1 2 2 1 3 3 4 5 5 6 6 7 7 11 8 8 9 10 10 9 11 12 12 14 13
REMARK SMILES IDX 13 14
REMARK H PARENT
REMARK Flexibility Score: inf
ROOT
ATOM      1  C   UNL     1       5.639   3.081   0.229  1.00  0.00     0.080 C 
ENDROOT
BRANCH   1   2
ATOM      2  C   UNL     1       6.490   3.734   1.263  1.00  0.00     0.130 C 
ATOM      3  C   UNL     1       7.960   3.513   1.318  1.00  0.00     0.087 C 
ATOM      4  O   UNL     1       6.001   4.474   2.101  1.00  0.00    -0.300 OA
ENDBRANCH   1   2
BRANCH   1   5
ATOM      5  C   UNL     1       5.100   1.752   0.719  1.00  0.00     0.043 C 
BRANCH   5   6
ATOM      6  C   UNL     1       5.925   0.623   0.256  1.00  0.00    -0.044 A 
ATOM      7  C   UNL     1       6.249  -0.444   1.102  1.00  0.00     0.008 A 
ATOM      8  C   UNL     1       6.393   0.605  -1.038  1.00  0.00     0.054 A 
ATOM      9  C   UNL     1       7.027  -1.477   0.612  1.00  0.00     0.051 A 
ATOM     10  C   UNL     1       7.178  -0.442  -1.529  1.00  0.00     0.166 A 
ATOM     11  C   UNL     1       7.499  -1.492  -0.697  1.00  0.00     0.165 A 
ATOM     12  O   UNL     1       7.756  -0.688  -2.757  1.00  0.00    -0.454 OA
ATOM     13  O   UNL     1       8.273  -2.369  -1.439  1.00  0.00    -0.454 OA
ATOM     14  C   UNL     1       8.386  -1.943  -2.776  1.00  0.00     0.468 C 
ENDBRANCH   5   6
ENDBRANCH   1   5
TORSDOF 3
ENDMDL
MODEL 2
REMARK VINA RESULT:      -7.3      0.986      1.979
REMARK SMILES CC(=O)CCc1ccc2c(c1)OCO2
REMARK SMILES IDX 4 1 2 2 1 3 3 4 5 5 6 6 7 7 11 8 8 9 10 10 9 11 12 12 14 13
REMARK SMILES IDX 13 14
REMARK H PARENT
REMARK Flexibility Score: inf
ROOT
ATOM      1  C   UNL     1       5.647   3.170   0.228  1.00  0.00     0.080 C 
ENDROOT
BRANCH   1   2
ATOM      2  C   UNL     1       6.561   3.680   1.288  1.00  0.00     0.130 C 
ATOM      3  C   UNL     1       8.014   3.358   1.288  1.00  0.00     0.087 C 
ATOM      4  O   UNL     1       6.141   4.382   2.194  1.00  0.00    -0.300 OA
ENDBRANCH   1   2
BRANCH   1   5
ATOM      5  C   UNL     1       5.069   1.820   0.603  1.00  0.00     0.043 C 
BRANCH   5   6
ATOM      6  C   UNL     1       5.919   0.712   0.131  1.00  0.00    -0.044 A 
ATOM      7  C   UNL     1       6.359   0.639  -1.196  1.00  0.00     0.008 A 
ATOM      8  C   UNL     1       6.296  -0.279   1.008  1.00  0.00     0.054 A 
ATOM      9  C   UNL     1       7.155  -0.424  -1.582  1.00  0.00     0.051 A 
ATOM     10  C   UNL     1       7.102  -1.352   0.613  1.00  0.00     0.166 A 
ATOM     11  C   UNL     1       7.534  -1.425  -0.693  1.00  0.00     0.165 A 
ATOM     12  O   UNL     1       7.606  -2.446   1.284  1.00  0.00    -0.454 OA
ATOM     13  O   UNL     1       8.303  -2.573  -0.797  1.00  0.00    -0.454 OA
ATOM     14  C   UNL     1       8.449  -3.202   0.454  1.00  0.00     0.468 C 
ENDBRANCH   5   6
ENDBRANCH   1   5
TORSDOF 3
ENDMDL
MODEL 3
REMARK VINA RESULT:      -7.3      1.264      1.595
REMARK SMILES CC(=O)CCc1ccc2c(c1)OCO2
REMARK SMILES IDX 4 1 2 2 1 3 3 4 5 5 6 6 7 7 11 8 8 9 10 10 9 11 12 12 14 13
REMARK SMILES IDX 13 14
REMARK H PARENT
REMARK Flexibility Score: inf
ROOT
ATOM      1  C   UNL     1       6.000   3.275   0.074  1.00  0.00     0.080 C 
ENDROOT
BRANCH   1   2
ATOM      2  C   UNL     1       6.625   3.726   1.349  1.00  0.00     0.130 C 
ATOM      3  C   UNL     1       8.033   3.390   1.690  1.00  0.00     0.087 C 
ATOM      4  O   UNL     1       5.994   4.389   2.155  1.00  0.00    -0.300 OA
ENDBRANCH   1   2
BRANCH   1   5
ATOM      5  C   UNL     1       4.995   2.166   0.316  1.00  0.00     0.043 C 
BRANCH   5   6
ATOM      6  C   UNL     1       5.657   0.895   0.663  1.00  0.00    -0.044 A 
ATOM      7  C   UNL     1       5.437   0.267   1.894  1.00  0.00     0.008 A 
ATOM      8  C   UNL     1       6.511   0.302  -0.239  1.00  0.00     0.054 A 
ATOM      9  C   UNL     1       6.085  -0.925   2.165  1.00  0.00     0.051 A 
ATOM     10  C   UNL     1       7.163  -0.903   0.039  1.00  0.00     0.166 A 
ATOM     11  C   UNL     1       6.948  -1.521   1.251  1.00  0.00     0.165 A 
ATOM     12  O   UNL     1       8.045  -1.681  -0.680  1.00  0.00    -0.454 OA
ATOM     13  O   UNL     1       7.711  -2.679   1.251  1.00  0.00    -0.454 OA
ATOM     14  C   UNL     1       8.352  -2.865   0.011  1.00  0.00     0.468 C 
ENDBRANCH   5   6
ENDBRANCH   1   5
TORSDOF 3
ENDMDL
MODEL 4
REMARK VINA RESULT:      -7.2      1.521      5.344
REMARK SMILES CC(=O)CCc1ccc2c(c1)OCO2
REMARK SMILES IDX 4 1 2 2 1 3 3 4 5 5 6 6 7 7 11 8 8 9 10 10 9 11 12 12 14 13
REMARK SMILES IDX 13 14
REMARK H PARENT
REMARK Flexibility Score: inf
ROOT
ATOM      1  C   UNL     1       7.038  -1.383  -0.892  1.00  0.00     0.080 C 
ENDROOT
BRANCH   1   2
ATOM      2  C   UNL     1       7.560  -1.726   0.460  1.00  0.00     0.130 C 
ATOM      3  C   UNL     1       6.688  -1.697   1.665  1.00  0.00     0.087 C 
ATOM      4  O   UNL     1       8.728  -2.041   0.619  1.00  0.00    -0.300 OA
ENDBRANCH   1   2
BRANCH   1   5
ATOM      5  C   UNL     1       7.576  -0.048  -1.368  1.00  0.00     0.043 C 
BRANCH   5   6
ATOM      6  C   UNL     1       7.029   1.073  -0.584  1.00  0.00    -0.044 A 
ATOM      7  C   UNL     1       5.656   1.345  -0.552  1.00  0.00     0.008 A 
ATOM      8  C   UNL     1       7.879   1.878   0.140  1.00  0.00     0.054 A 
ATOM      9  C   UNL     1       5.200   2.410   0.202  1.00  0.00     0.051 A 
ATOM     10  C   UNL     1       7.413   2.954   0.902  1.00  0.00     0.166 A 
ATOM     11  C   UNL     1       6.062   3.222   0.933  1.00  0.00     0.165 A 
ATOM     12  O   UNL     1       8.045   3.887   1.696  1.00  0.00    -0.454 OA
ATOM     13  O   UNL     1       5.892   4.326   1.754  1.00  0.00    -0.454 OA
ATOM     14  C   UNL     1       7.112   4.724   2.331  1.00  0.00     0.468 C 
ENDBRANCH   5   6
ENDBRANCH   1   5
TORSDOF 3
ENDMDL
MODEL 5
REMARK VINA RESULT:      -7.1      3.308      4.280
REMARK SMILES CC(=O)CCc1ccc2c(c1)OCO2
REMARK SMILES IDX 4 1 2 2 1 3 3 4 5 5 6 6 7 7 11 8 8 9 10 10 9 11 12 12 14 13
REMARK SMILES IDX 13 14
REMARK H PARENT
REMARK Flexibility Score: inf
ROOT
ATOM      1  C   UNL     1       5.403   1.368   0.528  1.00  0.00     0.080 C 
ENDROOT
BRANCH   1   2
ATOM      2  C   UNL     1       5.139   0.460   1.679  1.00  0.00     0.130 C 
ATOM      3  C   UNL     1       5.850  -0.838   1.829  1.00  0.00     0.087 C 
ATOM      4  O   UNL     1       4.325   0.758   2.538  1.00  0.00    -0.300 OA
ENDBRANCH   1   2
BRANCH   1   5
ATOM      5  C   UNL     1       6.468   2.392   0.866  1.00  0.00     0.043 C 
BRANCH   5   6
ATOM      6  C   UNL     1       7.820   1.808   0.825  1.00  0.00    -0.044 A 
ATOM      7  C   UNL     1       8.363   1.300  -0.361  1.00  0.00     0.008 A 
ATOM      8  C   UNL     1       8.578   1.759   1.973  1.00  0.00     0.054 A 
ATOM      9  C   UNL     1       9.638   0.765  -0.340  1.00  0.00     0.051 A 
ATOM     10  C   UNL     1       9.867   1.218   1.989  1.00  0.00     0.166 A 
ATOM     11  C   UNL     1      10.401   0.717   0.823  1.00  0.00     0.165 A 
ATOM     12  O   UNL     1      10.806   1.056   2.985  1.00  0.00    -0.454 OA
ATOM     13  O   UNL     1      11.671   0.253   1.131  1.00  0.00    -0.454 OA
ATOM     14  C   UNL     1      12.002   0.530   2.470  1.00  0.00     0.468 C 
ENDBRANCH   5   6
ENDBRANCH   1   5
TORSDOF 3
ENDMDL
