@<TRIPOS>MOLECULE
/home/cewinharhar/GITHUB/reincatalyze/data/processed/docking_pred/2023-May-22-1902_sub9_nm5_bs15_s42_ex16_mel10_mts1000_k50_ec02_g099_lra9e-4_lrc1e-3/a1c3c4a97d6bd518e48ffa0772dda1f342f6565e_ligand_9.pdbqt
 14 15 0 0 0
SMALL
GASTEIGER

@<TRIPOS>ATOM
      1  C          5.6470    3.1700    0.2280 C.3     1  UNL1        0.0800
      2  C          6.5610    3.6800    1.2880 C.2     1  UNL1        0.1300
      3  C          8.0140    3.3580    1.2880 C.3     1  UNL1        0.0870
      4  O          6.1410    4.3820    2.1940 O.2     1  UNL1       -0.3000
      5  C          5.0690    1.8200    0.6030 C.3     1  UNL1        0.0430
      6  C          5.9190    0.7120    0.1310 C.2     1  UNL1       -0.0440
      7  C          6.3590    0.6390   -1.1960 C.2     1  UNL1        0.0080
      8  C          6.2960   -0.2790    1.0080 C.2     1  UNL1        0.0540
      9  C          7.1550   -0.4240   -1.5820 C.2     1  UNL1        0.0510
     10  C          7.1020   -1.3520    0.6130 C.2     1  UNL1        0.1660
     11  C          7.5340   -1.4250   -0.6930 C.2     1  UNL1        0.1650
     12  O          7.6060   -2.4460    1.2840 O.2     1  UNL1       -0.4540
     13  O          8.3030   -2.5730   -0.7970 O.2     1  UNL1       -0.4540
     14  C          8.4490   -3.2020    0.4540 C.3     1  UNL1        0.4680
@<TRIPOS>BOND
     1     9     7    1
     2     9    11    2
     3     7     6    2
     4    13    11    1
     5    13    14    1
     6    11    10    1
     7     6     5    1
     8     6     8    1
     9     1     5    1
    10     1     2    1
    11    14    12    1
    12    10     8    2
    13    10    12    1
    14     2     3    1
    15     2     4    2
