@<TRIPOS>MOLECULE
/home/cewinharhar/GITHUB/reincatalyze/data/processed/docking_pred/2023-May-22-1902_sub9_nm5_bs15_s42_ex16_mel10_mts1000_k50_ec02_g099_lra9e-4_lrc1e-3/a450f47ca4f24610d4ad642e19216dd37a68a7e2_ligand_9.pdbqt
 14 15 0 0 0
SMALL
GASTEIGER

@<TRIPOS>ATOM
      1  C          5.7670    3.1300    0.2050 C.3     1  UNL1        0.0800
      2  C          6.6200    3.6150    1.3260 C.2     1  UNL1        0.1300
      3  C          8.0850    3.3650    1.3560 C.3     1  UNL1        0.0870
      4  O          6.1350    4.2360    2.2580 O.2     1  UNL1       -0.3000
      5  C          5.1440    1.7860    0.5290 C.3     1  UNL1        0.0430
      6  C          5.9820    0.6680    0.0590 C.2     1  UNL1       -0.0440
      7  C          6.4310    0.5960   -1.2650 C.2     1  UNL1        0.0080
      8  C          6.3380   -0.3320    0.9340 C.2     1  UNL1        0.0540
      9  C          7.2160   -0.4770   -1.6490 C.2     1  UNL1        0.0510
     10  C          7.1320   -1.4140    0.5410 C.2     1  UNL1        0.1660
     11  C          7.5740   -1.4870   -0.7610 C.2     1  UNL1        0.1650
     12  O          7.6140   -2.5180    1.2110 O.2     1  UNL1       -0.4540
     13  O          8.3270   -2.6460   -0.8640 O.2     1  UNL1       -0.4540
     14  C          8.4540   -3.2820    0.3850 C.3     1  UNL1        0.4680
@<TRIPOS>BOND
     1     9     7    1
     2     9    11    2
     3     7     6    2
     4    13    11    1
     5    13    14    1
     6    11    10    1
     7     6     5    1
     8     6     8    1
     9     1     5    1
    10     1     2    1
    11    14    12    1
    12    10     8    2
    13    10    12    1
    14     2     3    1
    15     2     4    2
