@<TRIPOS>MOLECULE
/home/cewinharhar/GITHUB/reincatalyze/data/processed/docking_pred/2023-May-22-1902_sub9_nm5_bs15_s42_ex16_mel10_mts1000_k50_ec02_g099_lra9e-4_lrc1e-3/a450f47ca4f24610d4ad642e19216dd37a68a7e2_ligand_9.pdbqt
 14 15 0 0 0
SMALL
GASTEIGER

@<TRIPOS>ATOM
      1  C          7.0430   -1.3850   -0.8980 C.3     1  UNL1        0.0800
      2  C          7.5990   -1.6640    0.4550 C.2     1  UNL1        0.1300
      3  C          6.7270   -1.7350    1.6580 C.3     1  UNL1        0.0870
      4  O          8.7950   -1.8430    0.6160 O.2     1  UNL1       -0.3000
      5  C          7.5070   -0.0380   -1.4170 C.3     1  UNL1        0.0430
      6  C          7.0140    1.0690   -0.5790 C.2     1  UNL1       -0.0440
      7  C          5.6510    1.3770   -0.4980 C.2     1  UNL1        0.0080
      8  C          7.9070    1.8240    0.1470 C.2     1  UNL1        0.0540
      9  C          5.2470    2.4280    0.3050 C.2     1  UNL1        0.0510
     10  C          7.4930    2.8850    0.9590 C.2     1  UNL1        0.1660
     11  C          6.1520    3.1890    1.0380 C.2     1  UNL1        0.1650
     12  O          8.1740    3.7720    1.7650 O.2     1  UNL1       -0.4540
     13  O          6.0360    4.2670    1.9010 O.2     1  UNL1       -0.4540
     14  C          7.2840    4.6110    2.4560 C.3     1  UNL1        0.4680
@<TRIPOS>BOND
     1     5     1    1
     2     5     6    1
     3     1     2    1
     4     6     7    2
     5     6     8    1
     6     7     9    1
     7     8    10    2
     8     9    11    2
     9     2     4    2
    10     2     3    1
    11    10    11    1
    12    10    12    1
    13    11    13    1
    14    12    14    1
    15    13    14    1
