@<TRIPOS>MOLECULE
/home/cewinharhar/GITHUB/reincatalyze/data/processed/docking_pred/2023-May-22-1902_sub9_nm5_bs15_s42_ex16_mel10_mts1000_k50_ec02_g099_lra9e-4_lrc1e-3/a450f47ca4f24610d4ad642e19216dd37a68a7e2_ligand_9.pdbqt
 14 15 0 0 0
SMALL
GASTEIGER

@<TRIPOS>ATOM
      1  C          6.0590    3.3720    0.0340 C.3     1  UNL1        0.0800
      2  C          6.6590    3.7520    1.3430 C.2     1  UNL1        0.1300
      3  C          8.0670    3.4130    1.6830 C.3     1  UNL1        0.0870
      4  O          6.0080    4.3550    2.1800 O.2     1  UNL1       -0.3000
      5  C          5.0240    2.2760    0.2000 C.3     1  UNL1        0.0430
      6  C          5.6420    0.9960    0.5880 C.2     1  UNL1       -0.0440
      7  C          5.3340    0.3730    1.8030 C.2     1  UNL1        0.0080
      8  C          6.5420    0.3880   -0.2570 C.2     1  UNL1        0.0540
      9  C          5.9450   -0.8290    2.1140 C.2     1  UNL1        0.0510
     10  C          7.1560   -0.8270    0.0620 C.2     1  UNL1        0.1660
     11  C          6.8550   -1.4400    1.2570 C.2     1  UNL1        0.1650
     12  O          8.0710   -1.6190   -0.5990 O.2     1  UNL1       -0.4540
     13  O          7.5980   -2.6090    1.3060 O.2     1  UNL1       -0.4540
     14  C          8.3130   -2.8070    0.1100 C.3     1  UNL1        0.4680
@<TRIPOS>BOND
     1    12    10    1
     2    12    14    1
     3     8    10    1
     4     8     6    2
     5     1     5    1
     6     1     2    1
     7    10    11    2
     8    14    13    1
     9     5     6    1
    10     6     7    1
    11    11    13    1
    12    11     9    1
    13     2     3    1
    14     2     4    2
    15     7     9    2
