@<TRIPOS>MOLECULE
/home/cewinharhar/GITHUB/reincatalyze/data/processed/docking_pred/2023-May-22-1902_sub9_nm5_bs15_s42_ex16_mel10_mts1000_k50_ec02_g099_lra9e-4_lrc1e-3/a450f47ca4f24610d4ad642e19216dd37a68a7e2_ligand_9.pdbqt
 14 15 0 0 0
SMALL
GASTEIGER

@<TRIPOS>ATOM
      1  C          5.4010    1.5430    0.6180 C.3     1  UNL1        0.0800
      2  C          5.1020    0.5610    1.6970 C.2     1  UNL1        0.1300
      3  C          5.8400   -0.7260    1.8080 C.3     1  UNL1        0.0870
      4  O          4.2360    0.7860    2.5270 O.2     1  UNL1       -0.3000
      5  C          6.4980    2.5020    1.0360 C.3     1  UNL1        0.0430
      6  C          7.8310    1.8790    0.9500 C.2     1  UNL1       -0.0440
      7  C          8.3170    1.3500   -0.2520 C.2     1  UNL1        0.0080
      8  C          8.6270    1.8130    2.0710 C.2     1  UNL1        0.0540
      9  C          9.5760    0.7780   -0.2730 C.2     1  UNL1        0.0510
     10  C          9.9000    1.2350    2.0440 C.2     1  UNL1        0.1660
     11  C         10.3780    0.7130    0.8630 C.2     1  UNL1        0.1650
     12  O         10.8680    1.0500    3.0080 O.2     1  UNL1       -0.4540
     13  O         11.6430    0.2130    1.1280 O.2     1  UNL1       -0.4540
     14  C         12.0300    0.4870    2.4540 C.3     1  UNL1        0.4680
@<TRIPOS>BOND
     1     9     7    1
     2     9    11    2
     3     7     6    2
     4     1     5    1
     5     1     2    1
     6    11    13    1
     7    11    10    1
     8     6     5    1
     9     6     8    1
    10    13    14    1
    11     2     3    1
    12     2     4    2
    13    10     8    2
    14    10    12    1
    15    14    12    1
