MODEL 1
REMARK VINA RESULT:      -7.4      0.000      0.000
REMARK SMILES CC(=O)CCc1ccc2c(c1)OCO2
REMARK SMILES IDX 4 1 2 2 1 3 3 4 5 5 6 6 7 7 11 8 8 9 10 10 9 11 12 12 14 13
REMARK SMILES IDX 13 14
REMARK H PARENT
REMARK Flexibility Score: inf
ROOT
ATOM      1  C   UNL     1       5.859   3.261   0.136  1.00  0.00     0.080 C 
ENDROOT
BRANCH   1   2
ATOM      2  C   UNL     1       6.633   3.720   1.323  1.00  0.00     0.130 C 
ATOM      3  C   UNL     1       8.072   3.386   1.494  1.00  0.00     0.087 C 
ATOM      4  O   UNL     1       6.103   4.388   2.196  1.00  0.00    -0.300 OA
ENDBRANCH   1   2
BRANCH   1   5
ATOM      5  C   UNL     1       5.102   1.982   0.433  1.00  0.00     0.043 C 
BRANCH   5   6
ATOM      6  C   UNL     1       5.902   0.786   0.114  1.00  0.00    -0.044 A 
ATOM      7  C   UNL     1       6.198  -0.178   1.084  1.00  0.00     0.008 A 
ATOM      8  C   UNL     1       6.373   0.602  -1.166  1.00  0.00     0.054 A 
ATOM      9  C   UNL     1       6.953  -1.280   0.727  1.00  0.00     0.051 A 
ATOM     10  C   UNL     1       7.135  -0.515  -1.523  1.00  0.00     0.166 A 
ATOM     11  C   UNL     1       7.428  -1.463  -0.569  1.00  0.00     0.165 A 
ATOM     12  O   UNL     1       7.710  -0.920  -2.709  1.00  0.00    -0.454 OA
ATOM     13  O   UNL     1       8.184  -2.442  -1.195  1.00  0.00    -0.454 OA
ATOM     14  C   UNL     1       8.310  -2.182  -2.572  1.00  0.00     0.468 C 
ENDBRANCH   5   6
ENDBRANCH   1   5
TORSDOF 3
ENDMDL
MODEL 2
REMARK VINA RESULT:      -7.3      0.925      1.912
REMARK SMILES CC(=O)CCc1ccc2c(c1)OCO2
REMARK SMILES IDX 4 1 2 2 1 3 3 4 5 5 6 6 7 7 11 8 8 9 10 10 9 11 12 12 14 13
REMARK SMILES IDX 13 14
REMARK H PARENT
REMARK Flexibility Score: inf
ROOT
ATOM      1  C   UNL     1       5.767   3.130   0.205  1.00  0.00     0.080 C 
ENDROOT
BRANCH   1   2
ATOM      2  C   UNL     1       6.620   3.615   1.326  1.00  0.00     0.130 C 
ATOM      3  C   UNL     1       8.085   3.365   1.356  1.00  0.00     0.087 C 
ATOM      4  O   UNL     1       6.135   4.236   2.258  1.00  0.00    -0.300 OA
ENDBRANCH   1   2
BRANCH   1   5
ATOM      5  C   UNL     1       5.144   1.786   0.529  1.00  0.00     0.043 C 
BRANCH   5   6
ATOM      6  C   UNL     1       5.982   0.668   0.059  1.00  0.00    -0.044 A 
ATOM      7  C   UNL     1       6.431   0.596  -1.265  1.00  0.00     0.008 A 
ATOM      8  C   UNL     1       6.338  -0.332   0.934  1.00  0.00     0.054 A 
ATOM      9  C   UNL     1       7.216  -0.477  -1.649  1.00  0.00     0.051 A 
ATOM     10  C   UNL     1       7.132  -1.414   0.541  1.00  0.00     0.166 A 
ATOM     11  C   UNL     1       7.574  -1.487  -0.761  1.00  0.00     0.165 A 
ATOM     12  O   UNL     1       7.614  -2.518   1.211  1.00  0.00    -0.454 OA
ATOM     13  O   UNL     1       8.327  -2.646  -0.864  1.00  0.00    -0.454 OA
ATOM     14  C   UNL     1       8.454  -3.282   0.385  1.00  0.00     0.468 C 
ENDBRANCH   5   6
ENDBRANCH   1   5
TORSDOF 3
ENDMDL
MODEL 3
REMARK VINA RESULT:      -7.3      1.212      1.506
REMARK SMILES CC(=O)CCc1ccc2c(c1)OCO2
REMARK SMILES IDX 4 1 2 2 1 3 3 4 5 5 6 6 7 7 11 8 8 9 10 10 9 11 12 12 14 13
REMARK SMILES IDX 13 14
REMARK H PARENT
REMARK Flexibility Score: inf
ROOT
ATOM      1  C   UNL     1       6.059   3.372   0.034  1.00  0.00     0.080 C 
ENDROOT
BRANCH   1   2
ATOM      2  C   UNL     1       6.659   3.752   1.343  1.00  0.00     0.130 C 
ATOM      3  C   UNL     1       8.067   3.413   1.683  1.00  0.00     0.087 C 
ATOM      4  O   UNL     1       6.008   4.355   2.180  1.00  0.00    -0.300 OA
ENDBRANCH   1   2
BRANCH   1   5
ATOM      5  C   UNL     1       5.024   2.276   0.200  1.00  0.00     0.043 C 
BRANCH   5   6
ATOM      6  C   UNL     1       5.642   0.996   0.588  1.00  0.00    -0.044 A 
ATOM      7  C   UNL     1       5.334   0.373   1.803  1.00  0.00     0.008 A 
ATOM      8  C   UNL     1       6.542   0.388  -0.257  1.00  0.00     0.054 A 
ATOM      9  C   UNL     1       5.945  -0.829   2.114  1.00  0.00     0.051 A 
ATOM     10  C   UNL     1       7.156  -0.827   0.062  1.00  0.00     0.166 A 
ATOM     11  C   UNL     1       6.855  -1.440   1.257  1.00  0.00     0.165 A 
ATOM     12  O   UNL     1       8.071  -1.619  -0.599  1.00  0.00    -0.454 OA
ATOM     13  O   UNL     1       7.598  -2.609   1.306  1.00  0.00    -0.454 OA
ATOM     14  C   UNL     1       8.313  -2.807   0.110  1.00  0.00     0.468 C 
ENDBRANCH   5   6
ENDBRANCH   1   5
TORSDOF 3
ENDMDL
MODEL 4
REMARK VINA RESULT:      -7.1      1.486      5.290
REMARK SMILES CC(=O)CCc1ccc2c(c1)OCO2
REMARK SMILES IDX 4 1 2 2 1 3 3 4 5 5 6 6 7 7 11 8 8 9 10 10 9 11 12 12 14 13
REMARK SMILES IDX 13 14
REMARK H PARENT
REMARK Flexibility Score: inf
ROOT
ATOM      1  C   UNL     1       7.043  -1.385  -0.898  1.00  0.00     0.080 C 
ENDROOT
BRANCH   1   2
ATOM      2  C   UNL     1       7.599  -1.664   0.455  1.00  0.00     0.130 C 
ATOM      3  C   UNL     1       6.727  -1.735   1.658  1.00  0.00     0.087 C 
ATOM      4  O   UNL     1       8.795  -1.843   0.616  1.00  0.00    -0.300 OA
ENDBRANCH   1   2
BRANCH   1   5
ATOM      5  C   UNL     1       7.507  -0.038  -1.417  1.00  0.00     0.043 C 
BRANCH   5   6
ATOM      6  C   UNL     1       7.014   1.069  -0.579  1.00  0.00    -0.044 A 
ATOM      7  C   UNL     1       5.651   1.377  -0.498  1.00  0.00     0.008 A 
ATOM      8  C   UNL     1       7.907   1.824   0.147  1.00  0.00     0.054 A 
ATOM      9  C   UNL     1       5.247   2.428   0.305  1.00  0.00     0.051 A 
ATOM     10  C   UNL     1       7.493   2.885   0.959  1.00  0.00     0.166 A 
ATOM     11  C   UNL     1       6.152   3.189   1.038  1.00  0.00     0.165 A 
ATOM     12  O   UNL     1       8.174   3.772   1.765  1.00  0.00    -0.454 OA
ATOM     13  O   UNL     1       6.036   4.267   1.901  1.00  0.00    -0.454 OA
ATOM     14  C   UNL     1       7.284   4.611   2.456  1.00  0.00     0.468 C 
ENDBRANCH   5   6
ENDBRANCH   1   5
TORSDOF 3
ENDMDL
MODEL 5
REMARK VINA RESULT:      -7.1      3.237      4.280
REMARK SMILES CC(=O)CCc1ccc2c(c1)OCO2
REMARK SMILES IDX 4 1 2 2 1 3 3 4 5 5 6 6 7 7 11 8 8 9 10 10 9 11 12 12 14 13
REMARK SMILES IDX 13 14
REMARK H PARENT
REMARK Flexibility Score: inf
ROOT
ATOM      1  C   UNL     1       5.401   1.543   0.618  1.00  0.00     0.080 C 
ENDROOT
BRANCH   1   2
ATOM      2  C   UNL     1       5.102   0.561   1.697  1.00  0.00     0.130 C 
ATOM      3  C   UNL     1       5.840  -0.726   1.808  1.00  0.00     0.087 C 
ATOM      4  O   UNL     1       4.236   0.786   2.527  1.00  0.00    -0.300 OA
ENDBRANCH   1   2
BRANCH   1   5
ATOM      5  C   UNL     1       6.498   2.502   1.036  1.00  0.00     0.043 C 
BRANCH   5   6
ATOM      6  C   UNL     1       7.831   1.879   0.950  1.00  0.00    -0.044 A 
ATOM      7  C   UNL     1       8.317   1.350  -0.252  1.00  0.00     0.008 A 
ATOM      8  C   UNL     1       8.627   1.813   2.071  1.00  0.00     0.054 A 
ATOM      9  C   UNL     1       9.576   0.778  -0.273  1.00  0.00     0.051 A 
ATOM     10  C   UNL     1       9.900   1.235   2.044  1.00  0.00     0.166 A 
ATOM     11  C   UNL     1      10.378   0.713   0.863  1.00  0.00     0.165 A 
ATOM     12  O   UNL     1      10.868   1.050   3.008  1.00  0.00    -0.454 OA
ATOM     13  O   UNL     1      11.643   0.213   1.128  1.00  0.00    -0.454 OA
ATOM     14  C   UNL     1      12.030   0.487   2.454  1.00  0.00     0.468 C 
ENDBRANCH   5   6
ENDBRANCH   1   5
TORSDOF 3
ENDMDL
