@<TRIPOS>MOLECULE
/home/cewinharhar/GITHUB/reincatalyze/data/processed/docking_pred/2023-May-22-1902_sub9_nm5_bs15_s42_ex16_mel10_mts1000_k50_ec02_g099_lra9e-4_lrc1e-3/a450f47ca4f24610d4ad642e19216dd37a68a7e2_ligand_9.pdbqt
 14 15 0 0 0
SMALL
GASTEIGER

@<TRIPOS>ATOM
      1  C          5.8590    3.2610    0.1360 C.3     1  UNL1        0.0800
      2  C          6.6330    3.7200    1.3230 C.2     1  UNL1        0.1300
      3  C          8.0720    3.3860    1.4940 C.3     1  UNL1        0.0870
      4  O          6.1030    4.3880    2.1960 O.2     1  UNL1       -0.3000
      5  C          5.1020    1.9820    0.4330 C.3     1  UNL1        0.0430
      6  C          5.9020    0.7860    0.1140 C.2     1  UNL1       -0.0440
      7  C          6.1980   -0.1780    1.0840 C.2     1  UNL1        0.0080
      8  C          6.3730    0.6020   -1.1660 C.2     1  UNL1        0.0540
      9  C          6.9530   -1.2800    0.7270 C.2     1  UNL1        0.0510
     10  C          7.1350   -0.5150   -1.5230 C.2     1  UNL1        0.1660
     11  C          7.4280   -1.4630   -0.5690 C.2     1  UNL1        0.1650
     12  O          7.7100   -0.9200   -2.7090 O.2     1  UNL1       -0.4540
     13  O          8.1840   -2.4420   -1.1950 O.2     1  UNL1       -0.4540
     14  C          8.3100   -2.1820   -2.5720 C.3     1  UNL1        0.4680
@<TRIPOS>BOND
     1    12    14    1
     2    12    10    1
     3    14    13    1
     4    10     8    1
     5    10    11    2
     6    13    11    1
     7     8     6    2
     8    11     9    1
     9     6     5    1
    10     6     7    1
    11     1     5    1
    12     1     2    1
    13     9     7    2
    14     2     3    1
    15     2     4    2
