MODEL 1
REMARK VINA RESULT:      -7.8      0.000      0.000
REMARK SMILES CC(=O)CCc1ccc2c(c1)OCO2
REMARK SMILES IDX 4 1 2 2 1 3 3 4 5 5 6 6 7 7 11 8 8 9 10 10 9 11 12 12 14 13
REMARK SMILES IDX 13 14
REMARK H PARENT
REMARK Flexibility Score: inf
ROOT
ATOM      1  C   UNL     1       5.481   2.898   0.221  1.00  0.00     0.080 C 
ENDROOT
BRANCH   1   2
ATOM      2  C   UNL     1       6.307   3.852   1.013  1.00  0.00     0.130 C 
ATOM      3  C   UNL     1       7.276   4.773   0.360  1.00  0.00     0.087 C 
ATOM      4  O   UNL     1       6.211   3.905   2.228  1.00  0.00    -0.300 OA
ENDBRANCH   1   2
BRANCH   1   5
ATOM      5  C   UNL     1       5.245   1.610   0.985  1.00  0.00     0.043 C 
BRANCH   5   6
ATOM      6  C   UNL     1       6.071   0.506   0.464  1.00  0.00    -0.044 A 
ATOM      7  C   UNL     1       6.472  -0.558   1.279  1.00  0.00     0.008 A 
ATOM      8  C   UNL     1       6.460   0.510  -0.856  1.00  0.00     0.054 A 
ATOM      9  C   UNL     1       7.246  -1.567   0.735  1.00  0.00     0.051 A 
ATOM     10  C   UNL     1       7.242  -0.512  -1.403  1.00  0.00     0.166 A 
ATOM     11  C   UNL     1       7.638  -1.559  -0.600  1.00  0.00     0.165 A 
ATOM     12  O   UNL     1       7.752  -0.733  -2.664  1.00  0.00    -0.454 OA
ATOM     13  O   UNL     1       8.390  -2.410  -1.395  1.00  0.00    -0.454 OA
ATOM     14  C   UNL     1       8.411  -1.971  -2.732  1.00  0.00     0.468 C 
ENDBRANCH   5   6
ENDBRANCH   1   5
TORSDOF 3
ENDMDL
MODEL 2
REMARK VINA RESULT:      -7.8      0.984      1.968
REMARK SMILES CC(=O)CCc1ccc2c(c1)OCO2
REMARK SMILES IDX 4 1 2 2 1 3 3 4 5 5 6 6 7 7 11 8 8 9 10 10 9 11 12 12 14 13
REMARK SMILES IDX 13 14
REMARK H PARENT
REMARK Flexibility Score: inf
ROOT
ATOM      1  C   UNL     1       5.422   2.979   0.035  1.00  0.00     0.080 C 
ENDROOT
BRANCH   1   2
ATOM      2  C   UNL     1       6.332   3.733   0.941  1.00  0.00     0.130 C 
ATOM      3  C   UNL     1       7.261   4.775   0.427  1.00  0.00     0.087 C 
ATOM      4  O   UNL     1       6.342   3.515   2.142  1.00  0.00    -0.300 OA
ENDBRANCH   1   2
BRANCH   1   5
ATOM      5  C   UNL     1       5.047   1.634   0.625  1.00  0.00     0.043 C 
BRANCH   5   6
ATOM      6  C   UNL     1       5.930   0.559   0.138  1.00  0.00    -0.044 A 
ATOM      7  C   UNL     1       6.400   0.537  -1.180  1.00  0.00     0.008 A 
ATOM      8  C   UNL     1       6.310  -0.451   0.993  1.00  0.00     0.054 A 
ATOM      9  C   UNL     1       7.227  -0.497  -1.580  1.00  0.00     0.051 A 
ATOM     10  C   UNL     1       7.147  -1.494   0.583  1.00  0.00     0.166 A 
ATOM     11  C   UNL     1       7.609  -1.517  -0.714  1.00  0.00     0.165 A 
ATOM     12  O   UNL     1       7.659  -2.597   1.232  1.00  0.00    -0.454 OA
ATOM     13  O   UNL     1       8.404  -2.646  -0.836  1.00  0.00    -0.454 OA
ATOM     14  C   UNL     1       8.537  -3.310   0.399  1.00  0.00     0.468 C 
ENDBRANCH   5   6
ENDBRANCH   1   5
TORSDOF 3
ENDMDL
MODEL 3
REMARK VINA RESULT:      -7.7      1.916      2.661
REMARK SMILES CC(=O)CCc1ccc2c(c1)OCO2
REMARK SMILES IDX 4 1 2 2 1 3 3 4 5 5 6 6 7 7 11 8 8 9 10 10 9 11 12 12 14 13
REMARK SMILES IDX 13 14
REMARK H PARENT
REMARK Flexibility Score: inf
ROOT
ATOM      1  C   UNL     1       5.531   1.920   1.266  1.00  0.00     0.080 C 
ENDROOT
BRANCH   1   2
ATOM      2  C   UNL     1       5.099   0.701   2.004  1.00  0.00     0.130 C 
ATOM      3  C   UNL     1       6.005  -0.466   2.182  1.00  0.00     0.087 C 
ATOM      4  O   UNL     1       3.981   0.623   2.487  1.00  0.00    -0.300 OA
ENDBRANCH   1   2
BRANCH   1   5
ATOM      5  C   UNL     1       5.405   1.730  -0.232  1.00  0.00     0.043 C 
BRANCH   5   6
ATOM      6  C   UNL     1       6.570   1.024  -0.793  1.00  0.00    -0.044 A 
ATOM      7  C   UNL     1       7.878   1.454  -0.541  1.00  0.00     0.008 A 
ATOM      8  C   UNL     1       6.380  -0.086  -1.584  1.00  0.00     0.054 A 
ATOM      9  C   UNL     1       8.933   0.751  -1.094  1.00  0.00     0.051 A 
ATOM     10  C   UNL     1       7.450  -0.794  -2.140  1.00  0.00     0.166 A 
ATOM     11  C   UNL     1       8.737  -0.371  -1.893  1.00  0.00     0.165 A 
ATOM     12  O   UNL     1       7.521  -1.909  -2.946  1.00  0.00    -0.454 OA
ATOM     13  O   UNL     1       9.581  -1.246  -2.560  1.00  0.00    -0.454 OA
ATOM     14  C   UNL     1       8.855  -2.289  -3.165  1.00  0.00     0.468 C 
ENDBRANCH   5   6
ENDBRANCH   1   5
TORSDOF 3
ENDMDL
MODEL 4
REMARK VINA RESULT:      -7.5      1.819      2.820
REMARK SMILES CC(=O)CCc1ccc2c(c1)OCO2
REMARK SMILES IDX 4 1 2 2 1 3 3 4 5 5 6 6 7 7 11 8 8 9 10 10 9 11 12 12 14 13
REMARK SMILES IDX 13 14
REMARK H PARENT
REMARK Flexibility Score: inf
ROOT
ATOM      1  C   UNL     1       6.220   0.852   1.062  1.00  0.00     0.080 C 
ENDROOT
BRANCH   1   2
ATOM      2  C   UNL     1       5.038   1.751   0.944  1.00  0.00     0.130 C 
ATOM      3  C   UNL     1       4.862   2.661  -0.220  1.00  0.00     0.087 C 
ATOM      4  O   UNL     1       4.174   1.766   1.805  1.00  0.00    -0.300 OA
ENDBRANCH   1   2
BRANCH   1   5
ATOM      5  C   UNL     1       7.194   1.071  -0.079  1.00  0.00     0.043 C 
BRANCH   5   6
ATOM      6  C   UNL     1       7.573  -0.198  -0.726  1.00  0.00    -0.044 A 
ATOM      7  C   UNL     1       7.637  -0.320  -2.118  1.00  0.00     0.008 A 
ATOM      8  C   UNL     1       7.875  -1.295   0.049  1.00  0.00     0.054 A 
ATOM      9  C   UNL     1       8.000  -1.536  -2.669  1.00  0.00     0.051 A 
ATOM     10  C   UNL     1       8.241  -2.522  -0.513  1.00  0.00     0.166 A 
ATOM     11  C   UNL     1       8.304  -2.643  -1.883  1.00  0.00     0.165 A 
ATOM     12  O   UNL     1       8.583  -3.741   0.034  1.00  0.00    -0.454 OA
ATOM     13  O   UNL     1       8.687  -3.948  -2.152  1.00  0.00    -0.454 OA
ATOM     14  C   UNL     1       8.962  -4.652  -0.965  1.00  0.00     0.468 C 
ENDBRANCH   5   6
ENDBRANCH   1   5
TORSDOF 3
ENDMDL
MODEL 5
REMARK VINA RESULT:      -7.5      1.962      3.036
REMARK SMILES CC(=O)CCc1ccc2c(c1)OCO2
REMARK SMILES IDX 4 1 2 2 1 3 3 4 5 5 6 6 7 7 11 8 8 9 10 10 9 11 12 12 14 13
REMARK SMILES IDX 13 14
REMARK H PARENT
REMARK Flexibility Score: inf
ROOT
ATOM      1  C   UNL     1       5.755   1.308  -0.325  1.00  0.00     0.080 C 
ENDROOT
BRANCH   1   2
ATOM      2  C   UNL     1       5.166   1.298   1.043  1.00  0.00     0.130 C 
ATOM      3  C   UNL     1       5.324   0.131   1.953  1.00  0.00     0.087 C 
ATOM      4  O   UNL     1       4.533   2.254   1.460  1.00  0.00    -0.300 OA
ENDBRANCH   1   2
BRANCH   1   5
ATOM      5  C   UNL     1       7.249   1.055  -0.284  1.00  0.00     0.043 C 
BRANCH   5   6
ATOM      6  C   UNL     1       7.600  -0.242  -0.890  1.00  0.00    -0.044 A 
ATOM      7  C   UNL     1       7.620  -0.421  -2.278  1.00  0.00     0.008 A 
ATOM      8  C   UNL     1       7.920  -1.308  -0.081  1.00  0.00     0.054 A 
ATOM      9  C   UNL     1       7.959  -1.660  -2.790  1.00  0.00     0.051 A 
ATOM     10  C   UNL     1       8.262  -2.559  -0.604  1.00  0.00     0.166 A 
ATOM     11  C   UNL     1       8.281  -2.737  -1.969  1.00  0.00     0.165 A 
ATOM     12  O   UNL     1       8.614  -3.758  -0.019  1.00  0.00    -0.454 OA
ATOM     13  O   UNL     1       8.649  -4.054  -2.197  1.00  0.00    -0.454 OA
ATOM     14  C   UNL     1       8.957  -4.711  -0.991  1.00  0.00     0.468 C 
ENDBRANCH   5   6
ENDBRANCH   1   5
TORSDOF 3
ENDMDL
