MODEL 1
REMARK VINA RESULT:      -7.6      0.000      0.000
REMARK SMILES CC(=O)CCc1ccc2c(c1)OCO2
REMARK SMILES IDX 4 1 2 2 1 3 3 4 5 5 6 6 7 7 11 8 8 9 10 10 9 11 12 12 14 13
REMARK SMILES IDX 13 14
REMARK H PARENT
REMARK Flexibility Score: inf
ROOT
ATOM      1  C   UNL     1       5.527   1.913   1.249  1.00  0.00     0.080 C 
ENDROOT
BRANCH   1   2
ATOM      2  C   UNL     1       5.080   0.708   2.003  1.00  0.00     0.130 C 
ATOM      3  C   UNL     1       5.962  -0.478   2.173  1.00  0.00     0.087 C 
ATOM      4  O   UNL     1       3.969   0.660   2.505  1.00  0.00    -0.300 OA
ENDBRANCH   1   2
BRANCH   1   5
ATOM      5  C   UNL     1       5.396   1.707  -0.247  1.00  0.00     0.043 C 
BRANCH   5   6
ATOM      6  C   UNL     1       6.568   1.011  -0.807  1.00  0.00    -0.044 A 
ATOM      7  C   UNL     1       7.872   1.451  -0.555  1.00  0.00     0.008 A 
ATOM      8  C   UNL     1       6.387  -0.102  -1.597  1.00  0.00     0.054 A 
ATOM      9  C   UNL     1       8.933   0.756  -1.107  1.00  0.00     0.051 A 
ATOM     10  C   UNL     1       7.463  -0.801  -2.152  1.00  0.00     0.166 A 
ATOM     11  C   UNL     1       8.746  -0.368  -1.905  1.00  0.00     0.165 A 
ATOM     12  O   UNL     1       7.543  -1.916  -2.959  1.00  0.00    -0.454 OA
ATOM     13  O   UNL     1       9.597  -1.236  -2.571  1.00  0.00    -0.454 OA
ATOM     14  C   UNL     1       8.881  -2.285  -3.177  1.00  0.00     0.468 C 
ENDBRANCH   5   6
ENDBRANCH   1   5
TORSDOF 3
ENDMDL
MODEL 2
REMARK VINA RESULT:      -7.6      2.449      3.124
REMARK SMILES CC(=O)CCc1ccc2c(c1)OCO2
REMARK SMILES IDX 4 1 2 2 1 3 3 4 5 5 6 6 7 7 11 8 8 9 10 10 9 11 12 12 14 13
REMARK SMILES IDX 13 14
REMARK H PARENT
REMARK Flexibility Score: inf
ROOT
ATOM      1  C   UNL     1       5.301   3.190   0.271  1.00  0.00     0.080 C 
ENDROOT
BRANCH   1   2
ATOM      2  C   UNL     1       6.264   4.006   1.063  1.00  0.00     0.130 C 
ATOM      3  C   UNL     1       7.358   4.774   0.411  1.00  0.00     0.087 C 
ATOM      4  O   UNL     1       6.182   4.067   2.279  1.00  0.00    -0.300 OA
ENDBRANCH   1   2
BRANCH   1   5
ATOM      5  C   UNL     1       5.023   1.861   0.944  1.00  0.00     0.043 C 
BRANCH   5   6
ATOM      6  C   UNL     1       5.866   0.784   0.395  1.00  0.00    -0.044 A 
ATOM      7  C   UNL     1       6.277   0.784  -0.943  1.00  0.00     0.008 A 
ATOM      8  C   UNL     1       6.267  -0.251   1.210  1.00  0.00     0.054 A 
ATOM      9  C   UNL     1       7.069  -0.253  -1.402  1.00  0.00     0.051 A 
ATOM     10  C   UNL     1       7.068  -1.297   0.741  1.00  0.00     0.166 A 
ATOM     11  C   UNL     1       7.471  -1.298  -0.575  1.00  0.00     0.165 A 
ATOM     12  O   UNL     1       7.590  -2.422   1.342  1.00  0.00    -0.454 OA
ATOM     13  O   UNL     1       8.242  -2.435  -0.757  1.00  0.00    -0.454 OA
ATOM     14  C   UNL     1       8.418  -3.129   0.455  1.00  0.00     0.468 C 
ENDBRANCH   5   6
ENDBRANCH   1   5
TORSDOF 3
ENDMDL
MODEL 3
REMARK VINA RESULT:      -7.5      1.607      2.164
REMARK SMILES CC(=O)CCc1ccc2c(c1)OCO2
REMARK SMILES IDX 4 1 2 2 1 3 3 4 5 5 6 6 7 7 11 8 8 9 10 10 9 11 12 12 14 13
REMARK SMILES IDX 13 14
REMARK H PARENT
REMARK Flexibility Score: inf
ROOT
ATOM      1  C   UNL     1       5.441   2.910   0.195  1.00  0.00     0.080 C 
ENDROOT
BRANCH   1   2
ATOM      2  C   UNL     1       6.247   3.879   0.989  1.00  0.00     0.130 C 
ATOM      3  C   UNL     1       7.247   4.773   0.347  1.00  0.00     0.087 C 
ATOM      4  O   UNL     1       6.107   3.968   2.198  1.00  0.00    -0.300 OA
ENDBRANCH   1   2
BRANCH   1   5
ATOM      5  C   UNL     1       5.715   1.483   0.627  1.00  0.00     0.043 C 
BRANCH   5   6
ATOM      6  C   UNL     1       6.758   0.852  -0.201  1.00  0.00    -0.044 A 
ATOM      7  C   UNL     1       8.030   1.421  -0.337  1.00  0.00     0.008 A 
ATOM      8  C   UNL     1       6.487  -0.326  -0.859  1.00  0.00     0.054 A 
ATOM      9  C   UNL     1       8.969   0.783  -1.127  1.00  0.00     0.051 A 
ATOM     10  C   UNL     1       7.441  -0.967  -1.656  1.00  0.00     0.166 A 
ATOM     11  C   UNL     1       8.692  -0.407  -1.791  1.00  0.00     0.165 A 
ATOM     12  O   UNL     1       7.416  -2.126  -2.402  1.00  0.00    -0.454 OA
ATOM     13  O   UNL     1       9.417  -1.244  -2.625  1.00  0.00    -0.454 OA
ATOM     14  C   UNL     1       8.676  -2.393  -2.962  1.00  0.00     0.468 C 
ENDBRANCH   5   6
ENDBRANCH   1   5
TORSDOF 3
ENDMDL
MODEL 4
REMARK VINA RESULT:      -7.4      1.929      2.545
REMARK SMILES CC(=O)CCc1ccc2c(c1)OCO2
REMARK SMILES IDX 4 1 2 2 1 3 3 4 5 5 6 6 7 7 11 8 8 9 10 10 9 11 12 12 14 13
REMARK SMILES IDX 13 14
REMARK H PARENT
REMARK Flexibility Score: inf
ROOT
ATOM      1  C   UNL     1       6.396   1.042   1.147  1.00  0.00     0.080 C 
ENDROOT
BRANCH   1   2
ATOM      2  C   UNL     1       5.111   1.776   0.977  1.00  0.00     0.130 C 
ATOM      3  C   UNL     1       4.847   2.621  -0.218  1.00  0.00     0.087 C 
ATOM      4  O   UNL     1       4.232   1.704   1.821  1.00  0.00    -0.300 OA
ENDBRANCH   1   2
BRANCH   1   5
ATOM      5  C   UNL     1       7.297   1.224  -0.058  1.00  0.00     0.043 C 
BRANCH   5   6
ATOM      6  C   UNL     1       7.632  -0.065  -0.689  1.00  0.00    -0.044 A 
ATOM      7  C   UNL     1       7.666  -0.214  -2.080  1.00  0.00     0.008 A 
ATOM      8  C   UNL     1       7.923  -1.156   0.100  1.00  0.00     0.054 A 
ATOM      9  C   UNL     1       7.988  -1.448  -2.616  1.00  0.00     0.051 A 
ATOM     10  C   UNL     1       8.248  -2.401  -0.447  1.00  0.00     0.166 A 
ATOM     11  C   UNL     1       8.280  -2.548  -1.816  1.00  0.00     0.165 A 
ATOM     12  O   UNL     1       8.570  -3.618   0.115  1.00  0.00    -0.454 OA
ATOM     13  O   UNL     1       8.626  -3.866  -2.069  1.00  0.00    -0.454 OA
ATOM     14  C   UNL     1       8.908  -4.556  -0.875  1.00  0.00     0.468 C 
ENDBRANCH   5   6
ENDBRANCH   1   5
TORSDOF 3
ENDMDL
MODEL 5
REMARK VINA RESULT:      -7.4      1.921      2.402
REMARK SMILES CC(=O)CCc1ccc2c(c1)OCO2
REMARK SMILES IDX 4 1 2 2 1 3 3 4 5 5 6 6 7 7 11 8 8 9 10 10 9 11 12 12 14 13
REMARK SMILES IDX 13 14
REMARK H PARENT
REMARK Flexibility Score: inf
ROOT
ATOM      1  C   UNL     1       5.766   1.345  -0.299  1.00  0.00     0.080 C 
ENDROOT
BRANCH   1   2
ATOM      2  C   UNL     1       5.178   1.290   1.069  1.00  0.00     0.130 C 
ATOM      3  C   UNL     1       5.349   0.101   1.946  1.00  0.00     0.087 C 
ATOM      4  O   UNL     1       4.534   2.228   1.512  1.00  0.00    -0.300 OA
ENDBRANCH   1   2
BRANCH   1   5
ATOM      5  C   UNL     1       7.259   1.089  -0.267  1.00  0.00     0.043 C 
BRANCH   5   6
ATOM      6  C   UNL     1       7.606  -0.206  -0.878  1.00  0.00    -0.044 A 
ATOM      7  C   UNL     1       7.628  -0.379  -2.266  1.00  0.00     0.008 A 
ATOM      8  C   UNL     1       7.919  -1.278  -0.073  1.00  0.00     0.054 A 
ATOM      9  C   UNL     1       7.961  -1.618  -2.783  1.00  0.00     0.051 A 
ATOM     10  C   UNL     1       8.256  -2.528  -0.600  1.00  0.00     0.166 A 
ATOM     11  C   UNL     1       8.277  -2.700  -1.966  1.00  0.00     0.165 A 
ATOM     12  O   UNL     1       8.600  -3.731  -0.020  1.00  0.00    -0.454 OA
ATOM     13  O   UNL     1       8.638  -4.018  -2.199  1.00  0.00    -0.454 OA
ATOM     14  C   UNL     1       8.941  -4.682  -0.996  1.00  0.00     0.468 C 
ENDBRANCH   5   6
ENDBRANCH   1   5
TORSDOF 3
ENDMDL
