@<TRIPOS>MOLECULE
/home/cewinharhar/GITHUB/reincatalyze/data/processed/docking_pred/2023-May-22-1902_sub9_nm5_bs15_s42_ex16_mel10_mts1000_k50_ec02_g099_lra9e-4_lrc1e-3/a614218f6e6a1b7d791f470f20b1a009abdeaae3_ligand_9.pdbqt
 14 15 0 0 0
SMALL
GASTEIGER

@<TRIPOS>ATOM
      1  C          5.5270    1.9130    1.2490 C.3     1  UNL1        0.0800
      2  C          5.0800    0.7080    2.0030 C.2     1  UNL1        0.1300
      3  C          5.9620   -0.4780    2.1730 C.3     1  UNL1        0.0870
      4  O          3.9690    0.6600    2.5050 O.2     1  UNL1       -0.3000
      5  C          5.3960    1.7070   -0.2470 C.3     1  UNL1        0.0430
      6  C          6.5680    1.0110   -0.8070 C.2     1  UNL1       -0.0440
      7  C          7.8720    1.4510   -0.5550 C.2     1  UNL1        0.0080
      8  C          6.3870   -0.1020   -1.5970 C.2     1  UNL1        0.0540
      9  C          8.9330    0.7560   -1.1070 C.2     1  UNL1        0.0510
     10  C          7.4630   -0.8010   -2.1520 C.2     1  UNL1        0.1660
     11  C          8.7460   -0.3680   -1.9050 C.2     1  UNL1        0.1650
     12  O          7.5430   -1.9160   -2.9590 O.2     1  UNL1       -0.4540
     13  O          9.5970   -1.2360   -2.5710 O.2     1  UNL1       -0.4540
     14  C          8.8810   -2.2850   -3.1770 C.3     1  UNL1        0.4680
@<TRIPOS>BOND
     1    14    12    1
     2    14    13    1
     3    12    10    1
     4    13    11    1
     5    10    11    2
     6    10     8    1
     7    11     9    1
     8     8     6    2
     9     9     7    2
    10     6     7    1
    11     6     5    1
    12     5     1    1
    13     1     2    1
    14     2     3    1
    15     2     4    2
