@<TRIPOS>MOLECULE
/home/cewinharhar/GITHUB/reincatalyze/data/processed/docking_pred/2023-May-22-1902_sub9_nm5_bs15_s42_ex16_mel10_mts1000_k50_ec02_g099_lra9e-4_lrc1e-3/a614218f6e6a1b7d791f470f20b1a009abdeaae3_ligand_9.pdbqt
 14 15 0 0 0
SMALL
GASTEIGER

@<TRIPOS>ATOM
      1  C          5.3010    3.1900    0.2710 C.3     1  UNL1        0.0800
      2  C          6.2640    4.0060    1.0630 C.2     1  UNL1        0.1300
      3  C          7.3580    4.7740    0.4110 C.3     1  UNL1        0.0870
      4  O          6.1820    4.0670    2.2790 O.2     1  UNL1       -0.3000
      5  C          5.0230    1.8610    0.9440 C.3     1  UNL1        0.0430
      6  C          5.8660    0.7840    0.3950 C.2     1  UNL1       -0.0440
      7  C          6.2770    0.7840   -0.9430 C.2     1  UNL1        0.0080
      8  C          6.2670   -0.2510    1.2100 C.2     1  UNL1        0.0540
      9  C          7.0690   -0.2530   -1.4020 C.2     1  UNL1        0.0510
     10  C          7.0680   -1.2970    0.7410 C.2     1  UNL1        0.1660
     11  C          7.4710   -1.2980   -0.5750 C.2     1  UNL1        0.1650
     12  O          7.5900   -2.4220    1.3420 O.2     1  UNL1       -0.4540
     13  O          8.2420   -2.4350   -0.7570 O.2     1  UNL1       -0.4540
     14  C          8.4180   -3.1290    0.4550 C.3     1  UNL1        0.4680
@<TRIPOS>BOND
     1     9     7    1
     2     9    11    2
     3     7     6    2
     4    13    11    1
     5    13    14    1
     6    11    10    1
     7     1     5    1
     8     1     2    1
     9     6     5    1
    10     6     8    1
    11     3     2    1
    12    14    12    1
    13    10     8    2
    14    10    12    1
    15     2     4    2
