@<TRIPOS>MOLECULE
/home/cewinharhar/GITHUB/reincatalyze/data/processed/docking_pred/2023-May-22-1902_sub9_nm5_bs15_s42_ex16_mel10_mts1000_k50_ec02_g099_lra9e-4_lrc1e-3/a614218f6e6a1b7d791f470f20b1a009abdeaae3_ligand_9.pdbqt
 14 15 0 0 0
SMALL
GASTEIGER

@<TRIPOS>ATOM
      1  C          6.3960    1.0420    1.1470 C.3     1  UNL1        0.0800
      2  C          5.1110    1.7760    0.9770 C.2     1  UNL1        0.1300
      3  C          4.8470    2.6210   -0.2180 C.3     1  UNL1        0.0870
      4  O          4.2320    1.7040    1.8210 O.2     1  UNL1       -0.3000
      5  C          7.2970    1.2240   -0.0580 C.3     1  UNL1        0.0430
      6  C          7.6320   -0.0650   -0.6890 C.2     1  UNL1       -0.0440
      7  C          7.6660   -0.2140   -2.0800 C.2     1  UNL1        0.0080
      8  C          7.9230   -1.1560    0.1000 C.2     1  UNL1        0.0540
      9  C          7.9880   -1.4480   -2.6160 C.2     1  UNL1        0.0510
     10  C          8.2480   -2.4010   -0.4470 C.2     1  UNL1        0.1660
     11  C          8.2800   -2.5480   -1.8160 C.2     1  UNL1        0.1650
     12  O          8.5700   -3.6180    0.1150 O.2     1  UNL1       -0.4540
     13  O          8.6260   -3.8660   -2.0690 O.2     1  UNL1       -0.4540
     14  C          8.9080   -4.5560   -0.8750 C.3     1  UNL1        0.4680
@<TRIPOS>BOND
     1     9     7    1
     2     9    11    2
     3     7     6    2
     4    13    11    1
     5    13    14    1
     6    11    10    1
     7    14    12    1
     8     6     5    1
     9     6     8    1
    10    10     8    2
    11    10    12    1
    12     3     2    1
    13     5     1    1
    14     2     1    1
    15     2     4    2
