MODEL 1
REMARK VINA RESULT:      -8.0      0.000      0.000
REMARK SMILES CC(=O)CCc1ccc2c(c1)OCO2
REMARK SMILES IDX 4 1 2 2 1 3 3 4 5 5 6 6 7 7 11 8 8 9 10 10 9 11 12 12 14 13
REMARK SMILES IDX 13 14
REMARK H PARENT
REMARK Flexibility Score: inf
ROOT
ATOM      1  C   UNL     1       5.429   2.935   0.069  1.00  0.00     0.080 C 
ENDROOT
BRANCH   1   2
ATOM      2  C   UNL     1       6.295   3.789   0.929  1.00  0.00     0.130 C 
ATOM      3  C   UNL     1       7.247   4.773   0.347  1.00  0.00     0.087 C 
ATOM      4  O   UNL     1       6.249   3.704   2.145  1.00  0.00    -0.300 OA
ENDBRANCH   1   2
BRANCH   1   5
ATOM      5  C   UNL     1       5.106   1.619   0.747  1.00  0.00     0.043 C 
BRANCH   5   6
ATOM      6  C   UNL     1       5.960   0.525   0.251  1.00  0.00    -0.044 A 
ATOM      7  C   UNL     1       6.313  -0.557   1.067  1.00  0.00     0.008 A 
ATOM      8  C   UNL     1       6.425   0.555  -1.044  1.00  0.00     0.054 A 
ATOM      9  C   UNL     1       7.116  -1.555   0.547  1.00  0.00     0.051 A 
ATOM     10  C   UNL     1       7.236  -0.457  -1.565  1.00  0.00     0.166 A 
ATOM     11  C   UNL     1       7.585  -1.521  -0.763  1.00  0.00     0.165 A 
ATOM     12  O   UNL     1       7.817  -0.653  -2.800  1.00  0.00    -0.454 OA
ATOM     13  O   UNL     1       8.380  -2.357  -1.530  1.00  0.00    -0.454 OA
ATOM     14  C   UNL     1       8.479  -1.891  -2.855  1.00  0.00     0.468 C 
ENDBRANCH   5   6
ENDBRANCH   1   5
TORSDOF 3
ENDMDL
MODEL 2
REMARK VINA RESULT:      -7.8      0.978      1.962
REMARK SMILES CC(=O)CCc1ccc2c(c1)OCO2
REMARK SMILES IDX 4 1 2 2 1 3 3 4 5 5 6 6 7 7 11 8 8 9 10 10 9 11 12 12 14 13
REMARK SMILES IDX 13 14
REMARK H PARENT
REMARK Flexibility Score: inf
ROOT
ATOM      1  C   UNL     1       5.482   2.894   0.210  1.00  0.00     0.080 C 
ENDROOT
BRANCH   1   2
ATOM      2  C   UNL     1       6.290   3.872   0.991  1.00  0.00     0.130 C 
ATOM      3  C   UNL     1       7.272   4.775   0.334  1.00  0.00     0.087 C 
ATOM      4  O   UNL     1       6.168   3.959   2.203  1.00  0.00    -0.300 OA
ENDBRANCH   1   2
BRANCH   1   5
ATOM      5  C   UNL     1       5.334   1.582   0.956  1.00  0.00     0.043 C 
BRANCH   5   6
ATOM      6  C   UNL     1       6.112   0.503   0.322  1.00  0.00    -0.044 A 
ATOM      7  C   UNL     1       6.401   0.514  -1.047  1.00  0.00     0.008 A 
ATOM      8  C   UNL     1       6.572  -0.545   1.086  1.00  0.00     0.054 A 
ATOM      9  C   UNL     1       7.136  -0.526  -1.587  1.00  0.00     0.051 A 
ATOM     10  C   UNL     1       7.315  -1.594   0.536  1.00  0.00     0.166 A 
ATOM     11  C   UNL     1       7.599  -1.584  -0.811  1.00  0.00     0.165 A 
ATOM     12  O   UNL     1       7.876  -2.732   1.076  1.00  0.00    -0.454 OA
ATOM     13  O   UNL     1       8.337  -2.728  -1.073  1.00  0.00    -0.454 OA
ATOM     14  C   UNL     1       8.613  -3.437   0.111  1.00  0.00     0.468 C 
ENDBRANCH   5   6
ENDBRANCH   1   5
TORSDOF 3
ENDMDL
MODEL 3
REMARK VINA RESULT:      -7.6      1.877      2.616
REMARK SMILES CC(=O)CCc1ccc2c(c1)OCO2
REMARK SMILES IDX 4 1 2 2 1 3 3 4 5 5 6 6 7 7 11 8 8 9 10 10 9 11 12 12 14 13
REMARK SMILES IDX 13 14
REMARK H PARENT
REMARK Flexibility Score: inf
ROOT
ATOM      1  C   UNL     1       5.544   1.920   1.270  1.00  0.00     0.080 C 
ENDROOT
BRANCH   1   2
ATOM      2  C   UNL     1       5.113   0.700   2.007  1.00  0.00     0.130 C 
ATOM      3  C   UNL     1       6.020  -0.465   2.186  1.00  0.00     0.087 C 
ATOM      4  O   UNL     1       3.995   0.621   2.489  1.00  0.00    -0.300 OA
ENDBRANCH   1   2
BRANCH   1   5
ATOM      5  C   UNL     1       5.415   1.732  -0.229  1.00  0.00     0.043 C 
BRANCH   5   6
ATOM      6  C   UNL     1       6.579   1.025  -0.792  1.00  0.00    -0.044 A 
ATOM      7  C   UNL     1       7.888   1.451  -0.540  1.00  0.00     0.008 A 
ATOM      8  C   UNL     1       6.386  -0.083  -1.586  1.00  0.00     0.054 A 
ATOM      9  C   UNL     1       8.942   0.748  -1.095  1.00  0.00     0.051 A 
ATOM     10  C   UNL     1       7.455  -0.791  -2.144  1.00  0.00     0.166 A 
ATOM     11  C   UNL     1       8.743  -0.372  -1.897  1.00  0.00     0.165 A 
ATOM     12  O   UNL     1       7.523  -1.905  -2.954  1.00  0.00    -0.454 OA
ATOM     13  O   UNL     1       9.585  -1.247  -2.566  1.00  0.00    -0.454 OA
ATOM     14  C   UNL     1       8.857  -2.287  -3.174  1.00  0.00     0.468 C 
ENDBRANCH   5   6
ENDBRANCH   1   5
TORSDOF 3
ENDMDL
MODEL 4
REMARK VINA RESULT:      -7.5      1.954      3.035
REMARK SMILES CC(=O)CCc1ccc2c(c1)OCO2
REMARK SMILES IDX 4 1 2 2 1 3 3 4 5 5 6 6 7 7 11 8 8 9 10 10 9 11 12 12 14 13
REMARK SMILES IDX 13 14
REMARK H PARENT
REMARK Flexibility Score: inf
ROOT
ATOM      1  C   UNL     1       5.794   1.313  -0.352  1.00  0.00     0.080 C 
ENDROOT
BRANCH   1   2
ATOM      2  C   UNL     1       5.205   1.320   1.016  1.00  0.00     0.130 C 
ATOM      3  C   UNL     1       5.330   0.149   1.925  1.00  0.00     0.087 C 
ATOM      4  O   UNL     1       4.599   2.293   1.432  1.00  0.00    -0.300 OA
ENDBRANCH   1   2
BRANCH   1   5
ATOM      5  C   UNL     1       7.287   1.051  -0.308  1.00  0.00     0.043 C 
BRANCH   5   6
ATOM      6  C   UNL     1       7.631  -0.250  -0.910  1.00  0.00    -0.044 A 
ATOM      7  C   UNL     1       7.657  -0.432  -2.297  1.00  0.00     0.008 A 
ATOM      8  C   UNL     1       7.939  -1.317  -0.097  1.00  0.00     0.054 A 
ATOM      9  C   UNL     1       7.988  -1.675  -2.805  1.00  0.00     0.051 A 
ATOM     10  C   UNL     1       8.274  -2.572  -0.616  1.00  0.00     0.166 A 
ATOM     11  C   UNL     1       8.298  -2.752  -1.981  1.00  0.00     0.165 A 
ATOM     12  O   UNL     1       8.613  -3.772  -0.027  1.00  0.00    -0.454 OA
ATOM     13  O   UNL     1       8.657  -4.072  -2.205  1.00  0.00    -0.454 OA
ATOM     14  C   UNL     1       8.954  -4.730  -0.996  1.00  0.00     0.468 C 
ENDBRANCH   5   6
ENDBRANCH   1   5
TORSDOF 3
ENDMDL
MODEL 5
REMARK VINA RESULT:      -7.4      1.815      2.844
REMARK SMILES CC(=O)CCc1ccc2c(c1)OCO2
REMARK SMILES IDX 4 1 2 2 1 3 3 4 5 5 6 6 7 7 11 8 8 9 10 10 9 11 12 12 14 13
REMARK SMILES IDX 13 14
REMARK H PARENT
REMARK Flexibility Score: inf
ROOT
ATOM      1  C   UNL     1       6.393   0.884   1.046  1.00  0.00     0.080 C 
ENDROOT
BRANCH   1   2
ATOM      2  C   UNL     1       5.165   1.721   0.947  1.00  0.00     0.130 C 
ATOM      3  C   UNL     1       4.935   2.636  -0.203  1.00  0.00     0.087 C 
ATOM      4  O   UNL     1       4.306   1.679   1.813  1.00  0.00    -0.300 OA
ENDBRANCH   1   2
BRANCH   1   5
ATOM      5  C   UNL     1       7.287   1.072  -0.164  1.00  0.00     0.043 C 
BRANCH   5   6
ATOM      6  C   UNL     1       7.623  -0.215  -0.799  1.00  0.00    -0.044 A 
ATOM      7  C   UNL     1       7.642  -0.362  -2.191  1.00  0.00     0.008 A 
ATOM      8  C   UNL     1       7.929  -1.304  -0.015  1.00  0.00     0.054 A 
ATOM      9  C   UNL     1       7.965  -1.594  -2.731  1.00  0.00     0.051 A 
ATOM     10  C   UNL     1       8.256  -2.546  -0.566  1.00  0.00     0.166 A 
ATOM     11  C   UNL     1       8.274  -2.692  -1.935  1.00  0.00     0.165 A 
ATOM     12  O   UNL     1       8.592  -3.762  -0.009  1.00  0.00    -0.454 OA
ATOM     13  O   UNL     1       8.626  -4.008  -2.193  1.00  0.00    -0.454 OA
ATOM     14  C   UNL     1       8.925  -4.697  -1.003  1.00  0.00     0.468 C 
ENDBRANCH   5   6
ENDBRANCH   1   5
TORSDOF 3
ENDMDL
