@<TRIPOS>MOLECULE
/home/cewinharhar/GITHUB/reincatalyze/data/processed/docking_pred/2023-May-22-1902_sub9_nm5_bs15_s42_ex16_mel10_mts1000_k50_ec02_g099_lra9e-4_lrc1e-3/a7c8c9f10e55c2841f25afbe7e611a3f864293db_ligand_9.pdbqt
 14 15 0 0 0
SMALL
GASTEIGER

@<TRIPOS>ATOM
      1  C          5.4740    2.8560    0.2330 C.3     1  UNL1        0.0800
      2  C          6.2970    3.8320    1.0010 C.2     1  UNL1        0.1300
      3  C          7.2250    4.7750    0.3220 C.3     1  UNL1        0.0870
      4  O          6.2320    3.8850    2.2180 O.2     1  UNL1       -0.3000
      5  C          5.3380    1.5440    0.9790 C.3     1  UNL1        0.0430
      6  C          6.1140    0.4670    0.3380 C.2     1  UNL1       -0.0440
      7  C          6.3870    0.4790   -1.0350 C.2     1  UNL1        0.0080
      8  C          6.5870   -0.5780    1.0970 C.2     1  UNL1        0.0540
      9  C          7.1210   -0.5580   -1.5810 C.2     1  UNL1        0.0510
     10  C          7.3300   -1.6240    0.5400 C.2     1  UNL1        0.1660
     11  C          7.5980   -1.6140   -0.8100 C.2     1  UNL1        0.1650
     12  O          7.9020   -2.7580    1.0740 O.2     1  UNL1       -0.4540
     13  O          8.3390   -2.7540   -1.0800 O.2     1  UNL1       -0.4540
     14  C          8.6320   -3.4610    0.1010 C.3     1  UNL1        0.4680
@<TRIPOS>BOND
     1     9     7    1
     2     9    11    2
     3    13    11    1
     4    13    14    1
     5     7     6    2
     6    11    10    1
     7    14    12    1
     8     1     5    1
     9     1     2    1
    10     3     2    1
    11     6     5    1
    12     6     8    1
    13    10    12    1
    14    10     8    2
    15     2     4    2
