@<TRIPOS>MOLECULE
/home/cewinharhar/GITHUB/reincatalyze/data/processed/docking_pred/2023-May-22-1902_sub9_nm5_bs15_s42_ex16_mel10_mts1000_k50_ec02_g099_lra9e-4_lrc1e-3/a7c8c9f10e55c2841f25afbe7e611a3f864293db_ligand_9.pdbqt
 14 15 0 0 0
SMALL
GASTEIGER

@<TRIPOS>ATOM
      1  C          6.0620    0.7250    1.0460 C.3     1  UNL1        0.0800
      2  C          4.9670    1.7290    0.9490 C.2     1  UNL1        0.1300
      3  C          4.8800    2.6830   -0.1890 C.3     1  UNL1        0.0870
      4  O          4.1030    1.7990    1.8090 O.2     1  UNL1       -0.3000
      5  C          7.1290    0.9710   -0.0030 C.3     1  UNL1        0.0430
      6  C          7.5320   -0.2770   -0.6750 C.2     1  UNL1       -0.0440
      7  C          7.5980   -0.3710   -2.0700 C.2     1  UNL1        0.0080
      8  C          7.8570   -1.3830    0.0780 C.2     1  UNL1        0.0540
      9  C          7.9840   -1.5680   -2.6450 C.2     1  UNL1        0.0510
     10  C          8.2480   -2.5910   -0.5090 C.2     1  UNL1        0.1660
     11  C          8.3110   -2.6840   -1.8810 C.2     1  UNL1        0.1650
     12  O          8.6140   -3.8130    0.0130 O.2     1  UNL1       -0.4540
     13  O          8.7210   -3.9750   -2.1770 O.2     1  UNL1       -0.4540
     14  C          9.0110   -4.6970   -1.0040 C.3     1  UNL1        0.4680
@<TRIPOS>BOND
     1     9     7    1
     2     9    11    2
     3    13    11    1
     4    13    14    1
     5     7     6    2
     6    11    10    1
     7    14    12    1
     8     6     5    1
     9     6     8    1
    10    10    12    1
    11    10     8    2
    12     3     2    1
    13     5     1    1
    14     2     1    1
    15     2     4    2
