@<TRIPOS>MOLECULE
/home/cewinharhar/GITHUB/reincatalyze/data/processed/docking_pred/2023-May-22-1902_sub9_nm5_bs15_s42_ex16_mel10_mts1000_k50_ec02_g099_lra9e-4_lrc1e-3/a7c8c9f10e55c2841f25afbe7e611a3f864293db_ligand_9.pdbqt
 14 15 0 0 0
SMALL
GASTEIGER

@<TRIPOS>ATOM
      1  C          5.5080    2.8990    0.1940 C.3     1  UNL1        0.0800
      2  C          6.2860    3.8520    1.0340 C.2     1  UNL1        0.1300
      3  C          7.2920    4.7750    0.4410 C.3     1  UNL1        0.0870
      4  O          6.1190    3.9030    2.2420 O.2     1  UNL1       -0.3000
      5  C          5.2650    1.5940    0.9240 C.3     1  UNL1        0.0430
      6  C          6.0820    0.4980    0.3730 C.2     1  UNL1       -0.0440
      7  C          6.4640   -0.5970    1.1550 C.2     1  UNL1        0.0080
      8  C          6.4830    0.5420   -0.9430 C.2     1  UNL1        0.0540
      9  C          7.2310   -1.5960    0.5830 C.2     1  UNL1        0.0510
     10  C          7.2580   -0.4700   -1.5170 C.2     1  UNL1        0.1660
     11  C          7.6350   -1.5480   -0.7470 C.2     1  UNL1        0.1650
     12  O          7.7760   -0.6550   -2.7810 O.2     1  UNL1       -0.4540
     13  O          8.3840   -2.3810   -1.5640 O.2     1  UNL1       -0.4540
     14  C          8.4220   -1.8980   -2.8850 C.3     1  UNL1        0.4680
@<TRIPOS>BOND
     1    14    12    1
     2    14    13    1
     3    12    10    1
     4    13    11    1
     5    10     8    1
     6    10    11    2
     7     8     6    2
     8    11     9    1
     9     1     5    1
    10     1     2    1
    11     6     5    1
    12     6     7    1
    13     3     2    1
    14     9     7    2
    15     2     4    2
