MODEL 1
REMARK VINA RESULT:      -7.9      0.000      0.000
REMARK SMILES CC(=O)CCc1ccc2c(c1)OCO2
REMARK SMILES IDX 4 1 2 2 1 3 3 4 5 5 6 6 7 7 11 8 8 9 10 10 9 11 12 12 14 13
REMARK SMILES IDX 13 14
REMARK H PARENT
REMARK Flexibility Score: inf
ROOT
ATOM      1  C   UNL     1       5.508   2.899   0.194  1.00  0.00     0.080 C 
ENDROOT
BRANCH   1   2
ATOM      2  C   UNL     1       6.286   3.852   1.034  1.00  0.00     0.130 C 
ATOM      3  C   UNL     1       7.292   4.775   0.441  1.00  0.00     0.087 C 
ATOM      4  O   UNL     1       6.119   3.903   2.242  1.00  0.00    -0.300 OA
ENDBRANCH   1   2
BRANCH   1   5
ATOM      5  C   UNL     1       5.265   1.594   0.924  1.00  0.00     0.043 C 
BRANCH   5   6
ATOM      6  C   UNL     1       6.082   0.498   0.373  1.00  0.00    -0.044 A 
ATOM      7  C   UNL     1       6.464  -0.597   1.155  1.00  0.00     0.008 A 
ATOM      8  C   UNL     1       6.483   0.542  -0.943  1.00  0.00     0.054 A 
ATOM      9  C   UNL     1       7.231  -1.596   0.583  1.00  0.00     0.051 A 
ATOM     10  C   UNL     1       7.258  -0.470  -1.517  1.00  0.00     0.166 A 
ATOM     11  C   UNL     1       7.635  -1.548  -0.747  1.00  0.00     0.165 A 
ATOM     12  O   UNL     1       7.776  -0.655  -2.781  1.00  0.00    -0.454 OA
ATOM     13  O   UNL     1       8.384  -2.381  -1.564  1.00  0.00    -0.454 OA
ATOM     14  C   UNL     1       8.422  -1.898  -2.885  1.00  0.00     0.468 C 
ENDBRANCH   5   6
ENDBRANCH   1   5
TORSDOF 3
ENDMDL
MODEL 2
REMARK VINA RESULT:      -7.8      0.972      1.962
REMARK SMILES CC(=O)CCc1ccc2c(c1)OCO2
REMARK SMILES IDX 4 1 2 2 1 3 3 4 5 5 6 6 7 7 11 8 8 9 10 10 9 11 12 12 14 13
REMARK SMILES IDX 13 14
REMARK H PARENT
REMARK Flexibility Score: inf
ROOT
ATOM      1  C   UNL     1       5.474   2.856   0.233  1.00  0.00     0.080 C 
ENDROOT
BRANCH   1   2
ATOM      2  C   UNL     1       6.297   3.832   1.001  1.00  0.00     0.130 C 
ATOM      3  C   UNL     1       7.225   4.775   0.322  1.00  0.00     0.087 C 
ATOM      4  O   UNL     1       6.232   3.885   2.218  1.00  0.00    -0.300 OA
ENDBRANCH   1   2
BRANCH   1   5
ATOM      5  C   UNL     1       5.338   1.544   0.979  1.00  0.00     0.043 C 
BRANCH   5   6
ATOM      6  C   UNL     1       6.114   0.467   0.338  1.00  0.00    -0.044 A 
ATOM      7  C   UNL     1       6.387   0.479  -1.035  1.00  0.00     0.008 A 
ATOM      8  C   UNL     1       6.587  -0.578   1.097  1.00  0.00     0.054 A 
ATOM      9  C   UNL     1       7.121  -0.558  -1.581  1.00  0.00     0.051 A 
ATOM     10  C   UNL     1       7.330  -1.624   0.540  1.00  0.00     0.166 A 
ATOM     11  C   UNL     1       7.598  -1.614  -0.810  1.00  0.00     0.165 A 
ATOM     12  O   UNL     1       7.902  -2.758   1.074  1.00  0.00    -0.454 OA
ATOM     13  O   UNL     1       8.339  -2.754  -1.080  1.00  0.00    -0.454 OA
ATOM     14  C   UNL     1       8.632  -3.461   0.101  1.00  0.00     0.468 C 
ENDBRANCH   5   6
ENDBRANCH   1   5
TORSDOF 3
ENDMDL
MODEL 3
REMARK VINA RESULT:      -7.7      1.896      2.622
REMARK SMILES CC(=O)CCc1ccc2c(c1)OCO2
REMARK SMILES IDX 4 1 2 2 1 3 3 4 5 5 6 6 7 7 11 8 8 9 10 10 9 11 12 12 14 13
REMARK SMILES IDX 13 14
REMARK H PARENT
REMARK Flexibility Score: inf
ROOT
ATOM      1  C   UNL     1       5.516   1.931   1.260  1.00  0.00     0.080 C 
ENDROOT
BRANCH   1   2
ATOM      2  C   UNL     1       5.090   0.711   2.002  1.00  0.00     0.130 C 
ATOM      3  C   UNL     1       5.999  -0.452   2.179  1.00  0.00     0.087 C 
ATOM      4  O   UNL     1       3.973   0.632   2.488  1.00  0.00    -0.300 OA
ENDBRANCH   1   2
BRANCH   1   5
ATOM      5  C   UNL     1       5.390   1.736  -0.238  1.00  0.00     0.043 C 
BRANCH   5   6
ATOM      6  C   UNL     1       6.557   1.031  -0.798  1.00  0.00    -0.044 A 
ATOM      7  C   UNL     1       7.864   1.461  -0.543  1.00  0.00     0.008 A 
ATOM      8  C   UNL     1       6.368  -0.079  -1.589  1.00  0.00     0.054 A 
ATOM      9  C   UNL     1       8.921   0.760  -1.095  1.00  0.00     0.051 A 
ATOM     10  C   UNL     1       7.440  -0.785  -2.144  1.00  0.00     0.166 A 
ATOM     11  C   UNL     1       8.727  -0.362  -1.895  1.00  0.00     0.165 A 
ATOM     12  O   UNL     1       7.513  -1.900  -2.951  1.00  0.00    -0.454 OA
ATOM     13  O   UNL     1       9.572  -1.236  -2.560  1.00  0.00    -0.454 OA
ATOM     14  C   UNL     1       8.848  -2.279  -3.168  1.00  0.00     0.468 C 
ENDBRANCH   5   6
ENDBRANCH   1   5
TORSDOF 3
ENDMDL
MODEL 4
REMARK VINA RESULT:      -7.5      1.980      3.026
REMARK SMILES CC(=O)CCc1ccc2c(c1)OCO2
REMARK SMILES IDX 4 1 2 2 1 3 3 4 5 5 6 6 7 7 11 8 8 9 10 10 9 11 12 12 14 13
REMARK SMILES IDX 13 14
REMARK H PARENT
REMARK Flexibility Score: inf
ROOT
ATOM      1  C   UNL     1       5.799   1.341  -0.320  1.00  0.00     0.080 C 
ENDROOT
BRANCH   1   2
ATOM      2  C   UNL     1       5.159   1.301   1.024  1.00  0.00     0.130 C 
ATOM      3  C   UNL     1       5.366   0.159   1.954  1.00  0.00     0.087 C 
ATOM      4  O   UNL     1       4.440   2.212   1.403  1.00  0.00    -0.300 OA
ENDBRANCH   1   2
BRANCH   1   5
ATOM      5  C   UNL     1       7.284   1.046  -0.232  1.00  0.00     0.043 C 
BRANCH   5   6
ATOM      6  C   UNL     1       7.622  -0.247  -0.853  1.00  0.00    -0.044 A 
ATOM      7  C   UNL     1       7.625  -0.414  -2.242  1.00  0.00     0.008 A 
ATOM      8  C   UNL     1       7.946  -1.322  -0.057  1.00  0.00     0.054 A 
ATOM      9  C   UNL     1       7.951  -1.651  -2.769  1.00  0.00     0.051 A 
ATOM     10  C   UNL     1       8.276  -2.570  -0.594  1.00  0.00     0.166 A 
ATOM     11  C   UNL     1       8.278  -2.736  -1.961  1.00  0.00     0.165 A 
ATOM     12  O   UNL     1       8.628  -3.775  -0.024  1.00  0.00    -0.454 OA
ATOM     13  O   UNL     1       8.636  -4.052  -2.205  1.00  0.00    -0.454 OA
ATOM     14  C   UNL     1       8.956  -4.722  -1.008  1.00  0.00     0.468 C 
ENDBRANCH   5   6
ENDBRANCH   1   5
TORSDOF 3
ENDMDL
MODEL 5
REMARK VINA RESULT:      -7.5      1.818      2.828
REMARK SMILES CC(=O)CCc1ccc2c(c1)OCO2
REMARK SMILES IDX 4 1 2 2 1 3 3 4 5 5 6 6 7 7 11 8 8 9 10 10 9 11 12 12 14 13
REMARK SMILES IDX 13 14
REMARK H PARENT
REMARK Flexibility Score: inf
ROOT
ATOM      1  C   UNL     1       6.062   0.725   1.046  1.00  0.00     0.080 C 
ENDROOT
BRANCH   1   2
ATOM      2  C   UNL     1       4.967   1.729   0.949  1.00  0.00     0.130 C 
ATOM      3  C   UNL     1       4.880   2.683  -0.189  1.00  0.00     0.087 C 
ATOM      4  O   UNL     1       4.103   1.799   1.809  1.00  0.00    -0.300 OA
ENDBRANCH   1   2
BRANCH   1   5
ATOM      5  C   UNL     1       7.129   0.971  -0.003  1.00  0.00     0.043 C 
BRANCH   5   6
ATOM      6  C   UNL     1       7.532  -0.277  -0.675  1.00  0.00    -0.044 A 
ATOM      7  C   UNL     1       7.598  -0.371  -2.070  1.00  0.00     0.008 A 
ATOM      8  C   UNL     1       7.857  -1.383   0.078  1.00  0.00     0.054 A 
ATOM      9  C   UNL     1       7.984  -1.568  -2.645  1.00  0.00     0.051 A 
ATOM     10  C   UNL     1       8.248  -2.591  -0.509  1.00  0.00     0.166 A 
ATOM     11  C   UNL     1       8.311  -2.684  -1.881  1.00  0.00     0.165 A 
ATOM     12  O   UNL     1       8.614  -3.813   0.013  1.00  0.00    -0.454 OA
ATOM     13  O   UNL     1       8.721  -3.975  -2.177  1.00  0.00    -0.454 OA
ATOM     14  C   UNL     1       9.011  -4.697  -1.004  1.00  0.00     0.468 C 
ENDBRANCH   5   6
ENDBRANCH   1   5
TORSDOF 3
ENDMDL
