@<TRIPOS>MOLECULE
/home/cewinharhar/GITHUB/reincatalyze/data/processed/docking_pred/2023-May-22-1902_sub9_nm5_bs15_s42_ex16_mel10_mts1000_k50_ec02_g099_lra9e-4_lrc1e-3/a9d08a951453574d65a810177cdd831b7fbb923c_ligand_9.pdbqt
 14 15 0 0 0
SMALL
GASTEIGER

@<TRIPOS>ATOM
      1  C          5.7380    1.3310   -0.3410 C.3     1  UNL1        0.0800
      2  C          5.1740    1.3140    1.0370 C.2     1  UNL1        0.1300
      3  C          5.3840    0.1610    1.9530 C.3     1  UNL1        0.0870
      4  O          4.5170    2.2530    1.4570 O.2     1  UNL1       -0.3000
      5  C          7.2380    1.1140   -0.3250 C.3     1  UNL1        0.0430
      6  C          7.6090   -0.1860   -0.9110 C.2     1  UNL1       -0.0440
      7  C          7.6770   -0.3730   -2.2970 C.2     1  UNL1        0.0080
      8  C          7.8990   -1.2480   -0.0860 C.2     1  UNL1        0.0540
      9  C          8.0310   -1.6160   -2.7890 C.2     1  UNL1        0.0510
     10  C          8.2580   -2.5030   -0.5890 C.2     1  UNL1        0.1660
     11  C          8.3240   -2.6880   -1.9520 C.2     1  UNL1        0.1650
     12  O          8.5870   -3.6980    0.0140 O.2     1  UNL1       -0.4540
     13  O          8.6980   -4.0060   -2.1600 O.2     1  UNL1       -0.4540
     14  C          8.9630   -4.6570   -0.9400 C.3     1  UNL1        0.4680
@<TRIPOS>BOND
     1     9     7    1
     2     9    11    2
     3     7     6    2
     4    13    11    1
     5    13    14    1
     6    11    10    1
     7    14    12    1
     8     6     5    1
     9     6     8    1
    10    10     8    2
    11    10    12    1
    12     1     5    1
    13     1     2    1
    14     2     4    2
    15     2     3    1
