@<TRIPOS>MOLECULE
/home/cewinharhar/GITHUB/reincatalyze/data/processed/docking_pred/2023-May-22-1902_sub9_nm5_bs15_s42_ex16_mel10_mts1000_k50_ec02_g099_lra9e-4_lrc1e-3/a9d08a951453574d65a810177cdd831b7fbb923c_ligand_9.pdbqt
 14 15 0 0 0
SMALL
GASTEIGER

@<TRIPOS>ATOM
      1  C          5.4450    2.8660    0.2940 C.3     1  UNL1        0.0800
      2  C          6.3140    3.8150    1.0440 C.2     1  UNL1        0.1300
      3  C          7.2090    4.7750    0.3440 C.3     1  UNL1        0.0870
      4  O          6.3180    3.8320    2.2650 O.2     1  UNL1       -0.3000
      5  C          5.3050    1.5480    1.0300 C.3     1  UNL1        0.0430
      6  C          6.1010    0.4820    0.3960 C.2     1  UNL1       -0.0440
      7  C          6.4260    0.5200   -0.9650 C.2     1  UNL1        0.0080
      8  C          6.5420   -0.5810    1.1510 C.2     1  UNL1        0.0540
      9  C          7.1760   -0.5090   -1.5050 C.2     1  UNL1        0.0510
     10  C          7.3000   -1.6180    0.6010 C.2     1  UNL1        0.1660
     11  C          7.6190   -1.5820   -0.7380 C.2     1  UNL1        0.1650
     12  O          7.8480   -2.7670    1.1330 O.2     1  UNL1       -0.4540
     13  O          8.3650   -2.7200   -1.0040 O.2     1  UNL1       -0.4540
     14  C          8.6110   -3.4520    0.1730 C.3     1  UNL1        0.4680
@<TRIPOS>BOND
     1     9     7    1
     2     9    11    2
     3    13    11    1
     4    13    14    1
     5     7     6    2
     6    11    10    1
     7    14    12    1
     8     1     5    1
     9     1     2    1
    10     3     2    1
    11     6     5    1
    12     6     8    1
    13    10    12    1
    14    10     8    2
    15     2     4    2
