@<TRIPOS>MOLECULE
/home/cewinharhar/GITHUB/reincatalyze/data/processed/docking_pred/2023-May-22-1902_sub9_nm5_bs15_s42_ex16_mel10_mts1000_k50_ec02_g099_lra9e-4_lrc1e-3/a9d08a951453574d65a810177cdd831b7fbb923c_ligand_9.pdbqt
 14 15 0 0 0
SMALL
GASTEIGER

@<TRIPOS>ATOM
      1  C          5.4340    2.8710    0.2400 C.3     1  UNL1        0.0800
      2  C          6.2920    3.8050    1.0210 C.2     1  UNL1        0.1300
      3  C          7.2020    4.7740    0.3540 C.3     1  UNL1        0.0870
      4  O          6.2720    3.8010    2.2420 O.2     1  UNL1       -0.3000
      5  C          5.6880    1.4300    0.6330 C.3     1  UNL1        0.0430
      6  C          6.7410    0.8150   -0.1950 C.2     1  UNL1       -0.0440
      7  C          8.0140    1.3860   -0.3060 C.2     1  UNL1        0.0080
      8  C          6.4770   -0.3510   -0.8780 C.2     1  UNL1        0.0540
      9  C          8.9620    0.7630   -1.0980 C.2     1  UNL1        0.0510
     10  C          7.4390   -0.9770   -1.6770 C.2     1  UNL1        0.1660
     11  C          8.6920   -0.4150   -1.7870 C.2     1  UNL1        0.1650
     12  O          7.4230   -2.1220   -2.4440 O.2     1  UNL1       -0.4540
     13  O          9.4260   -1.2360   -2.6280 O.2     1  UNL1       -0.4540
     14  C          8.6900   -2.3780   -2.9950 C.3     1  UNL1        0.4680
@<TRIPOS>BOND
     1    14    13    1
     2    14    12    1
     3    13    11    1
     4    12    10    1
     5    11    10    2
     6    11     9    1
     7    10     8    1
     8     9     7    2
     9     8     6    2
    10     7     6    1
    11     6     5    1
    12     1     5    1
    13     1     2    1
    14     3     2    1
    15     2     4    2
