@<TRIPOS>MOLECULE
/home/cewinharhar/GITHUB/reincatalyze/data/processed/docking_pred/2023-May-22-1902_sub9_nm5_bs15_s42_ex16_mel10_mts1000_k50_ec02_g099_lra9e-4_lrc1e-3/ab317eb7565d030be4138c7249420e244018cf00_ligand_9.pdbqt
 14 15 0 0 0
SMALL
GASTEIGER

@<TRIPOS>ATOM
      1  C          5.5430    1.8970    1.2840 C.3     1  UNL1        0.0800
      2  C          5.0950    0.6790    2.0140 C.2     1  UNL1        0.1300
      3  C          5.9800   -0.5050    2.1760 C.3     1  UNL1        0.0870
      4  O          3.9780    0.6170    2.5040 O.2     1  UNL1       -0.3000
      5  C          5.4100    1.7200   -0.2160 C.3     1  UNL1        0.0430
      6  C          6.5730    1.0210   -0.7890 C.2     1  UNL1       -0.0440
      7  C          7.8810    1.4630   -0.5590 C.2     1  UNL1        0.0080
      8  C          6.3810   -0.0960   -1.5700 C.2     1  UNL1        0.0540
      9  C          8.9340    0.7650   -1.1230 C.2     1  UNL1        0.0510
     10  C          7.4490   -0.7980   -2.1370 C.2     1  UNL1        0.1660
     11  C          8.7360   -0.3630   -1.9120 C.2     1  UNL1        0.1650
     12  O          7.5170   -1.9180   -2.9380 O.2     1  UNL1       -0.4540
     13  O          9.5770   -1.2360   -2.5850 O.2     1  UNL1       -0.4540
     14  C          8.8520   -2.2890   -3.1740 C.3     1  UNL1        0.4680
@<TRIPOS>BOND
     1    14    12    1
     2    14    13    1
     3    12    10    1
     4    13    11    1
     5    10    11    2
     6    10     8    1
     7    11     9    1
     8     8     6    2
     9     9     7    2
    10     6     7    1
    11     6     5    1
    12     5     1    1
    13     1     2    1
    14     2     3    1
    15     2     4    2
