@<TRIPOS>MOLECULE
/home/cewinharhar/GITHUB/reincatalyze/data/processed/docking_pred/2023-May-22-1902_sub9_nm5_bs15_s42_ex16_mel10_mts1000_k50_ec02_g099_lra9e-4_lrc1e-3/ab317eb7565d030be4138c7249420e244018cf00_ligand_9.pdbqt
 14 15 0 0 0
SMALL
GASTEIGER

@<TRIPOS>ATOM
      1  C          5.7120    2.6560    0.7510 C.3     1  UNL1        0.0800
      2  C          6.3870    3.8760    1.2760 C.2     1  UNL1        0.1300
      3  C          7.1900    4.7640    0.3940 C.3     1  UNL1        0.0870
      4  O          6.2990    4.1830    2.4540 O.2     1  UNL1       -0.3000
      5  C          6.3200    1.3960    1.3340 C.3     1  UNL1        0.0430
      6  C          6.7060    0.4380    0.2830 C.2     1  UNL1       -0.0440
      7  C          6.4330    0.6830   -1.0680 C.2     1  UNL1        0.0080
      8  C          7.3520   -0.7280    0.6260 C.2     1  UNL1        0.0540
      9  C          6.8190   -0.2520   -2.0110 C.2     1  UNL1        0.0510
     10  C          7.7410   -1.6700   -0.3310 C.2     1  UNL1        0.1660
     11  C          7.4720   -1.4300   -1.6600 C.2     1  UNL1        0.1650
     12  O          8.3850   -2.8860   -0.2450 O.2     1  UNL1       -0.4540
     13  O          7.9630   -2.5150   -2.3700 O.2     1  UNL1       -0.4540
     14  C          8.6300   -3.4180   -1.5220 C.3     1  UNL1        0.4680
@<TRIPOS>BOND
     1    13    11    1
     2    13    14    1
     3     9    11    2
     4     9     7    1
     5    11    10    1
     6    14    12    1
     7     7     6    2
     8    10    12    1
     9    10     8    2
    10     6     8    1
    11     6     5    1
    12     3     2    1
    13     1     2    1
    14     1     5    1
    15     2     4    2
