MODEL 1
REMARK VINA RESULT:      -7.8      0.000      0.000
REMARK SMILES CC(=O)CCc1ccc2c(c1)OCO2
REMARK SMILES IDX 4 1 2 2 1 3 3 4 5 5 6 6 7 7 11 8 8 9 10 10 9 11 12 12 14 13
REMARK SMILES IDX 13 14
REMARK H PARENT
REMARK Flexibility Score: inf
ROOT
ATOM      1  C   UNL     1       5.406   2.967   0.163  1.00  0.00     0.080 C 
ENDROOT
BRANCH   1   2
ATOM      2  C   UNL     1       6.297   3.823   0.994  1.00  0.00     0.130 C 
ATOM      3  C   UNL     1       7.261   4.775   0.380  1.00  0.00     0.087 C 
ATOM      4  O   UNL     1       6.260   3.767   2.213  1.00  0.00    -0.300 OA
ENDBRANCH   1   2
BRANCH   1   5
ATOM      5  C   UNL     1       5.129   1.639   0.840  1.00  0.00     0.043 C 
BRANCH   5   6
ATOM      6  C   UNL     1       5.975   0.562   0.299  1.00  0.00    -0.044 A 
ATOM      7  C   UNL     1       6.376  -0.523   1.087  1.00  0.00     0.008 A 
ATOM      8  C   UNL     1       6.386   0.611  -1.014  1.00  0.00     0.054 A 
ATOM      9  C   UNL     1       7.170  -1.505   0.524  1.00  0.00     0.051 A 
ATOM     10  C   UNL     1       7.188  -0.385  -1.579  1.00  0.00     0.166 A 
ATOM     11  C   UNL     1       7.584  -1.452  -0.803  1.00  0.00     0.165 A 
ATOM     12  O   UNL     1       7.721  -0.561  -2.838  1.00  0.00    -0.454 OA
ATOM     13  O   UNL     1       8.358  -2.269  -1.611  1.00  0.00    -0.454 OA
ATOM     14  C   UNL     1       8.396  -1.789  -2.933  1.00  0.00     0.468 C 
ENDBRANCH   5   6
ENDBRANCH   1   5
TORSDOF 3
ENDMDL
MODEL 2
REMARK VINA RESULT:      -7.5      1.890      2.627
REMARK SMILES CC(=O)CCc1ccc2c(c1)OCO2
REMARK SMILES IDX 4 1 2 2 1 3 3 4 5 5 6 6 7 7 11 8 8 9 10 10 9 11 12 12 14 13
REMARK SMILES IDX 13 14
REMARK H PARENT
REMARK Flexibility Score: inf
ROOT
ATOM      1  C   UNL     1       5.543   1.897   1.284  1.00  0.00     0.080 C 
ENDROOT
BRANCH   1   2
ATOM      2  C   UNL     1       5.095   0.679   2.014  1.00  0.00     0.130 C 
ATOM      3  C   UNL     1       5.980  -0.505   2.176  1.00  0.00     0.087 C 
ATOM      4  O   UNL     1       3.978   0.617   2.504  1.00  0.00    -0.300 OA
ENDBRANCH   1   2
BRANCH   1   5
ATOM      5  C   UNL     1       5.410   1.720  -0.216  1.00  0.00     0.043 C 
BRANCH   5   6
ATOM      6  C   UNL     1       6.573   1.021  -0.789  1.00  0.00    -0.044 A 
ATOM      7  C   UNL     1       7.881   1.463  -0.559  1.00  0.00     0.008 A 
ATOM      8  C   UNL     1       6.381  -0.096  -1.570  1.00  0.00     0.054 A 
ATOM      9  C   UNL     1       8.934   0.765  -1.123  1.00  0.00     0.051 A 
ATOM     10  C   UNL     1       7.449  -0.798  -2.137  1.00  0.00     0.166 A 
ATOM     11  C   UNL     1       8.736  -0.363  -1.912  1.00  0.00     0.165 A 
ATOM     12  O   UNL     1       7.517  -1.918  -2.938  1.00  0.00    -0.454 OA
ATOM     13  O   UNL     1       9.577  -1.236  -2.585  1.00  0.00    -0.454 OA
ATOM     14  C   UNL     1       8.852  -2.289  -3.174  1.00  0.00     0.468 C 
ENDBRANCH   5   6
ENDBRANCH   1   5
TORSDOF 3
ENDMDL
MODEL 3
REMARK VINA RESULT:      -7.5      1.113      2.106
REMARK SMILES CC(=O)CCc1ccc2c(c1)OCO2
REMARK SMILES IDX 4 1 2 2 1 3 3 4 5 5 6 6 7 7 11 8 8 9 10 10 9 11 12 12 14 13
REMARK SMILES IDX 13 14
REMARK H PARENT
REMARK Flexibility Score: inf
ROOT
ATOM      1  C   UNL     1       5.296   3.082   0.184  1.00  0.00     0.080 C 
ENDROOT
BRANCH   1   2
ATOM      2  C   UNL     1       6.317   3.792   1.003  1.00  0.00     0.130 C 
ATOM      3  C   UNL     1       7.256   4.775   0.400  1.00  0.00     0.087 C 
ATOM      4  O   UNL     1       6.412   3.585   2.202  1.00  0.00    -0.300 OA
ENDBRANCH   1   2
BRANCH   1   5
ATOM      5  C   UNL     1       4.918   1.752   0.805  1.00  0.00     0.043 C 
BRANCH   5   6
ATOM      6  C   UNL     1       5.796   0.663   0.341  1.00  0.00    -0.044 A 
ATOM      7  C   UNL     1       6.247   0.599  -0.983  1.00  0.00     0.008 A 
ATOM      8  C   UNL     1       6.190  -0.318   1.222  1.00  0.00     0.054 A 
ATOM      9  C   UNL     1       7.069  -0.446  -1.362  1.00  0.00     0.051 A 
ATOM     10  C   UNL     1       7.023  -1.372   0.834  1.00  0.00     0.166 A 
ATOM     11  C   UNL     1       7.466  -1.437  -0.469  1.00  0.00     0.165 A 
ATOM     12  O   UNL     1       7.547  -2.454   1.510  1.00  0.00    -0.454 OA
ATOM     13  O   UNL     1       8.261  -2.568  -0.566  1.00  0.00    -0.454 OA
ATOM     14  C   UNL     1       8.413  -3.192   0.687  1.00  0.00     0.468 C 
ENDBRANCH   5   6
ENDBRANCH   1   5
TORSDOF 3
ENDMDL
MODEL 4
REMARK VINA RESULT:      -7.4      1.150      1.530
REMARK SMILES CC(=O)CCc1ccc2c(c1)OCO2
REMARK SMILES IDX 4 1 2 2 1 3 3 4 5 5 6 6 7 7 11 8 8 9 10 10 9 11 12 12 14 13
REMARK SMILES IDX 13 14
REMARK H PARENT
REMARK Flexibility Score: inf
ROOT
ATOM      1  C   UNL     1       5.480   2.877   0.308  1.00  0.00     0.080 C 
ENDROOT
BRANCH   1   2
ATOM      2  C   UNL     1       6.316   3.826   1.095  1.00  0.00     0.130 C 
ATOM      3  C   UNL     1       7.252   4.775   0.435  1.00  0.00     0.087 C 
ATOM      4  O   UNL     1       6.255   3.852   2.314  1.00  0.00    -0.300 OA
ENDBRANCH   1   2
BRANCH   1   5
ATOM      5  C   UNL     1       5.755   1.441   0.707  1.00  0.00     0.043 C 
BRANCH   5   6
ATOM      6  C   UNL     1       6.773   0.818  -0.158  1.00  0.00    -0.044 A 
ATOM      7  C   UNL     1       8.020   1.418  -0.371  1.00  0.00     0.008 A 
ATOM      8  C   UNL     1       6.503  -0.382  -0.775  1.00  0.00     0.054 A 
ATOM      9  C   UNL     1       8.937   0.787  -1.192  1.00  0.00     0.051 A 
ATOM     10  C   UNL     1       7.434  -1.016  -1.604  1.00  0.00     0.166 A 
ATOM     11  C   UNL     1       8.660  -0.426  -1.815  1.00  0.00     0.165 A 
ATOM     12  O   UNL     1       7.405  -2.194  -2.320  1.00  0.00    -0.454 OA
ATOM     13  O   UNL     1       9.367  -1.264  -2.664  1.00  0.00    -0.454 OA
ATOM     14  C   UNL     1       8.643  -2.440  -2.937  1.00  0.00     0.468 C 
ENDBRANCH   5   6
ENDBRANCH   1   5
TORSDOF 3
ENDMDL
MODEL 5
REMARK VINA RESULT:      -7.3      0.961      1.795
REMARK SMILES CC(=O)CCc1ccc2c(c1)OCO2
REMARK SMILES IDX 4 1 2 2 1 3 3 4 5 5 6 6 7 7 11 8 8 9 10 10 9 11 12 12 14 13
REMARK SMILES IDX 13 14
REMARK H PARENT
REMARK Flexibility Score: inf
ROOT
ATOM      1  C   UNL     1       5.712   2.656   0.751  1.00  0.00     0.080 C 
ENDROOT
BRANCH   1   2
ATOM      2  C   UNL     1       6.387   3.876   1.276  1.00  0.00     0.130 C 
ATOM      3  C   UNL     1       7.190   4.764   0.394  1.00  0.00     0.087 C 
ATOM      4  O   UNL     1       6.299   4.183   2.454  1.00  0.00    -0.300 OA
ENDBRANCH   1   2
BRANCH   1   5
ATOM      5  C   UNL     1       6.320   1.396   1.334  1.00  0.00     0.043 C 
BRANCH   5   6
ATOM      6  C   UNL     1       6.706   0.438   0.283  1.00  0.00    -0.044 A 
ATOM      7  C   UNL     1       6.433   0.683  -1.068  1.00  0.00     0.008 A 
ATOM      8  C   UNL     1       7.352  -0.728   0.626  1.00  0.00     0.054 A 
ATOM      9  C   UNL     1       6.819  -0.252  -2.011  1.00  0.00     0.051 A 
ATOM     10  C   UNL     1       7.741  -1.670  -0.331  1.00  0.00     0.166 A 
ATOM     11  C   UNL     1       7.472  -1.430  -1.660  1.00  0.00     0.165 A 
ATOM     12  O   UNL     1       8.385  -2.886  -0.245  1.00  0.00    -0.454 OA
ATOM     13  O   UNL     1       7.963  -2.515  -2.370  1.00  0.00    -0.454 OA
ATOM     14  C   UNL     1       8.630  -3.418  -1.522  1.00  0.00     0.468 C 
ENDBRANCH   5   6
ENDBRANCH   1   5
TORSDOF 3
ENDMDL
