@<TRIPOS>MOLECULE
/home/cewinharhar/GITHUB/reincatalyze/data/processed/docking_pred/2023-May-22-1902_sub9_nm5_bs15_s42_ex16_mel10_mts1000_k50_ec02_g099_lra9e-4_lrc1e-3/ab317eb7565d030be4138c7249420e244018cf00_ligand_9.pdbqt
 14 15 0 0 0
SMALL
GASTEIGER

@<TRIPOS>ATOM
      1  C          5.4800    2.8770    0.3080 C.3     1  UNL1        0.0800
      2  C          6.3160    3.8260    1.0950 C.2     1  UNL1        0.1300
      3  C          7.2520    4.7750    0.4350 C.3     1  UNL1        0.0870
      4  O          6.2550    3.8520    2.3140 O.2     1  UNL1       -0.3000
      5  C          5.7550    1.4410    0.7070 C.3     1  UNL1        0.0430
      6  C          6.7730    0.8180   -0.1580 C.2     1  UNL1       -0.0440
      7  C          8.0200    1.4180   -0.3710 C.2     1  UNL1        0.0080
      8  C          6.5030   -0.3820   -0.7750 C.2     1  UNL1        0.0540
      9  C          8.9370    0.7870   -1.1920 C.2     1  UNL1        0.0510
     10  C          7.4340   -1.0160   -1.6040 C.2     1  UNL1        0.1660
     11  C          8.6600   -0.4260   -1.8150 C.2     1  UNL1        0.1650
     12  O          7.4050   -2.1940   -2.3200 O.2     1  UNL1       -0.4540
     13  O          9.3670   -1.2640   -2.6640 O.2     1  UNL1       -0.4540
     14  C          8.6430   -2.4400   -2.9370 C.3     1  UNL1        0.4680
@<TRIPOS>BOND
     1    14    13    1
     2    14    12    1
     3    13    11    1
     4    12    10    1
     5    11    10    2
     6    11     9    1
     7    10     8    1
     8     9     7    2
     9     8     6    2
    10     7     6    1
    11     6     5    1
    12     1     5    1
    13     1     2    1
    14     3     2    1
    15     2     4    2
