@<TRIPOS>MOLECULE
/home/cewinharhar/GITHUB/reincatalyze/data/processed/docking_pred/2023-May-22-1902_sub9_nm5_bs15_s42_ex16_mel10_mts1000_k50_ec02_g099_lra9e-4_lrc1e-3/ab317eb7565d030be4138c7249420e244018cf00_ligand_9.pdbqt
 14 15 0 0 0
SMALL
GASTEIGER

@<TRIPOS>ATOM
      1  C          5.4060    2.9670    0.1630 C.3     1  UNL1        0.0800
      2  C          6.2970    3.8230    0.9940 C.2     1  UNL1        0.1300
      3  C          7.2610    4.7750    0.3800 C.3     1  UNL1        0.0870
      4  O          6.2600    3.7670    2.2130 O.2     1  UNL1       -0.3000
      5  C          5.1290    1.6390    0.8400 C.3     1  UNL1        0.0430
      6  C          5.9750    0.5620    0.2990 C.2     1  UNL1       -0.0440
      7  C          6.3760   -0.5230    1.0870 C.2     1  UNL1        0.0080
      8  C          6.3860    0.6110   -1.0140 C.2     1  UNL1        0.0540
      9  C          7.1700   -1.5050    0.5240 C.2     1  UNL1        0.0510
     10  C          7.1880   -0.3850   -1.5790 C.2     1  UNL1        0.1660
     11  C          7.5840   -1.4520   -0.8030 C.2     1  UNL1        0.1650
     12  O          7.7210   -0.5610   -2.8380 O.2     1  UNL1       -0.4540
     13  O          8.3580   -2.2690   -1.6110 O.2     1  UNL1       -0.4540
     14  C          8.3960   -1.7890   -2.9330 C.3     1  UNL1        0.4680
@<TRIPOS>BOND
     1    14    12    1
     2    14    13    1
     3    12    10    1
     4    13    11    1
     5    10     8    1
     6    10    11    2
     7     8     6    2
     8    11     9    1
     9     1     5    1
    10     1     2    1
    11     6     5    1
    12     6     7    1
    13     3     2    1
    14     9     7    2
    15     2     4    2
