@<TRIPOS>MOLECULE
/home/cewinharhar/GITHUB/reincatalyze/data/processed/docking_pred/2023-May-22-1902_sub9_nm5_bs15_s42_ex16_mel10_mts1000_k50_ec02_g099_lra9e-4_lrc1e-3/ab955c776f37f5544fae82246801d9a2769dfb79_ligand_9.pdbqt
 14 15 0 0 0
SMALL
GASTEIGER

@<TRIPOS>ATOM
      1  C          5.4470    2.9020    0.0580 C.3     1  UNL1        0.0800
      2  C          6.2720    3.8020    0.9110 C.2     1  UNL1        0.1300
      3  C          7.2340    4.7720    0.3210 C.3     1  UNL1        0.0870
      4  O          6.1820    3.7690    2.1270 O.2     1  UNL1       -0.3000
      5  C          5.1590    1.5900    0.7590 C.3     1  UNL1        0.0430
      6  C          5.9950    0.4950    0.2350 C.2     1  UNL1       -0.0440
      7  C          6.2980   -0.6310    1.0090 C.2     1  UNL1        0.0080
      8  C          6.4910    0.5700   -1.0470 C.2     1  UNL1        0.0540
      9  C          7.0860   -1.6280    0.4630 C.2     1  UNL1        0.0510
     10  C          7.2870   -0.4410   -1.5940 C.2     1  UNL1        0.1660
     11  C          7.5870   -1.5490   -0.8330 C.2     1  UNL1        0.1650
     12  O          7.8920   -0.5990   -2.8230 O.2     1  UNL1       -0.4540
     13  O          8.3780   -2.3720   -1.6180 O.2     1  UNL1       -0.4540
     14  C          8.5210   -1.8510   -2.9180 C.3     1  UNL1        0.4680
@<TRIPOS>BOND
     1    14    12    1
     2    14    13    1
     3    12    10    1
     4    13    11    1
     5    10     8    1
     6    10    11    2
     7     8     6    2
     8    11     9    1
     9     1     5    1
    10     1     2    1
    11     6     5    1
    12     6     7    1
    13     3     2    1
    14     9     7    2
    15     2     4    2
