@<TRIPOS>MOLECULE
/home/cewinharhar/GITHUB/reincatalyze/data/processed/docking_pred/2023-May-22-1902_sub9_nm5_bs15_s42_ex16_mel10_mts1000_k50_ec02_g099_lra9e-4_lrc1e-3/ab955c776f37f5544fae82246801d9a2769dfb79_ligand_9.pdbqt
 14 15 0 0 0
SMALL
GASTEIGER

@<TRIPOS>ATOM
      1  C          5.5340    1.9190    1.2760 C.3     1  UNL1        0.0800
      2  C          5.0810    0.7040    2.0080 C.2     1  UNL1        0.1300
      3  C          5.9630   -0.4810    2.1760 C.3     1  UNL1        0.0870
      4  O          3.9620    0.6460    2.4930 O.2     1  UNL1       -0.3000
      5  C          5.4070    1.7380   -0.2240 C.3     1  UNL1        0.0430
      6  C          6.5710    1.0360   -0.7910 C.2     1  UNL1       -0.0440
      7  C          7.8790    1.4720   -0.5500 C.2     1  UNL1        0.0080
      8  C          6.3800   -0.0790   -1.5760 C.2     1  UNL1        0.0540
      9  C          8.9340    0.7720   -1.1080 C.2     1  UNL1        0.0510
     10  C          7.4500   -0.7830   -2.1370 C.2     1  UNL1        0.1660
     11  C          8.7370   -0.3540   -1.9010 C.2     1  UNL1        0.1650
     12  O          7.5200   -1.9020   -2.9400 O.2     1  UNL1       -0.4540
     13  O          9.5790   -1.2280   -2.5710 O.2     1  UNL1       -0.4540
     14  C          8.8540   -2.2760   -3.1670 C.3     1  UNL1        0.4680
@<TRIPOS>BOND
     1    14    12    1
     2    14    13    1
     3    12    10    1
     4    13    11    1
     5    10    11    2
     6    10     8    1
     7    11     9    1
     8     8     6    2
     9     9     7    2
    10     6     7    1
    11     6     5    1
    12     5     1    1
    13     1     2    1
    14     2     3    1
    15     2     4    2
