MODEL 1
REMARK VINA RESULT:      -7.9      0.000      0.000
REMARK SMILES CC(=O)CCc1ccc2c(c1)OCO2
REMARK SMILES IDX 4 1 2 2 1 3 3 4 5 5 6 6 7 7 11 8 8 9 10 10 9 11 12 12 14 13
REMARK SMILES IDX 13 14
REMARK H PARENT
REMARK Flexibility Score: inf
ROOT
ATOM      1  C   UNL     1       5.447   2.902   0.058  1.00  0.00     0.080 C 
ENDROOT
BRANCH   1   2
ATOM      2  C   UNL     1       6.272   3.802   0.911  1.00  0.00     0.130 C 
ATOM      3  C   UNL     1       7.234   4.772   0.321  1.00  0.00     0.087 C 
ATOM      4  O   UNL     1       6.182   3.769   2.127  1.00  0.00    -0.300 OA
ENDBRANCH   1   2
BRANCH   1   5
ATOM      5  C   UNL     1       5.159   1.590   0.759  1.00  0.00     0.043 C 
BRANCH   5   6
ATOM      6  C   UNL     1       5.995   0.495   0.235  1.00  0.00    -0.044 A 
ATOM      7  C   UNL     1       6.298  -0.631   1.009  1.00  0.00     0.008 A 
ATOM      8  C   UNL     1       6.491   0.570  -1.047  1.00  0.00     0.054 A 
ATOM      9  C   UNL     1       7.086  -1.628   0.463  1.00  0.00     0.051 A 
ATOM     10  C   UNL     1       7.287  -0.441  -1.594  1.00  0.00     0.166 A 
ATOM     11  C   UNL     1       7.587  -1.549  -0.833  1.00  0.00     0.165 A 
ATOM     12  O   UNL     1       7.892  -0.599  -2.823  1.00  0.00    -0.454 OA
ATOM     13  O   UNL     1       8.378  -2.372  -1.618  1.00  0.00    -0.454 OA
ATOM     14  C   UNL     1       8.521  -1.851  -2.918  1.00  0.00     0.468 C 
ENDBRANCH   5   6
ENDBRANCH   1   5
TORSDOF 3
ENDMDL
MODEL 2
REMARK VINA RESULT:      -7.8      1.033      2.023
REMARK SMILES CC(=O)CCc1ccc2c(c1)OCO2
REMARK SMILES IDX 4 1 2 2 1 3 3 4 5 5 6 6 7 7 11 8 8 9 10 10 9 11 12 12 14 13
REMARK SMILES IDX 13 14
REMARK H PARENT
REMARK Flexibility Score: inf
ROOT
ATOM      1  C   UNL     1       5.378   2.984   0.174  1.00  0.00     0.080 C 
ENDROOT
BRANCH   1   2
ATOM      2  C   UNL     1       6.239   3.871   1.005  1.00  0.00     0.130 C 
ATOM      3  C   UNL     1       7.249   4.775   0.393  1.00  0.00     0.087 C 
ATOM      4  O   UNL     1       6.140   3.880   2.221  1.00  0.00    -0.300 OA
ENDBRANCH   1   2
BRANCH   1   5
ATOM      5  C   UNL     1       5.130   1.656   0.861  1.00  0.00     0.043 C 
BRANCH   5   6
ATOM      6  C   UNL     1       5.987   0.589   0.313  1.00  0.00    -0.044 A 
ATOM      7  C   UNL     1       6.453   0.628  -1.006  1.00  0.00     0.008 A 
ATOM      8  C   UNL     1       6.346  -0.475   1.110  1.00  0.00     0.054 A 
ATOM      9  C   UNL     1       7.255  -0.401  -1.465  1.00  0.00     0.051 A 
ATOM     10  C   UNL     1       7.157  -1.512   0.642  1.00  0.00     0.166 A 
ATOM     11  C   UNL     1       7.615  -1.475  -0.657  1.00  0.00     0.165 A 
ATOM     12  O   UNL     1       7.645  -2.661   1.227  1.00  0.00    -0.454 OA
ATOM     13  O   UNL     1       8.384  -2.613  -0.843  1.00  0.00    -0.454 OA
ATOM     14  C   UNL     1       8.505  -3.347   0.353  1.00  0.00     0.468 C 
ENDBRANCH   5   6
ENDBRANCH   1   5
TORSDOF 3
ENDMDL
MODEL 3
REMARK VINA RESULT:      -7.7      1.881      2.629
REMARK SMILES CC(=O)CCc1ccc2c(c1)OCO2
REMARK SMILES IDX 4 1 2 2 1 3 3 4 5 5 6 6 7 7 11 8 8 9 10 10 9 11 12 12 14 13
REMARK SMILES IDX 13 14
REMARK H PARENT
REMARK Flexibility Score: inf
ROOT
ATOM      1  C   UNL     1       5.534   1.919   1.276  1.00  0.00     0.080 C 
ENDROOT
BRANCH   1   2
ATOM      2  C   UNL     1       5.081   0.704   2.008  1.00  0.00     0.130 C 
ATOM      3  C   UNL     1       5.963  -0.481   2.176  1.00  0.00     0.087 C 
ATOM      4  O   UNL     1       3.962   0.646   2.493  1.00  0.00    -0.300 OA
ENDBRANCH   1   2
BRANCH   1   5
ATOM      5  C   UNL     1       5.407   1.738  -0.224  1.00  0.00     0.043 C 
BRANCH   5   6
ATOM      6  C   UNL     1       6.571   1.036  -0.791  1.00  0.00    -0.044 A 
ATOM      7  C   UNL     1       7.879   1.472  -0.550  1.00  0.00     0.008 A 
ATOM      8  C   UNL     1       6.380  -0.079  -1.576  1.00  0.00     0.054 A 
ATOM      9  C   UNL     1       8.934   0.772  -1.108  1.00  0.00     0.051 A 
ATOM     10  C   UNL     1       7.450  -0.783  -2.137  1.00  0.00     0.166 A 
ATOM     11  C   UNL     1       8.737  -0.354  -1.901  1.00  0.00     0.165 A 
ATOM     12  O   UNL     1       7.520  -1.902  -2.940  1.00  0.00    -0.454 OA
ATOM     13  O   UNL     1       9.579  -1.228  -2.571  1.00  0.00    -0.454 OA
ATOM     14  C   UNL     1       8.854  -2.276  -3.167  1.00  0.00     0.468 C 
ENDBRANCH   5   6
ENDBRANCH   1   5
TORSDOF 3
ENDMDL
MODEL 4
REMARK VINA RESULT:      -7.5      1.946      3.015
REMARK SMILES CC(=O)CCc1ccc2c(c1)OCO2
REMARK SMILES IDX 4 1 2 2 1 3 3 4 5 5 6 6 7 7 11 8 8 9 10 10 9 11 12 12 14 13
REMARK SMILES IDX 13 14
REMARK H PARENT
REMARK Flexibility Score: inf
ROOT
ATOM      1  C   UNL     1       5.705   1.284  -0.352  1.00  0.00     0.080 C 
ENDROOT
BRANCH   1   2
ATOM      2  C   UNL     1       5.159   1.292   1.033  1.00  0.00     0.130 C 
ATOM      3  C   UNL     1       5.316   0.124   1.941  1.00  0.00     0.087 C 
ATOM      4  O   UNL     1       4.561   2.264   1.466  1.00  0.00    -0.300 OA
ENDBRANCH   1   2
BRANCH   1   5
ATOM      5  C   UNL     1       7.210   1.098  -0.349  1.00  0.00     0.043 C 
BRANCH   5   6
ATOM      6  C   UNL     1       7.601  -0.197  -0.935  1.00  0.00    -0.044 A 
ATOM      7  C   UNL     1       7.709  -0.373  -2.319  1.00  0.00     0.008 A 
ATOM      8  C   UNL     1       7.872  -1.265  -0.109  1.00  0.00     0.054 A 
ATOM      9  C   UNL     1       8.081  -1.611  -2.811  1.00  0.00     0.051 A 
ATOM     10  C   UNL     1       8.248  -2.514  -0.612  1.00  0.00     0.166 A 
ATOM     11  C   UNL     1       8.353  -2.688  -1.974  1.00  0.00     0.165 A 
ATOM     12  O   UNL     1       8.564  -3.713  -0.008  1.00  0.00    -0.454 OA
ATOM     13  O   UNL     1       8.737  -4.004  -2.181  1.00  0.00    -0.454 OA
ATOM     14  C   UNL     1       8.970  -4.664  -0.959  1.00  0.00     0.468 C 
ENDBRANCH   5   6
ENDBRANCH   1   5
TORSDOF 3
ENDMDL
MODEL 5
REMARK VINA RESULT:      -7.5      1.607      2.707
REMARK SMILES CC(=O)CCc1ccc2c(c1)OCO2
REMARK SMILES IDX 4 1 2 2 1 3 3 4 5 5 6 6 7 7 11 8 8 9 10 10 9 11 12 12 14 13
REMARK SMILES IDX 13 14
REMARK H PARENT
REMARK Flexibility Score: inf
ROOT
ATOM      1  C   UNL     1       5.756   1.242  -0.408  1.00  0.00     0.080 C 
ENDROOT
BRANCH   1   2
ATOM      2  C   UNL     1       5.366   2.301   0.564  1.00  0.00     0.130 C 
ATOM      3  C   UNL     1       6.142   3.563   0.696  1.00  0.00     0.087 C 
ATOM      4  O   UNL     1       4.391   2.162   1.285  1.00  0.00    -0.300 OA
ENDBRANCH   1   2
BRANCH   1   5
ATOM      5  C   UNL     1       7.263   1.123  -0.518  1.00  0.00     0.043 C 
BRANCH   5   6
ATOM      6  C   UNL     1       7.671  -0.194  -1.039  1.00  0.00    -0.044 A 
ATOM      7  C   UNL     1       7.848  -0.417  -2.409  1.00  0.00     0.008 A 
ATOM      8  C   UNL     1       7.889  -1.235  -0.166  1.00  0.00     0.054 A 
ATOM      9  C   UNL     1       8.232  -1.674  -2.840  1.00  0.00     0.051 A 
ATOM     10  C   UNL     1       8.278  -2.504  -0.606  1.00  0.00     0.166 A 
ATOM     11  C   UNL     1       8.451  -2.725  -1.954  1.00  0.00     0.165 A 
ATOM     12  O   UNL     1       8.551  -3.684   0.052  1.00  0.00    -0.454 OA
ATOM     13  O   UNL     1       8.832  -4.050  -2.097  1.00  0.00    -0.454 OA
ATOM     14  C   UNL     1       8.995  -4.670  -0.844  1.00  0.00     0.468 C 
ENDBRANCH   5   6
ENDBRANCH   1   5
TORSDOF 3
ENDMDL
