MODEL 1
REMARK VINA RESULT:      -7.9      0.000      0.000
REMARK SMILES CC(=O)CCc1ccc2c(c1)OCO2
REMARK SMILES IDX 4 1 2 2 1 3 3 4 5 5 6 6 7 7 11 8 8 9 10 10 9 11 12 12 14 13
REMARK SMILES IDX 13 14
REMARK H PARENT
REMARK Flexibility Score: inf
ROOT
ATOM      1  C   UNL     1       5.446   2.910   0.118  1.00  0.00     0.080 C 
ENDROOT
BRANCH   1   2
ATOM      2  C   UNL     1       6.282   3.822   0.947  1.00  0.00     0.130 C 
ATOM      3  C   UNL     1       7.243   4.775   0.331  1.00  0.00     0.087 C 
ATOM      4  O   UNL     1       6.201   3.812   2.165  1.00  0.00    -0.300 OA
ENDBRANCH   1   2
BRANCH   1   5
ATOM      5  C   UNL     1       5.189   1.597   0.831  1.00  0.00     0.043 C 
BRANCH   5   6
ATOM      6  C   UNL     1       6.023   0.509   0.290  1.00  0.00    -0.044 A 
ATOM      7  C   UNL     1       6.357  -0.611   1.060  1.00  0.00     0.008 A 
ATOM      8  C   UNL     1       6.488   0.584  -1.003  1.00  0.00     0.054 A 
ATOM      9  C   UNL     1       7.142  -1.602   0.498  1.00  0.00     0.051 A 
ATOM     10  C   UNL     1       7.280  -0.420  -1.567  1.00  0.00     0.166 A 
ATOM     11  C   UNL     1       7.610  -1.522  -0.810  1.00  0.00     0.165 A 
ATOM     12  O   UNL     1       7.858  -0.576  -2.809  1.00  0.00    -0.454 OA
ATOM     13  O   UNL     1       8.390  -2.340  -1.611  1.00  0.00    -0.454 OA
ATOM     14  C   UNL     1       8.497  -1.822  -2.916  1.00  0.00     0.468 C 
ENDBRANCH   5   6
ENDBRANCH   1   5
TORSDOF 3
ENDMDL
MODEL 2
REMARK VINA RESULT:      -7.8      0.994      1.977
REMARK SMILES CC(=O)CCc1ccc2c(c1)OCO2
REMARK SMILES IDX 4 1 2 2 1 3 3 4 5 5 6 6 7 7 11 8 8 9 10 10 9 11 12 12 14 13
REMARK SMILES IDX 13 14
REMARK H PARENT
REMARK Flexibility Score: inf
ROOT
ATOM      1  C   UNL     1       5.482   2.894   0.210  1.00  0.00     0.080 C 
ENDROOT
BRANCH   1   2
ATOM      2  C   UNL     1       6.290   3.872   0.991  1.00  0.00     0.130 C 
ATOM      3  C   UNL     1       7.272   4.775   0.334  1.00  0.00     0.087 C 
ATOM      4  O   UNL     1       6.168   3.959   2.203  1.00  0.00    -0.300 OA
ENDBRANCH   1   2
BRANCH   1   5
ATOM      5  C   UNL     1       5.334   1.582   0.956  1.00  0.00     0.043 C 
BRANCH   5   6
ATOM      6  C   UNL     1       6.112   0.503   0.322  1.00  0.00    -0.044 A 
ATOM      7  C   UNL     1       6.401   0.514  -1.047  1.00  0.00     0.008 A 
ATOM      8  C   UNL     1       6.572  -0.545   1.086  1.00  0.00     0.054 A 
ATOM      9  C   UNL     1       7.136  -0.526  -1.587  1.00  0.00     0.051 A 
ATOM     10  C   UNL     1       7.315  -1.594   0.536  1.00  0.00     0.166 A 
ATOM     11  C   UNL     1       7.599  -1.584  -0.811  1.00  0.00     0.165 A 
ATOM     12  O   UNL     1       7.876  -2.732   1.076  1.00  0.00    -0.454 OA
ATOM     13  O   UNL     1       8.337  -2.728  -1.073  1.00  0.00    -0.454 OA
ATOM     14  C   UNL     1       8.613  -3.437   0.111  1.00  0.00     0.468 C 
ENDBRANCH   5   6
ENDBRANCH   1   5
TORSDOF 3
ENDMDL
MODEL 3
REMARK VINA RESULT:      -7.7      1.891      2.625
REMARK SMILES CC(=O)CCc1ccc2c(c1)OCO2
REMARK SMILES IDX 4 1 2 2 1 3 3 4 5 5 6 6 7 7 11 8 8 9 10 10 9 11 12 12 14 13
REMARK SMILES IDX 13 14
REMARK H PARENT
REMARK Flexibility Score: inf
ROOT
ATOM      1  C   UNL     1       5.513   1.919   1.260  1.00  0.00     0.080 C 
ENDROOT
BRANCH   1   2
ATOM      2  C   UNL     1       5.079   0.701   1.999  1.00  0.00     0.130 C 
ATOM      3  C   UNL     1       5.976  -0.474   2.163  1.00  0.00     0.087 C 
ATOM      4  O   UNL     1       3.966   0.633   2.494  1.00  0.00    -0.300 OA
ENDBRANCH   1   2
BRANCH   1   5
ATOM      5  C   UNL     1       5.391   1.727  -0.239  1.00  0.00     0.043 C 
BRANCH   5   6
ATOM      6  C   UNL     1       6.560   1.023  -0.797  1.00  0.00    -0.044 A 
ATOM      7  C   UNL     1       7.866   1.454  -0.539  1.00  0.00     0.008 A 
ATOM      8  C   UNL     1       6.374  -0.087  -1.589  1.00  0.00     0.054 A 
ATOM      9  C   UNL     1       8.925   0.753  -1.089  1.00  0.00     0.051 A 
ATOM     10  C   UNL     1       7.447  -0.792  -2.142  1.00  0.00     0.166 A 
ATOM     11  C   UNL     1       8.733  -0.368  -1.890  1.00  0.00     0.165 A 
ATOM     12  O   UNL     1       7.523  -1.906  -2.950  1.00  0.00    -0.454 OA
ATOM     13  O   UNL     1       9.580  -1.241  -2.554  1.00  0.00    -0.454 OA
ATOM     14  C   UNL     1       8.859  -2.284  -3.164  1.00  0.00     0.468 C 
ENDBRANCH   5   6
ENDBRANCH   1   5
TORSDOF 3
ENDMDL
MODEL 4
REMARK VINA RESULT:      -7.5      1.963      3.028
REMARK SMILES CC(=O)CCc1ccc2c(c1)OCO2
REMARK SMILES IDX 4 1 2 2 1 3 3 4 5 5 6 6 7 7 11 8 8 9 10 10 9 11 12 12 14 13
REMARK SMILES IDX 13 14
REMARK H PARENT
REMARK Flexibility Score: inf
ROOT
ATOM      1  C   UNL     1       5.753   1.322  -0.339  1.00  0.00     0.080 C 
ENDROOT
BRANCH   1   2
ATOM      2  C   UNL     1       5.167   1.307   1.031  1.00  0.00     0.130 C 
ATOM      3  C   UNL     1       5.362   0.154   1.950  1.00  0.00     0.087 C 
ATOM      4  O   UNL     1       4.506   2.247   1.440  1.00  0.00    -0.300 OA
ENDBRANCH   1   2
BRANCH   1   5
ATOM      5  C   UNL     1       7.251   1.097  -0.300  1.00  0.00     0.043 C 
BRANCH   5   6
ATOM      6  C   UNL     1       7.625  -0.201  -0.891  1.00  0.00    -0.044 A 
ATOM      7  C   UNL     1       7.699  -0.381  -2.277  1.00  0.00     0.008 A 
ATOM      8  C   UNL     1       7.912  -1.267  -0.069  1.00  0.00     0.054 A 
ATOM      9  C   UNL     1       8.056  -1.621  -2.774  1.00  0.00     0.051 A 
ATOM     10  C   UNL     1       8.273  -2.518  -0.577  1.00  0.00     0.166 A 
ATOM     11  C   UNL     1       8.345  -2.697  -1.941  1.00  0.00     0.165 A 
ATOM     12  O   UNL     1       8.600  -3.717   0.022  1.00  0.00    -0.454 OA
ATOM     13  O   UNL     1       8.720  -4.014  -2.153  1.00  0.00    -0.454 OA
ATOM     14  C   UNL     1       8.980  -4.671  -0.936  1.00  0.00     0.468 C 
ENDBRANCH   5   6
ENDBRANCH   1   5
TORSDOF 3
ENDMDL
MODEL 5
REMARK VINA RESULT:      -7.5      1.838      2.818
REMARK SMILES CC(=O)CCc1ccc2c(c1)OCO2
REMARK SMILES IDX 4 1 2 2 1 3 3 4 5 5 6 6 7 7 11 8 8 9 10 10 9 11 12 12 14 13
REMARK SMILES IDX 13 14
REMARK H PARENT
REMARK Flexibility Score: inf
ROOT
ATOM      1  C   UNL     1       6.344   0.926   1.065  1.00  0.00     0.080 C 
ENDROOT
BRANCH   1   2
ATOM      2  C   UNL     1       5.110   1.751   0.937  1.00  0.00     0.130 C 
ATOM      3  C   UNL     1       4.871   2.621  -0.245  1.00  0.00     0.087 C 
ATOM      4  O   UNL     1       4.254   1.736   1.807  1.00  0.00    -0.300 OA
ENDBRANCH   1   2
BRANCH   1   5
ATOM      5  C   UNL     1       7.256   1.112  -0.132  1.00  0.00     0.043 C 
BRANCH   5   6
ATOM      6  C   UNL     1       7.588  -0.174  -0.770  1.00  0.00    -0.044 A 
ATOM      7  C   UNL     1       7.566  -0.330  -2.161  1.00  0.00     0.008 A 
ATOM      8  C   UNL     1       7.933  -1.255   0.010  1.00  0.00     0.054 A 
ATOM      9  C   UNL     1       7.888  -1.560  -2.704  1.00  0.00     0.051 A 
ATOM     10  C   UNL     1       8.258  -2.496  -0.544  1.00  0.00     0.166 A 
ATOM     11  C   UNL     1       8.235  -2.650  -1.912  1.00  0.00     0.165 A 
ATOM     12  O   UNL     1       8.627  -3.704   0.009  1.00  0.00    -0.454 OA
ATOM     13  O   UNL     1       8.595  -3.963  -2.174  1.00  0.00    -0.454 OA
ATOM     14  C   UNL     1       8.940  -4.641  -0.989  1.00  0.00     0.468 C 
ENDBRANCH   5   6
ENDBRANCH   1   5
TORSDOF 3
ENDMDL
