@<TRIPOS>MOLECULE
/home/cewinharhar/GITHUB/reincatalyze/data/processed/docking_pred/2023-May-22-1902_sub9_nm5_bs15_s42_ex16_mel10_mts1000_k50_ec02_g099_lra9e-4_lrc1e-3/ae45d061dddc84380b8ad6f9293329cc64ca5b9d_ligand_9.pdbqt
 14 15 0 0 0
SMALL
GASTEIGER

@<TRIPOS>ATOM
      1  C          5.3760    3.0230    0.0720 C.3     1  UNL1        0.0800
      2  C          6.3610    3.7060    0.9570 C.2     1  UNL1        0.1300
      3  C          7.2620    4.7730    0.4450 C.3     1  UNL1        0.0870
      4  O          6.4590    3.4050    2.1360 O.2     1  UNL1       -0.3000
      5  C          4.9960    1.6610    0.6190 C.3     1  UNL1        0.0430
      6  C          5.8850    0.6010    0.1110 C.2     1  UNL1       -0.0440
      7  C          6.3530    0.6070   -1.2080 C.2     1  UNL1        0.0080
      8  C          6.2730   -0.4220    0.9460 C.2     1  UNL1        0.0540
      9  C          7.1860   -0.4140   -1.6290 C.2     1  UNL1        0.0510
     10  C          7.1160   -1.4510    0.5160 C.2     1  UNL1        0.1660
     11  C          7.5760   -1.4470   -0.7820 C.2     1  UNL1        0.1650
     12  O          7.6370   -2.5630    1.1430 O.2     1  UNL1       -0.4540
     13  O          8.3780   -2.5680   -0.9260 O.2     1  UNL1       -0.4540
     14  C          8.5180   -3.2540    0.2950 C.3     1  UNL1        0.4680
@<TRIPOS>BOND
     1     9     7    1
     2     9    11    2
     3     7     6    2
     4    13    11    1
     5    13    14    1
     6    11    10    1
     7     1     5    1
     8     1     2    1
     9     6     5    1
    10     6     8    1
    11    14    12    1
    12     3     2    1
    13    10     8    2
    14    10    12    1
    15     2     4    2
