MODEL 1
REMARK VINA RESULT:      -7.7      0.000      0.000
REMARK SMILES CC(=O)CCc1ccc2c(c1)OCO2
REMARK SMILES IDX 4 1 2 2 1 3 3 4 5 5 6 6 7 7 11 8 8 9 10 10 9 11 12 12 14 13
REMARK SMILES IDX 13 14
REMARK H PARENT
REMARK Flexibility Score: inf
ROOT
ATOM      1  C   UNL     1       5.376   3.023   0.072  1.00  0.00     0.080 C 
ENDROOT
BRANCH   1   2
ATOM      2  C   UNL     1       6.361   3.706   0.957  1.00  0.00     0.130 C 
ATOM      3  C   UNL     1       7.262   4.773   0.445  1.00  0.00     0.087 C 
ATOM      4  O   UNL     1       6.459   3.405   2.136  1.00  0.00    -0.300 OA
ENDBRANCH   1   2
BRANCH   1   5
ATOM      5  C   UNL     1       4.996   1.661   0.619  1.00  0.00     0.043 C 
BRANCH   5   6
ATOM      6  C   UNL     1       5.885   0.601   0.111  1.00  0.00    -0.044 A 
ATOM      7  C   UNL     1       6.353   0.607  -1.208  1.00  0.00     0.008 A 
ATOM      8  C   UNL     1       6.273  -0.422   0.946  1.00  0.00     0.054 A 
ATOM      9  C   UNL     1       7.186  -0.414  -1.629  1.00  0.00     0.051 A 
ATOM     10  C   UNL     1       7.116  -1.451   0.516  1.00  0.00     0.166 A 
ATOM     11  C   UNL     1       7.576  -1.447  -0.782  1.00  0.00     0.165 A 
ATOM     12  O   UNL     1       7.637  -2.563   1.143  1.00  0.00    -0.454 OA
ATOM     13  O   UNL     1       8.378  -2.568  -0.926  1.00  0.00    -0.454 OA
ATOM     14  C   UNL     1       8.518  -3.254   0.295  1.00  0.00     0.468 C 
ENDBRANCH   5   6
ENDBRANCH   1   5
TORSDOF 3
ENDMDL
MODEL 2
REMARK VINA RESULT:      -7.7      1.019      1.992
REMARK SMILES CC(=O)CCc1ccc2c(c1)OCO2
REMARK SMILES IDX 4 1 2 2 1 3 3 4 5 5 6 6 7 7 11 8 8 9 10 10 9 11 12 12 14 13
REMARK SMILES IDX 13 14
REMARK H PARENT
REMARK Flexibility Score: inf
ROOT
ATOM      1  C   UNL     1       5.520   2.881   0.300  1.00  0.00     0.080 C 
ENDROOT
BRANCH   1   2
ATOM      2  C   UNL     1       6.327   3.875   1.062  1.00  0.00     0.130 C 
ATOM      3  C   UNL     1       7.299   4.775   0.386  1.00  0.00     0.087 C 
ATOM      4  O   UNL     1       6.212   3.979   2.272  1.00  0.00    -0.300 OA
ENDBRANCH   1   2
BRANCH   1   5
ATOM      5  C   UNL     1       5.356   1.591   1.079  1.00  0.00     0.043 C 
BRANCH   5   6
ATOM      6  C   UNL     1       6.133   0.490   0.482  1.00  0.00    -0.044 A 
ATOM      7  C   UNL     1       6.491  -0.641   1.225  1.00  0.00     0.008 A 
ATOM      8  C   UNL     1       6.518   0.563  -0.837  1.00  0.00     0.054 A 
ATOM      9  C   UNL     1       7.219  -1.644   0.611  1.00  0.00     0.051 A 
ATOM     10  C   UNL     1       7.253  -0.453  -1.453  1.00  0.00     0.166 A 
ATOM     11  C   UNL     1       7.608  -1.566  -0.723  1.00  0.00     0.165 A 
ATOM     12  O   UNL     1       7.749  -0.613  -2.730  1.00  0.00    -0.454 OA
ATOM     13  O   UNL     1       8.320  -2.395  -1.575  1.00  0.00    -0.454 OA
ATOM     14  C   UNL     1       8.355  -1.871  -2.882  1.00  0.00     0.468 C 
ENDBRANCH   5   6
ENDBRANCH   1   5
TORSDOF 3
ENDMDL
MODEL 3
REMARK VINA RESULT:      -7.6      2.374      2.982
REMARK SMILES CC(=O)CCc1ccc2c(c1)OCO2
REMARK SMILES IDX 4 1 2 2 1 3 3 4 5 5 6 6 7 7 11 8 8 9 10 10 9 11 12 12 14 13
REMARK SMILES IDX 13 14
REMARK H PARENT
REMARK Flexibility Score: inf
ROOT
ATOM      1  C   UNL     1       5.502   1.945   1.251  1.00  0.00     0.080 C 
ENDROOT
BRANCH   1   2
ATOM      2  C   UNL     1       5.081   0.728   1.999  1.00  0.00     0.130 C 
ATOM      3  C   UNL     1       5.989  -0.437   2.171  1.00  0.00     0.087 C 
ATOM      4  O   UNL     1       3.968   0.652   2.496  1.00  0.00    -0.300 OA
ENDBRANCH   1   2
BRANCH   1   5
ATOM      5  C   UNL     1       5.378   1.741  -0.246  1.00  0.00     0.043 C 
BRANCH   5   6
ATOM      6  C   UNL     1       6.549   1.039  -0.801  1.00  0.00    -0.044 A 
ATOM      7  C   UNL     1       7.854   1.471  -0.539  1.00  0.00     0.008 A 
ATOM      8  C   UNL     1       6.367  -0.071  -1.594  1.00  0.00     0.054 A 
ATOM      9  C   UNL     1       8.915   0.772  -1.087  1.00  0.00     0.051 A 
ATOM     10  C   UNL     1       7.442  -0.775  -2.144  1.00  0.00     0.166 A 
ATOM     11  C   UNL     1       8.727  -0.349  -1.889  1.00  0.00     0.165 A 
ATOM     12  O   UNL     1       7.521  -1.889  -2.952  1.00  0.00    -0.454 OA
ATOM     13  O   UNL     1       9.577  -1.221  -2.551  1.00  0.00    -0.454 OA
ATOM     14  C   UNL     1       8.858  -2.265  -3.163  1.00  0.00     0.468 C 
ENDBRANCH   5   6
ENDBRANCH   1   5
TORSDOF 3
ENDMDL
MODEL 4
REMARK VINA RESULT:      -7.5      1.791      2.453
REMARK SMILES CC(=O)CCc1ccc2c(c1)OCO2
REMARK SMILES IDX 4 1 2 2 1 3 3 4 5 5 6 6 7 7 11 8 8 9 10 10 9 11 12 12 14 13
REMARK SMILES IDX 13 14
REMARK H PARENT
REMARK Flexibility Score: inf
ROOT
ATOM      1  C   UNL     1       5.748   1.329  -0.371  1.00  0.00     0.080 C 
ENDROOT
BRANCH   1   2
ATOM      2  C   UNL     1       5.143   1.311   0.990  1.00  0.00     0.130 C 
ATOM      3  C   UNL     1       5.389   0.192   1.939  1.00  0.00     0.087 C 
ATOM      4  O   UNL     1       4.421   2.220   1.367  1.00  0.00    -0.300 OA
ENDBRANCH   1   2
BRANCH   1   5
ATOM      5  C   UNL     1       7.245   1.098  -0.310  1.00  0.00     0.043 C 
BRANCH   5   6
ATOM      6  C   UNL     1       7.622  -0.200  -0.899  1.00  0.00    -0.044 A 
ATOM      7  C   UNL     1       7.709  -0.378  -2.285  1.00  0.00     0.008 A 
ATOM      8  C   UNL     1       7.898  -1.268  -0.076  1.00  0.00     0.054 A 
ATOM      9  C   UNL     1       8.068  -1.618  -2.780  1.00  0.00     0.051 A 
ATOM     10  C   UNL     1       8.261  -2.520  -0.583  1.00  0.00     0.166 A 
ATOM     11  C   UNL     1       8.347  -2.696  -1.946  1.00  0.00     0.165 A 
ATOM     12  O   UNL     1       8.580  -3.720   0.017  1.00  0.00    -0.454 OA
ATOM     13  O   UNL     1       8.721  -4.014  -2.157  1.00  0.00    -0.454 OA
ATOM     14  C   UNL     1       8.967  -4.674  -0.938  1.00  0.00     0.468 C 
ENDBRANCH   5   6
ENDBRANCH   1   5
TORSDOF 3
ENDMDL
MODEL 5
REMARK VINA RESULT:      -7.4      1.668      2.177
REMARK SMILES CC(=O)CCc1ccc2c(c1)OCO2
REMARK SMILES IDX 4 1 2 2 1 3 3 4 5 5 6 6 7 7 11 8 8 9 10 10 9 11 12 12 14 13
REMARK SMILES IDX 13 14
REMARK H PARENT
REMARK Flexibility Score: inf
ROOT
ATOM      1  C   UNL     1       6.152   0.849   1.212  1.00  0.00     0.080 C 
ENDROOT
BRANCH   1   2
ATOM      2  C   UNL     1       4.989   1.756   0.997  1.00  0.00     0.130 C 
ATOM      3  C   UNL     1       4.896   2.636  -0.198  1.00  0.00     0.087 C 
ATOM      4  O   UNL     1       4.074   1.802   1.802  1.00  0.00    -0.300 OA
ENDBRANCH   1   2
BRANCH   1   5
ATOM      5  C   UNL     1       7.227   1.077   0.168  1.00  0.00     0.043 C 
BRANCH   5   6
ATOM      6  C   UNL     1       7.573  -0.169  -0.540  1.00  0.00    -0.044 A 
ATOM      7  C   UNL     1       7.571  -0.242  -1.938  1.00  0.00     0.008 A 
ATOM      8  C   UNL     1       7.911  -1.292   0.180  1.00  0.00     0.054 A 
ATOM      9  C   UNL     1       7.906  -1.437  -2.548  1.00  0.00     0.051 A 
ATOM     10  C   UNL     1       8.249  -2.498  -0.441  1.00  0.00     0.166 A 
ATOM     11  C   UNL     1       8.246  -2.571  -1.816  1.00  0.00     0.165 A 
ATOM     12  O   UNL     1       8.614  -3.735   0.045  1.00  0.00    -0.454 OA
ATOM     13  O   UNL     1       8.614  -3.865  -2.150  1.00  0.00    -0.454 OA
ATOM     14  C   UNL     1       8.945  -4.611  -1.002  1.00  0.00     0.468 C 
ENDBRANCH   5   6
ENDBRANCH   1   5
TORSDOF 3
ENDMDL
