@<TRIPOS>MOLECULE
/home/cewinharhar/GITHUB/reincatalyze/data/processed/docking_pred/2023-May-22-1902_sub9_nm5_bs15_s42_ex16_mel10_mts1000_k50_ec02_g099_lra9e-4_lrc1e-3/ae45d061dddc84380b8ad6f9293329cc64ca5b9d_ligand_9.pdbqt
 14 15 0 0 0
SMALL
GASTEIGER

@<TRIPOS>ATOM
      1  C          5.7480    1.3290   -0.3710 C.3     1  UNL1        0.0800
      2  C          5.1430    1.3110    0.9900 C.2     1  UNL1        0.1300
      3  C          5.3890    0.1920    1.9390 C.3     1  UNL1        0.0870
      4  O          4.4210    2.2200    1.3670 O.2     1  UNL1       -0.3000
      5  C          7.2450    1.0980   -0.3100 C.3     1  UNL1        0.0430
      6  C          7.6220   -0.2000   -0.8990 C.2     1  UNL1       -0.0440
      7  C          7.7090   -0.3780   -2.2850 C.2     1  UNL1        0.0080
      8  C          7.8980   -1.2680   -0.0760 C.2     1  UNL1        0.0540
      9  C          8.0680   -1.6180   -2.7800 C.2     1  UNL1        0.0510
     10  C          8.2610   -2.5200   -0.5830 C.2     1  UNL1        0.1660
     11  C          8.3470   -2.6960   -1.9460 C.2     1  UNL1        0.1650
     12  O          8.5800   -3.7200    0.0170 O.2     1  UNL1       -0.4540
     13  O          8.7210   -4.0140   -2.1570 O.2     1  UNL1       -0.4540
     14  C          8.9670   -4.6740   -0.9380 C.3     1  UNL1        0.4680
@<TRIPOS>BOND
     1     9     7    1
     2     9    11    2
     3     7     6    2
     4    13    11    1
     5    13    14    1
     6    11    10    1
     7    14    12    1
     8     6     5    1
     9     6     8    1
    10    10     8    2
    11    10    12    1
    12     1     5    1
    13     1     2    1
    14     2     4    2
    15     2     3    1
