@<TRIPOS>MOLECULE
/home/cewinharhar/GITHUB/reincatalyze/data/processed/docking_pred/2023-May-22-1902_sub9_nm5_bs15_s42_ex16_mel10_mts1000_k50_ec02_g099_lra9e-4_lrc1e-3/ae45d061dddc84380b8ad6f9293329cc64ca5b9d_ligand_9.pdbqt
 14 15 0 0 0
SMALL
GASTEIGER

@<TRIPOS>ATOM
      1  C          6.1520    0.8490    1.2120 C.3     1  UNL1        0.0800
      2  C          4.9890    1.7560    0.9970 C.2     1  UNL1        0.1300
      3  C          4.8960    2.6360   -0.1980 C.3     1  UNL1        0.0870
      4  O          4.0740    1.8020    1.8020 O.2     1  UNL1       -0.3000
      5  C          7.2270    1.0770    0.1680 C.3     1  UNL1        0.0430
      6  C          7.5730   -0.1690   -0.5400 C.2     1  UNL1       -0.0440
      7  C          7.5710   -0.2420   -1.9380 C.2     1  UNL1        0.0080
      8  C          7.9110   -1.2920    0.1800 C.2     1  UNL1        0.0540
      9  C          7.9060   -1.4370   -2.5480 C.2     1  UNL1        0.0510
     10  C          8.2490   -2.4980   -0.4410 C.2     1  UNL1        0.1660
     11  C          8.2460   -2.5710   -1.8160 C.2     1  UNL1        0.1650
     12  O          8.6140   -3.7350    0.0450 O.2     1  UNL1       -0.4540
     13  O          8.6140   -3.8650   -2.1500 O.2     1  UNL1       -0.4540
     14  C          8.9450   -4.6110   -1.0020 C.3     1  UNL1        0.4680
@<TRIPOS>BOND
     1     9     7    1
     2     9    11    2
     3    13    11    1
     4    13    14    1
     5     7     6    2
     6    11    10    1
     7    14    12    1
     8     6     5    1
     9     6     8    1
    10    10    12    1
    11    10     8    2
    12     3     2    1
    13     5     1    1
    14     2     1    1
    15     2     4    2
