@<TRIPOS>MOLECULE
/home/cewinharhar/GITHUB/reincatalyze/data/processed/docking_pred/2023-May-22-1902_sub9_nm5_bs15_s42_ex16_mel10_mts1000_k50_ec02_g099_lra9e-4_lrc1e-3/ae45d061dddc84380b8ad6f9293329cc64ca5b9d_ligand_9.pdbqt
 14 15 0 0 0
SMALL
GASTEIGER

@<TRIPOS>ATOM
      1  C          5.5020    1.9450    1.2510 C.3     1  UNL1        0.0800
      2  C          5.0810    0.7280    1.9990 C.2     1  UNL1        0.1300
      3  C          5.9890   -0.4370    2.1710 C.3     1  UNL1        0.0870
      4  O          3.9680    0.6520    2.4960 O.2     1  UNL1       -0.3000
      5  C          5.3780    1.7410   -0.2460 C.3     1  UNL1        0.0430
      6  C          6.5490    1.0390   -0.8010 C.2     1  UNL1       -0.0440
      7  C          7.8540    1.4710   -0.5390 C.2     1  UNL1        0.0080
      8  C          6.3670   -0.0710   -1.5940 C.2     1  UNL1        0.0540
      9  C          8.9150    0.7720   -1.0870 C.2     1  UNL1        0.0510
     10  C          7.4420   -0.7750   -2.1440 C.2     1  UNL1        0.1660
     11  C          8.7270   -0.3490   -1.8890 C.2     1  UNL1        0.1650
     12  O          7.5210   -1.8890   -2.9520 O.2     1  UNL1       -0.4540
     13  O          9.5770   -1.2210   -2.5510 O.2     1  UNL1       -0.4540
     14  C          8.8580   -2.2650   -3.1630 C.3     1  UNL1        0.4680
@<TRIPOS>BOND
     1    14    12    1
     2    14    13    1
     3    12    10    1
     4    13    11    1
     5    10    11    2
     6    10     8    1
     7    11     9    1
     8     8     6    2
     9     9     7    2
    10     6     7    1
    11     6     5    1
    12     5     1    1
    13     1     2    1
    14     2     3    1
    15     2     4    2
