@<TRIPOS>MOLECULE
/home/cewinharhar/GITHUB/reincatalyze/data/processed/docking_pred/2023-May-22-1902_sub9_nm5_bs15_s42_ex16_mel10_mts1000_k50_ec02_g099_lra9e-4_lrc1e-3/ae45d061dddc84380b8ad6f9293329cc64ca5b9d_ligand_9.pdbqt
 14 15 0 0 0
SMALL
GASTEIGER

@<TRIPOS>ATOM
      1  C          5.5200    2.8810    0.3000 C.3     1  UNL1        0.0800
      2  C          6.3270    3.8750    1.0620 C.2     1  UNL1        0.1300
      3  C          7.2990    4.7750    0.3860 C.3     1  UNL1        0.0870
      4  O          6.2120    3.9790    2.2720 O.2     1  UNL1       -0.3000
      5  C          5.3560    1.5910    1.0790 C.3     1  UNL1        0.0430
      6  C          6.1330    0.4900    0.4820 C.2     1  UNL1       -0.0440
      7  C          6.4910   -0.6410    1.2250 C.2     1  UNL1        0.0080
      8  C          6.5180    0.5630   -0.8370 C.2     1  UNL1        0.0540
      9  C          7.2190   -1.6440    0.6110 C.2     1  UNL1        0.0510
     10  C          7.2530   -0.4530   -1.4530 C.2     1  UNL1        0.1660
     11  C          7.6080   -1.5660   -0.7230 C.2     1  UNL1        0.1650
     12  O          7.7490   -0.6130   -2.7300 O.2     1  UNL1       -0.4540
     13  O          8.3200   -2.3950   -1.5750 O.2     1  UNL1       -0.4540
     14  C          8.3550   -1.8710   -2.8820 C.3     1  UNL1        0.4680
@<TRIPOS>BOND
     1    14    12    1
     2    14    13    1
     3    12    10    1
     4    13    11    1
     5    10     8    1
     6    10    11    2
     7     8     6    2
     8    11     9    1
     9     1     2    1
    10     1     5    1
    11     3     2    1
    12     6     5    1
    13     6     7    1
    14     9     7    2
    15     2     4    2
