@<TRIPOS>MOLECULE
/home/cewinharhar/GITHUB/reincatalyze/data/processed/docking_pred/2023-May-22-1902_sub9_nm5_bs15_s42_ex16_mel10_mts1000_k50_ec02_g099_lra9e-4_lrc1e-3/ae62664a3c9eef67376bdc077c2faa7ac5a69a78_ligand_9.pdbqt
 14 15 0 0 0
SMALL
GASTEIGER

@<TRIPOS>ATOM
      1  C          5.6670    3.1570    0.1930 C.3     1  UNL1        0.0800
      2  C          6.5140    3.7380    1.2710 C.2     1  UNL1        0.1300
      3  C          7.9680    3.4420    1.3680 C.3     1  UNL1        0.0870
      4  O          6.0340    4.4800    2.1140 O.2     1  UNL1       -0.3000
      5  C          5.1040    1.8100    0.6010 C.3     1  UNL1        0.0430
      6  C          5.9420    0.6980    0.1190 C.2     1  UNL1       -0.0440
      7  C          6.3650    0.6230   -1.2130 C.2     1  UNL1        0.0080
      8  C          6.3260   -0.2950    0.9910 C.2     1  UNL1        0.0540
      9  C          7.1520   -0.4440   -1.6080 C.2     1  UNL1        0.0510
     10  C          7.1220   -1.3710    0.5870 C.2     1  UNL1        0.1660
     11  C          7.5380   -1.4460   -0.7230 C.2     1  UNL1        0.1650
     12  O          7.6290   -2.4670    1.2530 O.2     1  UNL1       -0.4540
     13  O          8.3000   -2.5980   -0.8360 O.2     1  UNL1       -0.4540
     14  C          8.4590   -3.2270    0.4130 C.3     1  UNL1        0.4680
@<TRIPOS>BOND
     1     9     7    1
     2     9    11    2
     3     7     6    2
     4    13    11    1
     5    13    14    1
     6    11    10    1
     7     6     5    1
     8     6     8    1
     9     1     5    1
    10     1     2    1
    11    14    12    1
    12    10     8    2
    13    10    12    1
    14     2     3    1
    15     2     4    2
