@<TRIPOS>MOLECULE
/home/cewinharhar/GITHUB/reincatalyze/data/processed/docking_pred/2023-May-22-1902_sub9_nm5_bs15_s42_ex16_mel10_mts1000_k50_ec02_g099_lra9e-4_lrc1e-3/ae62664a3c9eef67376bdc077c2faa7ac5a69a78_ligand_9.pdbqt
 14 15 0 0 0
SMALL
GASTEIGER

@<TRIPOS>ATOM
      1  C          5.4370    1.4860    0.4930 C.3     1  UNL1        0.0800
      2  C          5.1150    0.5660    1.6190 C.2     1  UNL1        0.1300
      3  C          5.7990   -0.7450    1.7760 C.3     1  UNL1        0.0870
      4  O          4.2730    0.8650    2.4500 O.2     1  UNL1       -0.3000
      5  C          6.5120    2.4800    0.8840 C.3     1  UNL1        0.0430
      6  C          7.8570    1.8780    0.8380 C.2     1  UNL1       -0.0440
      7  C          8.3960    1.3800   -0.3540 C.2     1  UNL1        0.0080
      8  C          8.6090    1.7990    1.9880 C.2     1  UNL1        0.0540
      9  C          9.6630    0.8260   -0.3370 C.2     1  UNL1        0.0510
     10  C          9.8900    1.2390    2.0000 C.2     1  UNL1        0.1660
     11  C         10.4210    0.7480    0.8280 C.2     1  UNL1        0.1650
     12  O         10.8220    1.0470    2.9970 O.2     1  UNL1       -0.4540
     13  O         11.6820    0.2610    1.1330 O.2     1  UNL1       -0.4540
     14  C         12.0130    0.5120    2.4780 C.3     1  UNL1        0.4680
@<TRIPOS>BOND
     1     7     9    1
     2     7     6    2
     3     9    11    2
     4     1     5    1
     5     1     2    1
     6    11    13    1
     7    11    10    1
     8     6     5    1
     9     6     8    1
    10    13    14    1
    11     2     3    1
    12     2     4    2
    13     8    10    2
    14    10    12    1
    15    14    12    1
