MODEL 1
REMARK VINA RESULT:      -7.4      0.000      0.000
REMARK SMILES CC(=O)CCc1ccc2c(c1)OCO2
REMARK SMILES IDX 4 1 2 2 1 3 3 4 5 5 6 6 7 7 11 8 8 9 10 10 9 11 12 12 14 13
REMARK SMILES IDX 13 14
REMARK H PARENT
REMARK Flexibility Score: inf
ROOT
ATOM      1  C   UNL     1       5.769   3.236   0.196  1.00  0.00     0.080 C 
ENDROOT
BRANCH   1   2
ATOM      2  C   UNL     1       6.603   3.738   1.324  1.00  0.00     0.130 C 
ATOM      3  C   UNL     1       8.064   3.472   1.394  1.00  0.00     0.087 C 
ATOM      4  O   UNL     1       6.105   4.386   2.231  1.00  0.00    -0.300 OA
ENDBRANCH   1   2
BRANCH   1   5
ATOM      5  C   UNL     1       5.068   1.943   0.563  1.00  0.00     0.043 C 
BRANCH   5   6
ATOM      6  C   UNL     1       5.874   0.763   0.203  1.00  0.00    -0.044 A 
ATOM      7  C   UNL     1       6.173  -0.233   1.140  1.00  0.00     0.008 A 
ATOM      8  C   UNL     1       6.347   0.626  -1.082  1.00  0.00     0.054 A 
ATOM      9  C   UNL     1       6.933  -1.319   0.745  1.00  0.00     0.051 A 
ATOM     10  C   UNL     1       7.115  -0.474  -1.476  1.00  0.00     0.166 A 
ATOM     11  C   UNL     1       7.410  -1.455  -0.555  1.00  0.00     0.165 A 
ATOM     12  O   UNL     1       7.694  -0.835  -2.674  1.00  0.00    -0.454 OA
ATOM     13  O   UNL     1       8.172  -2.407  -1.214  1.00  0.00    -0.454 OA
ATOM     14  C   UNL     1       8.299  -2.099  -2.581  1.00  0.00     0.468 C 
ENDBRANCH   5   6
ENDBRANCH   1   5
TORSDOF 3
ENDMDL
MODEL 2
REMARK VINA RESULT:      -7.3      0.928      1.919
REMARK SMILES CC(=O)CCc1ccc2c(c1)OCO2
REMARK SMILES IDX 4 1 2 2 1 3 3 4 5 5 6 6 7 7 11 8 8 9 10 10 9 11 12 12 14 13
REMARK SMILES IDX 13 14
REMARK H PARENT
REMARK Flexibility Score: inf
ROOT
ATOM      1  C   UNL     1       5.667   3.157   0.193  1.00  0.00     0.080 C 
ENDROOT
BRANCH   1   2
ATOM      2  C   UNL     1       6.514   3.738   1.271  1.00  0.00     0.130 C 
ATOM      3  C   UNL     1       7.968   3.442   1.368  1.00  0.00     0.087 C 
ATOM      4  O   UNL     1       6.034   4.480   2.114  1.00  0.00    -0.300 OA
ENDBRANCH   1   2
BRANCH   1   5
ATOM      5  C   UNL     1       5.104   1.810   0.601  1.00  0.00     0.043 C 
BRANCH   5   6
ATOM      6  C   UNL     1       5.942   0.698   0.119  1.00  0.00    -0.044 A 
ATOM      7  C   UNL     1       6.365   0.623  -1.213  1.00  0.00     0.008 A 
ATOM      8  C   UNL     1       6.326  -0.295   0.991  1.00  0.00     0.054 A 
ATOM      9  C   UNL     1       7.152  -0.444  -1.608  1.00  0.00     0.051 A 
ATOM     10  C   UNL     1       7.122  -1.371   0.587  1.00  0.00     0.166 A 
ATOM     11  C   UNL     1       7.538  -1.446  -0.723  1.00  0.00     0.165 A 
ATOM     12  O   UNL     1       7.629  -2.467   1.253  1.00  0.00    -0.454 OA
ATOM     13  O   UNL     1       8.300  -2.598  -0.836  1.00  0.00    -0.454 OA
ATOM     14  C   UNL     1       8.459  -3.227   0.413  1.00  0.00     0.468 C 
ENDBRANCH   5   6
ENDBRANCH   1   5
TORSDOF 3
ENDMDL
MODEL 3
REMARK VINA RESULT:      -7.3      1.172      1.467
REMARK SMILES CC(=O)CCc1ccc2c(c1)OCO2
REMARK SMILES IDX 4 1 2 2 1 3 3 4 5 5 6 6 7 7 11 8 8 9 10 10 9 11 12 12 14 13
REMARK SMILES IDX 13 14
REMARK H PARENT
REMARK Flexibility Score: inf
ROOT
ATOM      1  C   UNL     1       6.000   3.275   0.074  1.00  0.00     0.080 C 
ENDROOT
BRANCH   1   2
ATOM      2  C   UNL     1       6.625   3.726   1.349  1.00  0.00     0.130 C 
ATOM      3  C   UNL     1       8.033   3.390   1.690  1.00  0.00     0.087 C 
ATOM      4  O   UNL     1       5.994   4.389   2.155  1.00  0.00    -0.300 OA
ENDBRANCH   1   2
BRANCH   1   5
ATOM      5  C   UNL     1       4.995   2.166   0.316  1.00  0.00     0.043 C 
BRANCH   5   6
ATOM      6  C   UNL     1       5.657   0.895   0.663  1.00  0.00    -0.044 A 
ATOM      7  C   UNL     1       5.437   0.267   1.894  1.00  0.00     0.008 A 
ATOM      8  C   UNL     1       6.511   0.302  -0.239  1.00  0.00     0.054 A 
ATOM      9  C   UNL     1       6.085  -0.925   2.165  1.00  0.00     0.051 A 
ATOM     10  C   UNL     1       7.163  -0.903   0.039  1.00  0.00     0.166 A 
ATOM     11  C   UNL     1       6.948  -1.521   1.251  1.00  0.00     0.165 A 
ATOM     12  O   UNL     1       8.045  -1.681  -0.680  1.00  0.00    -0.454 OA
ATOM     13  O   UNL     1       7.711  -2.679   1.251  1.00  0.00    -0.454 OA
ATOM     14  C   UNL     1       8.352  -2.865   0.011  1.00  0.00     0.468 C 
ENDBRANCH   5   6
ENDBRANCH   1   5
TORSDOF 3
ENDMDL
MODEL 4
REMARK VINA RESULT:      -7.1      1.485      5.286
REMARK SMILES CC(=O)CCc1ccc2c(c1)OCO2
REMARK SMILES IDX 4 1 2 2 1 3 3 4 5 5 6 6 7 7 11 8 8 9 10 10 9 11 12 12 14 13
REMARK SMILES IDX 13 14
REMARK H PARENT
REMARK Flexibility Score: inf
ROOT
ATOM      1  C   UNL     1       7.038  -1.384  -0.894  1.00  0.00     0.080 C 
ENDROOT
BRANCH   1   2
ATOM      2  C   UNL     1       7.596  -1.656   0.460  1.00  0.00     0.130 C 
ATOM      3  C   UNL     1       6.725  -1.733   1.663  1.00  0.00     0.087 C 
ATOM      4  O   UNL     1       8.794  -1.824   0.622  1.00  0.00    -0.300 OA
ENDBRANCH   1   2
BRANCH   1   5
ATOM      5  C   UNL     1       7.504  -0.042  -1.422  1.00  0.00     0.043 C 
BRANCH   5   6
ATOM      6  C   UNL     1       6.989   1.075  -0.609  1.00  0.00    -0.044 A 
ATOM      7  C   UNL     1       5.622   1.368  -0.549  1.00  0.00     0.008 A 
ATOM      8  C   UNL     1       7.864   1.852   0.114  1.00  0.00     0.054 A 
ATOM      9  C   UNL     1       5.196   2.427   0.231  1.00  0.00     0.051 A 
ATOM     10  C   UNL     1       7.429   2.922   0.902  1.00  0.00     0.166 A 
ATOM     11  C   UNL     1       6.084   3.212   0.961  1.00  0.00     0.165 A 
ATOM     12  O   UNL     1       8.090   3.831   1.701  1.00  0.00    -0.454 OA
ATOM     13  O   UNL     1       5.946   4.303   1.804  1.00  0.00    -0.454 OA
ATOM     14  C   UNL     1       7.183   4.671   2.366  1.00  0.00     0.468 C 
ENDBRANCH   5   6
ENDBRANCH   1   5
TORSDOF 3
ENDMDL
MODEL 5
REMARK VINA RESULT:      -7.1      3.253      4.282
REMARK SMILES CC(=O)CCc1ccc2c(c1)OCO2
REMARK SMILES IDX 4 1 2 2 1 3 3 4 5 5 6 6 7 7 11 8 8 9 10 10 9 11 12 12 14 13
REMARK SMILES IDX 13 14
REMARK H PARENT
REMARK Flexibility Score: inf
ROOT
ATOM      1  C   UNL     1       5.437   1.486   0.493  1.00  0.00     0.080 C 
ENDROOT
BRANCH   1   2
ATOM      2  C   UNL     1       5.115   0.566   1.619  1.00  0.00     0.130 C 
ATOM      3  C   UNL     1       5.799  -0.745   1.776  1.00  0.00     0.087 C 
ATOM      4  O   UNL     1       4.273   0.865   2.450  1.00  0.00    -0.300 OA
ENDBRANCH   1   2
BRANCH   1   5
ATOM      5  C   UNL     1       6.512   2.480   0.884  1.00  0.00     0.043 C 
BRANCH   5   6
ATOM      6  C   UNL     1       7.857   1.878   0.838  1.00  0.00    -0.044 A 
ATOM      7  C   UNL     1       8.396   1.380  -0.354  1.00  0.00     0.008 A 
ATOM      8  C   UNL     1       8.609   1.799   1.988  1.00  0.00     0.054 A 
ATOM      9  C   UNL     1       9.663   0.826  -0.337  1.00  0.00     0.051 A 
ATOM     10  C   UNL     1       9.890   1.239   2.000  1.00  0.00     0.166 A 
ATOM     11  C   UNL     1      10.421   0.748   0.828  1.00  0.00     0.165 A 
ATOM     12  O   UNL     1      10.822   1.047   2.997  1.00  0.00    -0.454 OA
ATOM     13  O   UNL     1      11.682   0.261   1.133  1.00  0.00    -0.454 OA
ATOM     14  C   UNL     1      12.013   0.512   2.478  1.00  0.00     0.468 C 
ENDBRANCH   5   6
ENDBRANCH   1   5
TORSDOF 3
ENDMDL
