@<TRIPOS>MOLECULE
/home/cewinharhar/GITHUB/reincatalyze/data/processed/docking_pred/2023-May-22-1902_sub9_nm5_bs15_s42_ex16_mel10_mts1000_k50_ec02_g099_lra9e-4_lrc1e-3/ae62664a3c9eef67376bdc077c2faa7ac5a69a78_ligand_9.pdbqt
 14 15 0 0 0
SMALL
GASTEIGER

@<TRIPOS>ATOM
      1  C          7.0380   -1.3840   -0.8940 C.3     1  UNL1        0.0800
      2  C          7.5960   -1.6560    0.4600 C.2     1  UNL1        0.1300
      3  C          6.7250   -1.7330    1.6630 C.3     1  UNL1        0.0870
      4  O          8.7940   -1.8240    0.6220 O.2     1  UNL1       -0.3000
      5  C          7.5040   -0.0420   -1.4220 C.3     1  UNL1        0.0430
      6  C          6.9890    1.0750   -0.6090 C.2     1  UNL1       -0.0440
      7  C          5.6220    1.3680   -0.5490 C.2     1  UNL1        0.0080
      8  C          7.8640    1.8520    0.1140 C.2     1  UNL1        0.0540
      9  C          5.1960    2.4270    0.2310 C.2     1  UNL1        0.0510
     10  C          7.4290    2.9220    0.9020 C.2     1  UNL1        0.1660
     11  C          6.0840    3.2120    0.9610 C.2     1  UNL1        0.1650
     12  O          8.0900    3.8310    1.7010 O.2     1  UNL1       -0.4540
     13  O          5.9460    4.3030    1.8040 O.2     1  UNL1       -0.4540
     14  C          7.1830    4.6710    2.3660 C.3     1  UNL1        0.4680
@<TRIPOS>BOND
     1     5     1    1
     2     5     6    1
     3     1     2    1
     4     6     7    2
     5     6     8    1
     6     7     9    1
     7     8    10    2
     8     9    11    2
     9     2     4    2
    10     2     3    1
    11    10    11    1
    12    10    12    1
    13    11    13    1
    14    12    14    1
    15    13    14    1
