@<TRIPOS>MOLECULE
/home/cewinharhar/GITHUB/reincatalyze/data/processed/docking_pred/2023-May-22-1902_sub9_nm5_bs15_s42_ex16_mel10_mts1000_k50_ec02_g099_lra9e-4_lrc1e-3/ae62664a3c9eef67376bdc077c2faa7ac5a69a78_ligand_9.pdbqt
 14 15 0 0 0
SMALL
GASTEIGER

@<TRIPOS>ATOM
      1  C          5.7690    3.2360    0.1960 C.3     1  UNL1        0.0800
      2  C          6.6030    3.7380    1.3240 C.2     1  UNL1        0.1300
      3  C          8.0640    3.4720    1.3940 C.3     1  UNL1        0.0870
      4  O          6.1050    4.3860    2.2310 O.2     1  UNL1       -0.3000
      5  C          5.0680    1.9430    0.5630 C.3     1  UNL1        0.0430
      6  C          5.8740    0.7630    0.2030 C.2     1  UNL1       -0.0440
      7  C          6.1730   -0.2330    1.1400 C.2     1  UNL1        0.0080
      8  C          6.3470    0.6260   -1.0820 C.2     1  UNL1        0.0540
      9  C          6.9330   -1.3190    0.7450 C.2     1  UNL1        0.0510
     10  C          7.1150   -0.4740   -1.4760 C.2     1  UNL1        0.1660
     11  C          7.4100   -1.4550   -0.5550 C.2     1  UNL1        0.1650
     12  O          7.6940   -0.8350   -2.6740 O.2     1  UNL1       -0.4540
     13  O          8.1720   -2.4070   -1.2140 O.2     1  UNL1       -0.4540
     14  C          8.2990   -2.0990   -2.5810 C.3     1  UNL1        0.4680
@<TRIPOS>BOND
     1    12    14    1
     2    12    10    1
     3    14    13    1
     4    10     8    1
     5    10    11    2
     6    13    11    1
     7     8     6    2
     8    11     9    1
     9     1     5    1
    10     1     2    1
    11     6     5    1
    12     6     7    1
    13     9     7    2
    14     2     3    1
    15     2     4    2
