@<TRIPOS>MOLECULE
/home/cewinharhar/GITHUB/reincatalyze/data/processed/docking_pred/2023-May-22-1902_sub9_nm5_bs15_s42_ex16_mel10_mts1000_k50_ec02_g099_lra9e-4_lrc1e-3/af0dd28332db5651a88784e76b435690c0a42449_ligand_9.pdbqt
 14 15 0 0 0
SMALL
GASTEIGER

@<TRIPOS>ATOM
      1  C          6.4220    1.0080    1.0850 C.3     1  UNL1        0.0800
      2  C          5.1480    1.7660    0.9400 C.2     1  UNL1        0.1300
      3  C          4.8680    2.6020   -0.2580 C.3     1  UNL1        0.0870
      4  O          4.2910    1.7220    1.8070 O.2     1  UNL1       -0.3000
      5  C          7.3080    1.1820   -0.1330 C.3     1  UNL1        0.0430
      6  C          7.6350   -0.1100   -0.7610 C.2     1  UNL1       -0.0440
      7  C          7.6430   -0.2690   -2.1510 C.2     1  UNL1        0.0080
      8  C          7.9450   -1.1940    0.0300 C.2     1  UNL1        0.0540
      9  C          7.9580   -1.5060   -2.6840 C.2     1  UNL1        0.0510
     10  C          8.2640   -2.4420   -0.5130 C.2     1  UNL1        0.1660
     11  C          8.2700   -2.5990   -1.8810 C.2     1  UNL1        0.1650
     12  O          8.6010   -3.6540    0.0510 O.2     1  UNL1       -0.4540
     13  O          8.6160   -3.9180   -2.1310 O.2     1  UNL1       -0.4540
     14  C          8.9230   -4.5980   -0.9380 C.3     1  UNL1        0.4680
@<TRIPOS>BOND
     1     9     7    1
     2     9    11    2
     3     7     6    2
     4    13    11    1
     5    13    14    1
     6    11    10    1
     7    14    12    1
     8     6     5    1
     9     6     8    1
    10    10     8    2
    11    10    12    1
    12     3     2    1
    13     5     1    1
    14     2     1    1
    15     2     4    2
