MODEL 1
REMARK VINA RESULT:      -8.0      0.000      0.000
REMARK SMILES CC(=O)CCc1ccc2c(c1)OCO2
REMARK SMILES IDX 4 1 2 2 1 3 3 4 5 5 6 6 7 7 11 8 8 9 10 10 9 11 12 12 14 13
REMARK SMILES IDX 13 14
REMARK H PARENT
REMARK Flexibility Score: inf
ROOT
ATOM      1  C   UNL     1       5.429   2.935   0.069  1.00  0.00     0.080 C 
ENDROOT
BRANCH   1   2
ATOM      2  C   UNL     1       6.295   3.789   0.929  1.00  0.00     0.130 C 
ATOM      3  C   UNL     1       7.247   4.773   0.347  1.00  0.00     0.087 C 
ATOM      4  O   UNL     1       6.249   3.704   2.145  1.00  0.00    -0.300 OA
ENDBRANCH   1   2
BRANCH   1   5
ATOM      5  C   UNL     1       5.106   1.619   0.747  1.00  0.00     0.043 C 
BRANCH   5   6
ATOM      6  C   UNL     1       5.960   0.525   0.251  1.00  0.00    -0.044 A 
ATOM      7  C   UNL     1       6.313  -0.557   1.067  1.00  0.00     0.008 A 
ATOM      8  C   UNL     1       6.425   0.555  -1.044  1.00  0.00     0.054 A 
ATOM      9  C   UNL     1       7.116  -1.555   0.547  1.00  0.00     0.051 A 
ATOM     10  C   UNL     1       7.236  -0.457  -1.565  1.00  0.00     0.166 A 
ATOM     11  C   UNL     1       7.585  -1.521  -0.763  1.00  0.00     0.165 A 
ATOM     12  O   UNL     1       7.817  -0.653  -2.800  1.00  0.00    -0.454 OA
ATOM     13  O   UNL     1       8.380  -2.357  -1.530  1.00  0.00    -0.454 OA
ATOM     14  C   UNL     1       8.479  -1.891  -2.855  1.00  0.00     0.468 C 
ENDBRANCH   5   6
ENDBRANCH   1   5
TORSDOF 3
ENDMDL
MODEL 2
REMARK VINA RESULT:      -7.8      0.978      1.962
REMARK SMILES CC(=O)CCc1ccc2c(c1)OCO2
REMARK SMILES IDX 4 1 2 2 1 3 3 4 5 5 6 6 7 7 11 8 8 9 10 10 9 11 12 12 14 13
REMARK SMILES IDX 13 14
REMARK H PARENT
REMARK Flexibility Score: inf
ROOT
ATOM      1  C   UNL     1       5.482   2.894   0.210  1.00  0.00     0.080 C 
ENDROOT
BRANCH   1   2
ATOM      2  C   UNL     1       6.290   3.872   0.991  1.00  0.00     0.130 C 
ATOM      3  C   UNL     1       7.272   4.775   0.334  1.00  0.00     0.087 C 
ATOM      4  O   UNL     1       6.168   3.959   2.203  1.00  0.00    -0.300 OA
ENDBRANCH   1   2
BRANCH   1   5
ATOM      5  C   UNL     1       5.334   1.582   0.956  1.00  0.00     0.043 C 
BRANCH   5   6
ATOM      6  C   UNL     1       6.112   0.503   0.322  1.00  0.00    -0.044 A 
ATOM      7  C   UNL     1       6.401   0.514  -1.047  1.00  0.00     0.008 A 
ATOM      8  C   UNL     1       6.572  -0.545   1.086  1.00  0.00     0.054 A 
ATOM      9  C   UNL     1       7.136  -0.526  -1.587  1.00  0.00     0.051 A 
ATOM     10  C   UNL     1       7.315  -1.594   0.536  1.00  0.00     0.166 A 
ATOM     11  C   UNL     1       7.599  -1.584  -0.811  1.00  0.00     0.165 A 
ATOM     12  O   UNL     1       7.876  -2.732   1.076  1.00  0.00    -0.454 OA
ATOM     13  O   UNL     1       8.337  -2.728  -1.073  1.00  0.00    -0.454 OA
ATOM     14  C   UNL     1       8.613  -3.437   0.111  1.00  0.00     0.468 C 
ENDBRANCH   5   6
ENDBRANCH   1   5
TORSDOF 3
ENDMDL
MODEL 3
REMARK VINA RESULT:      -7.7      1.877      2.621
REMARK SMILES CC(=O)CCc1ccc2c(c1)OCO2
REMARK SMILES IDX 4 1 2 2 1 3 3 4 5 5 6 6 7 7 11 8 8 9 10 10 9 11 12 12 14 13
REMARK SMILES IDX 13 14
REMARK H PARENT
REMARK Flexibility Score: inf
ROOT
ATOM      1  C   UNL     1       5.510   1.920   1.255  1.00  0.00     0.080 C 
ENDROOT
BRANCH   1   2
ATOM      2  C   UNL     1       5.060   0.709   1.997  1.00  0.00     0.130 C 
ATOM      3  C   UNL     1       5.936  -0.483   2.150  1.00  0.00     0.087 C 
ATOM      4  O   UNL     1       3.950   0.660   2.503  1.00  0.00    -0.300 OA
ENDBRANCH   1   2
BRANCH   1   5
ATOM      5  C   UNL     1       5.386   1.726  -0.243  1.00  0.00     0.043 C 
BRANCH   5   6
ATOM      6  C   UNL     1       6.558   1.028  -0.802  1.00  0.00    -0.044 A 
ATOM      7  C   UNL     1       7.862   1.467  -0.549  1.00  0.00     0.008 A 
ATOM      8  C   UNL     1       6.376  -0.086  -1.590  1.00  0.00     0.054 A 
ATOM      9  C   UNL     1       8.923   0.770  -1.099  1.00  0.00     0.051 A 
ATOM     10  C   UNL     1       7.451  -0.786  -2.144  1.00  0.00     0.166 A 
ATOM     11  C   UNL     1       8.735  -0.355  -1.897  1.00  0.00     0.165 A 
ATOM     12  O   UNL     1       7.531  -1.903  -2.948  1.00  0.00    -0.454 OA
ATOM     13  O   UNL     1       9.586  -1.225  -2.561  1.00  0.00    -0.454 OA
ATOM     14  C   UNL     1       8.868  -2.274  -3.165  1.00  0.00     0.468 C 
ENDBRANCH   5   6
ENDBRANCH   1   5
TORSDOF 3
ENDMDL
MODEL 4
REMARK VINA RESULT:      -7.5      1.154      1.556
REMARK SMILES CC(=O)CCc1ccc2c(c1)OCO2
REMARK SMILES IDX 4 1 2 2 1 3 3 4 5 5 6 6 7 7 11 8 8 9 10 10 9 11 12 12 14 13
REMARK SMILES IDX 13 14
REMARK H PARENT
REMARK Flexibility Score: inf
ROOT
ATOM      1  C   UNL     1       5.514   2.870   0.235  1.00  0.00     0.080 C 
ENDROOT
BRANCH   1   2
ATOM      2  C   UNL     1       6.327   3.838   1.022  1.00  0.00     0.130 C 
ATOM      3  C   UNL     1       7.286   4.767   0.366  1.00  0.00     0.087 C 
ATOM      4  O   UNL     1       6.228   3.898   2.237  1.00  0.00    -0.300 OA
ENDBRANCH   1   2
BRANCH   1   5
ATOM      5  C   UNL     1       5.796   1.442   0.659  1.00  0.00     0.043 C 
BRANCH   5   6
ATOM      6  C   UNL     1       6.817   0.809  -0.195  1.00  0.00    -0.044 A 
ATOM      7  C   UNL     1       8.078   1.386  -0.380  1.00  0.00     0.008 A 
ATOM      8  C   UNL     1       6.534  -0.380  -0.829  1.00  0.00     0.054 A 
ATOM      9  C   UNL     1       8.996   0.746  -1.192  1.00  0.00     0.051 A 
ATOM     10  C   UNL     1       7.466  -1.023  -1.649  1.00  0.00     0.166 A 
ATOM     11  C   UNL     1       8.707  -0.455  -1.832  1.00  0.00     0.165 A 
ATOM     12  O   UNL     1       7.427  -2.192  -2.378  1.00  0.00    -0.454 OA
ATOM     13  O   UNL     1       9.412  -1.297  -2.678  1.00  0.00    -0.454 OA
ATOM     14  C   UNL     1       8.670  -2.455  -2.976  1.00  0.00     0.468 C 
ENDBRANCH   5   6
ENDBRANCH   1   5
TORSDOF 3
ENDMDL
MODEL 5
REMARK VINA RESULT:      -7.5      1.836      2.809
REMARK SMILES CC(=O)CCc1ccc2c(c1)OCO2
REMARK SMILES IDX 4 1 2 2 1 3 3 4 5 5 6 6 7 7 11 8 8 9 10 10 9 11 12 12 14 13
REMARK SMILES IDX 13 14
REMARK H PARENT
REMARK Flexibility Score: inf
ROOT
ATOM      1  C   UNL     1       6.422   1.008   1.085  1.00  0.00     0.080 C 
ENDROOT
BRANCH   1   2
ATOM      2  C   UNL     1       5.148   1.766   0.940  1.00  0.00     0.130 C 
ATOM      3  C   UNL     1       4.868   2.602  -0.258  1.00  0.00     0.087 C 
ATOM      4  O   UNL     1       4.291   1.722   1.807  1.00  0.00    -0.300 OA
ENDBRANCH   1   2
BRANCH   1   5
ATOM      5  C   UNL     1       7.308   1.182  -0.133  1.00  0.00     0.043 C 
BRANCH   5   6
ATOM      6  C   UNL     1       7.635  -0.110  -0.761  1.00  0.00    -0.044 A 
ATOM      7  C   UNL     1       7.643  -0.269  -2.151  1.00  0.00     0.008 A 
ATOM      8  C   UNL     1       7.945  -1.194   0.030  1.00  0.00     0.054 A 
ATOM      9  C   UNL     1       7.958  -1.506  -2.684  1.00  0.00     0.051 A 
ATOM     10  C   UNL     1       8.264  -2.442  -0.513  1.00  0.00     0.166 A 
ATOM     11  C   UNL     1       8.270  -2.599  -1.881  1.00  0.00     0.165 A 
ATOM     12  O   UNL     1       8.601  -3.654   0.051  1.00  0.00    -0.454 OA
ATOM     13  O   UNL     1       8.616  -3.918  -2.131  1.00  0.00    -0.454 OA
ATOM     14  C   UNL     1       8.923  -4.598  -0.938  1.00  0.00     0.468 C 
ENDBRANCH   5   6
ENDBRANCH   1   5
TORSDOF 3
ENDMDL
