@<TRIPOS>MOLECULE
/home/cewinharhar/GITHUB/reincatalyze/data/processed/docking_pred/2023-May-22-1902_sub9_nm5_bs15_s42_ex16_mel10_mts1000_k50_ec02_g099_lra9e-4_lrc1e-3/af895cae38f50b8ad608cacdd29f7ae1ddca485c_ligand_9.pdbqt
 14 15 0 0 0
SMALL
GASTEIGER

@<TRIPOS>ATOM
      1  C          5.0910    2.6160    0.5130 C.3     1  UNL1        0.0800
      2  C          6.2080    3.4310    1.0660 C.2     1  UNL1        0.1300
      3  C          6.9310    4.4310    0.2360 C.3     1  UNL1        0.0870
      4  O          6.5650    3.2990    2.2260 O.2     1  UNL1       -0.3000
      5  C          5.5750    1.6960   -0.5900 C.3     1  UNL1        0.0430
      6  C          6.1730    0.4620   -0.0500 C.2     1  UNL1       -0.0440
      7  C          5.9480    0.0550    1.2700 C.2     1  UNL1        0.0080
      8  C          6.9720   -0.3180   -0.8550 C.2     1  UNL1        0.0540
      9  C          6.5350   -1.1120    1.7220 C.2     1  UNL1        0.0510
     10  C          7.5630   -1.4990   -0.3930 C.2     1  UNL1        0.1660
     11  C          7.3430   -1.8990    0.9060 C.2     1  UNL1        0.1650
     12  O          8.3840   -2.4330   -0.9870 O.2     1  UNL1       -0.4540
     13  O          8.0400   -3.0830    1.0850 O.2     1  UNL1       -0.4540
     14  C          8.6410   -3.5050   -0.1170 C.3     1  UNL1        0.4680
@<TRIPOS>BOND
     1    12    10    1
     2    12    14    1
     3     8    10    1
     4     8     6    2
     5     5     6    1
     6     5     1    1
     7    10    11    2
     8    14    13    1
     9     6     7    1
    10     3     2    1
    11     1     2    1
    12    11    13    1
    13    11     9    1
    14     2     4    2
    15     7     9    2
