@<TRIPOS>MOLECULE
/home/cewinharhar/GITHUB/reincatalyze/data/processed/docking_pred/2023-May-22-1902_sub9_nm5_bs15_s42_ex16_mel10_mts1000_k50_ec02_g099_lra9e-4_lrc1e-3/af895cae38f50b8ad608cacdd29f7ae1ddca485c_ligand_9.pdbqt
 14 15 0 0 0
SMALL
GASTEIGER

@<TRIPOS>ATOM
      1  C          6.1350    0.7730    1.0230 C.3     1  UNL1        0.0800
      2  C          5.0000    1.7340    0.9370 C.2     1  UNL1        0.1300
      3  C          4.8530    2.6680   -0.2110 C.3     1  UNL1        0.0870
      4  O          4.1520    1.7820    1.8140 O.2     1  UNL1       -0.3000
      5  C          7.1410    1.0080   -0.0870 C.3     1  UNL1        0.0430
      6  C          7.5410   -0.2520   -0.7380 C.2     1  UNL1       -0.0440
      7  C          7.6180   -0.3650   -2.1310 C.2     1  UNL1        0.0080
      8  C          7.8500   -1.3490    0.0330 C.2     1  UNL1        0.0540
      9  C          8.0000   -1.5730   -2.6860 C.2     1  UNL1        0.0510
     10  C          8.2370   -2.5680   -0.5330 C.2     1  UNL1        0.1660
     11  C          8.3120   -2.6810   -1.9040 C.2     1  UNL1        0.1650
     12  O          8.5890   -3.7860    0.0080 O.2     1  UNL1       -0.4540
     13  O          8.7140   -3.9780   -2.1780 O.2     1  UNL1       -0.4540
     14  C          8.9880   -4.6870   -0.9930 C.3     1  UNL1        0.4680
@<TRIPOS>BOND
     1     9     7    1
     2     9    11    2
     3    13    11    1
     4    13    14    1
     5     7     6    2
     6    11    10    1
     7    14    12    1
     8     6     5    1
     9     6     8    1
    10    10    12    1
    11    10     8    2
    12     3     2    1
    13     5     1    1
    14     2     1    1
    15     2     4    2
