@<TRIPOS>MOLECULE
/home/cewinharhar/GITHUB/reincatalyze/data/processed/docking_pred/2023-May-22-1902_sub9_nm5_bs15_s42_ex16_mel10_mts1000_k50_ec02_g099_lra9e-4_lrc1e-3/af9628f04dddfdfce7c60ac864c84e5664a7a69f_ligand_9.pdbqt
 14 15 0 0 0
SMALL
GASTEIGER

@<TRIPOS>ATOM
      1  C          5.4340    2.8930    0.1810 C.3     1  UNL1        0.0800
      2  C          6.3930    3.6740    1.0110 C.2     1  UNL1        0.1300
      3  C          7.2100    4.7740    0.4320 C.3     1  UNL1        0.0870
      4  O          6.5380    3.4310    2.1980 O.2     1  UNL1       -0.3000
      5  C          5.1390    1.5430    0.8050 C.3     1  UNL1        0.0430
      6  C          5.9960    0.4830    0.2450 C.2     1  UNL1       -0.0440
      7  C          6.4070    0.5030   -1.0930 C.2     1  UNL1        0.0080
      8  C          6.4110   -0.5540    1.0480 C.2     1  UNL1        0.0540
      9  C          7.2120   -0.5180   -1.5640 C.2     1  UNL1        0.0510
     10  C          7.2260   -1.5840    0.5680 C.2     1  UNL1        0.1660
     11  C          7.6290   -1.5660   -0.7490 C.2     1  UNL1        0.1650
     12  O          7.7630   -2.7090    1.1570 O.2     1  UNL1       -0.4540
     13  O          8.4150   -2.6910   -0.9430 O.2     1  UNL1       -0.4540
     14  C          8.6010   -3.3960    0.2620 C.3     1  UNL1        0.4680
@<TRIPOS>BOND
     1     9     7    1
     2     9    11    2
     3     7     6    2
     4    13    11    1
     5    13    14    1
     6    11    10    1
     7     1     5    1
     8     1     2    1
     9     6     5    1
    10     6     8    1
    11    14    12    1
    12     3     2    1
    13    10     8    2
    14    10    12    1
    15     2     4    2
