@<TRIPOS>MOLECULE
/home/cewinharhar/GITHUB/reincatalyze/data/processed/docking_pred/2023-May-22-1902_sub9_nm5_bs15_s42_ex16_mel10_mts1000_k50_ec02_g099_lra9e-4_lrc1e-3/af9628f04dddfdfce7c60ac864c84e5664a7a69f_ligand_9.pdbqt
 14 15 0 0 0
SMALL
GASTEIGER

@<TRIPOS>ATOM
      1  C          6.0140    1.6320    1.1470 C.3     1  UNL1        0.0800
      2  C          5.4450    0.5380    1.9830 C.2     1  UNL1        0.1300
      3  C          6.2330   -0.6770    2.3210 C.3     1  UNL1        0.0870
      4  O          4.3060    0.6090    2.4170 O.2     1  UNL1       -0.3000
      5  C          5.7320    1.4030   -0.3250 C.3     1  UNL1        0.0430
      6  C          6.8050    0.6270   -0.9730 C.2     1  UNL1       -0.0440
      7  C          8.1490    1.0030   -0.8640 C.2     1  UNL1        0.0080
      8  C          6.4890   -0.4960   -1.7020 C.2     1  UNL1        0.0540
      9  C          9.1130    0.2360   -1.4930 C.2     1  UNL1        0.0510
     10  C          7.4680   -1.2690   -2.3360 C.2     1  UNL1        0.1660
     11  C          8.7900   -0.8990   -2.2300 C.2     1  UNL1        0.1650
     12  O          7.4100   -2.4100   -3.1070 O.2     1  UNL1       -0.4540
     13  O          9.5250   -1.8320   -2.9450 O.2     1  UNL1       -0.4540
     14  C          8.6990   -2.8580   -3.4420 C.3     1  UNL1        0.4680
@<TRIPOS>BOND
     1    14    12    1
     2    14    13    1
     3    12    10    1
     4    13    11    1
     5    10    11    2
     6    10     8    1
     7    11     9    1
     8     8     6    2
     9     9     7    2
    10     6     7    1
    11     6     5    1
    12     5     1    1
    13     1     2    1
    14     2     3    1
    15     2     4    2
