@<TRIPOS>MOLECULE
/home/cewinharhar/GITHUB/reincatalyze/data/processed/docking_pred/2023-May-22-1902_sub9_nm5_bs15_s42_ex16_mel10_mts1000_k50_ec02_g099_lra9e-4_lrc1e-3/b0dbf451e4e891e0fb60bf6ca530f921e690d9da_ligand_9.pdbqt
 14 15 0 0 0
SMALL
GASTEIGER

@<TRIPOS>ATOM
      1  C          5.5400    1.9190    1.2660 C.3     1  UNL1        0.0800
      2  C          5.0890    0.7050    2.0030 C.2     1  UNL1        0.1300
      3  C          5.9770   -0.4750    2.1800 C.3     1  UNL1        0.0870
      4  O          3.9700    0.6440    2.4850 O.2     1  UNL1       -0.3000
      5  C          5.4090    1.7330   -0.2320 C.3     1  UNL1        0.0430
      6  C          6.5740    1.0300   -0.7990 C.2     1  UNL1       -0.0440
      7  C          7.8820    1.4630   -0.5530 C.2     1  UNL1        0.0080
      8  C          6.3830   -0.0810   -1.5880 C.2     1  UNL1        0.0540
      9  C          8.9370    0.7630   -1.1110 C.2     1  UNL1        0.0510
     10  C          7.4520   -0.7860   -2.1490 C.2     1  UNL1        0.1660
     11  C          8.7400   -0.3600   -1.9090 C.2     1  UNL1        0.1650
     12  O          7.5220   -1.9020   -2.9560 O.2     1  UNL1       -0.4540
     13  O          9.5820   -1.2330   -2.5790 O.2     1  UNL1       -0.4540
     14  C          8.8560   -2.2790   -3.1810 C.3     1  UNL1        0.4680
@<TRIPOS>BOND
     1    14    12    1
     2    14    13    1
     3    12    10    1
     4    13    11    1
     5    10    11    2
     6    10     8    1
     7    11     9    1
     8     8     6    2
     9     9     7    2
    10     6     7    1
    11     6     5    1
    12     5     1    1
    13     1     2    1
    14     2     3    1
    15     2     4    2
