MODEL 1
REMARK VINA RESULT:      -7.9      0.000      0.000
REMARK SMILES CC(=O)CCc1ccc2c(c1)OCO2
REMARK SMILES IDX 4 1 2 2 1 3 3 4 5 5 6 6 7 7 11 8 8 9 10 10 9 11 12 12 14 13
REMARK SMILES IDX 13 14
REMARK H PARENT
REMARK Flexibility Score: inf
ROOT
ATOM      1  C   UNL     1       5.443   2.906   0.065  1.00  0.00     0.080 C 
ENDROOT
BRANCH   1   2
ATOM      2  C   UNL     1       6.280   3.804   0.909  1.00  0.00     0.130 C 
ATOM      3  C   UNL     1       7.237   4.771   0.308  1.00  0.00     0.087 C 
ATOM      4  O   UNL     1       6.204   3.770   2.126  1.00  0.00    -0.300 OA
ENDBRANCH   1   2
BRANCH   1   5
ATOM      5  C   UNL     1       5.165   1.592   0.767  1.00  0.00     0.043 C 
BRANCH   5   6
ATOM      6  C   UNL     1       6.001   0.501   0.234  1.00  0.00    -0.044 A 
ATOM      7  C   UNL     1       6.308  -0.628   1.002  1.00  0.00     0.008 A 
ATOM      8  C   UNL     1       6.494   0.583  -1.048  1.00  0.00     0.054 A 
ATOM      9  C   UNL     1       7.096  -1.621   0.449  1.00  0.00     0.051 A 
ATOM     10  C   UNL     1       7.290  -0.424  -1.603  1.00  0.00     0.166 A 
ATOM     11  C   UNL     1       7.594  -1.535  -0.848  1.00  0.00     0.165 A 
ATOM     12  O   UNL     1       7.893  -0.574  -2.833  1.00  0.00    -0.454 OA
ATOM     13  O   UNL     1       8.384  -2.353  -1.639  1.00  0.00    -0.454 OA
ATOM     14  C   UNL     1       8.523  -1.825  -2.937  1.00  0.00     0.468 C 
ENDBRANCH   5   6
ENDBRANCH   1   5
TORSDOF 3
ENDMDL
MODEL 2
REMARK VINA RESULT:      -7.8      1.025      2.017
REMARK SMILES CC(=O)CCc1ccc2c(c1)OCO2
REMARK SMILES IDX 4 1 2 2 1 3 3 4 5 5 6 6 7 7 11 8 8 9 10 10 9 11 12 12 14 13
REMARK SMILES IDX 13 14
REMARK H PARENT
REMARK Flexibility Score: inf
ROOT
ATOM      1  C   UNL     1       5.386   2.977   0.117  1.00  0.00     0.080 C 
ENDROOT
BRANCH   1   2
ATOM      2  C   UNL     1       6.316   3.774   0.965  1.00  0.00     0.130 C 
ATOM      3  C   UNL     1       7.257   4.763   0.375  1.00  0.00     0.087 C 
ATOM      4  O   UNL     1       6.331   3.637   2.178  1.00  0.00    -0.300 OA
ENDBRANCH   1   2
BRANCH   1   5
ATOM      5  C   UNL     1       5.077   1.635   0.751  1.00  0.00     0.043 C 
BRANCH   5   6
ATOM      6  C   UNL     1       5.943   0.567   0.221  1.00  0.00    -0.044 A 
ATOM      7  C   UNL     1       6.368   0.562  -1.112  1.00  0.00     0.008 A 
ATOM      8  C   UNL     1       6.353  -0.453   1.050  1.00  0.00     0.054 A 
ATOM      9  C   UNL     1       7.181  -0.466  -1.553  1.00  0.00     0.051 A 
ATOM     10  C   UNL     1       7.176  -1.489   0.599  1.00  0.00     0.166 A 
ATOM     11  C   UNL     1       7.593  -1.496  -0.713  1.00  0.00     0.165 A 
ATOM     12  O   UNL     1       7.711  -2.600   1.216  1.00  0.00    -0.454 OA
ATOM     13  O   UNL     1       8.385  -2.622  -0.876  1.00  0.00    -0.454 OA
ATOM     14  C   UNL     1       8.560  -3.301   0.344  1.00  0.00     0.468 C 
ENDBRANCH   5   6
ENDBRANCH   1   5
TORSDOF 3
ENDMDL
MODEL 3
REMARK VINA RESULT:      -7.6      1.885      2.626
REMARK SMILES CC(=O)CCc1ccc2c(c1)OCO2
REMARK SMILES IDX 4 1 2 2 1 3 3 4 5 5 6 6 7 7 11 8 8 9 10 10 9 11 12 12 14 13
REMARK SMILES IDX 13 14
REMARK H PARENT
REMARK Flexibility Score: inf
ROOT
ATOM      1  C   UNL     1       5.540   1.919   1.266  1.00  0.00     0.080 C 
ENDROOT
BRANCH   1   2
ATOM      2  C   UNL     1       5.089   0.705   2.003  1.00  0.00     0.130 C 
ATOM      3  C   UNL     1       5.977  -0.475   2.180  1.00  0.00     0.087 C 
ATOM      4  O   UNL     1       3.970   0.644   2.485  1.00  0.00    -0.300 OA
ENDBRANCH   1   2
BRANCH   1   5
ATOM      5  C   UNL     1       5.409   1.733  -0.232  1.00  0.00     0.043 C 
BRANCH   5   6
ATOM      6  C   UNL     1       6.574   1.030  -0.799  1.00  0.00    -0.044 A 
ATOM      7  C   UNL     1       7.882   1.463  -0.553  1.00  0.00     0.008 A 
ATOM      8  C   UNL     1       6.383  -0.081  -1.588  1.00  0.00     0.054 A 
ATOM      9  C   UNL     1       8.937   0.763  -1.111  1.00  0.00     0.051 A 
ATOM     10  C   UNL     1       7.452  -0.786  -2.149  1.00  0.00     0.166 A 
ATOM     11  C   UNL     1       8.740  -0.360  -1.909  1.00  0.00     0.165 A 
ATOM     12  O   UNL     1       7.522  -1.902  -2.956  1.00  0.00    -0.454 OA
ATOM     13  O   UNL     1       9.582  -1.233  -2.579  1.00  0.00    -0.454 OA
ATOM     14  C   UNL     1       8.856  -2.279  -3.181  1.00  0.00     0.468 C 
ENDBRANCH   5   6
ENDBRANCH   1   5
TORSDOF 3
ENDMDL
MODEL 4
REMARK VINA RESULT:      -7.5      1.110      1.536
REMARK SMILES CC(=O)CCc1ccc2c(c1)OCO2
REMARK SMILES IDX 4 1 2 2 1 3 3 4 5 5 6 6 7 7 11 8 8 9 10 10 9 11 12 12 14 13
REMARK SMILES IDX 13 14
REMARK H PARENT
REMARK Flexibility Score: inf
ROOT
ATOM      1  C   UNL     1       5.441   2.910   0.195  1.00  0.00     0.080 C 
ENDROOT
BRANCH   1   2
ATOM      2  C   UNL     1       6.247   3.879   0.989  1.00  0.00     0.130 C 
ATOM      3  C   UNL     1       7.247   4.773   0.347  1.00  0.00     0.087 C 
ATOM      4  O   UNL     1       6.107   3.968   2.198  1.00  0.00    -0.300 OA
ENDBRANCH   1   2
BRANCH   1   5
ATOM      5  C   UNL     1       5.715   1.483   0.627  1.00  0.00     0.043 C 
BRANCH   5   6
ATOM      6  C   UNL     1       6.758   0.852  -0.201  1.00  0.00    -0.044 A 
ATOM      7  C   UNL     1       8.030   1.421  -0.337  1.00  0.00     0.008 A 
ATOM      8  C   UNL     1       6.487  -0.326  -0.859  1.00  0.00     0.054 A 
ATOM      9  C   UNL     1       8.969   0.783  -1.127  1.00  0.00     0.051 A 
ATOM     10  C   UNL     1       7.441  -0.967  -1.656  1.00  0.00     0.166 A 
ATOM     11  C   UNL     1       8.692  -0.407  -1.791  1.00  0.00     0.165 A 
ATOM     12  O   UNL     1       7.416  -2.126  -2.402  1.00  0.00    -0.454 OA
ATOM     13  O   UNL     1       9.417  -1.244  -2.625  1.00  0.00    -0.454 OA
ATOM     14  C   UNL     1       8.676  -2.393  -2.962  1.00  0.00     0.468 C 
ENDBRANCH   5   6
ENDBRANCH   1   5
TORSDOF 3
ENDMDL
MODEL 5
REMARK VINA RESULT:      -7.4      1.840      2.797
REMARK SMILES CC(=O)CCc1ccc2c(c1)OCO2
REMARK SMILES IDX 4 1 2 2 1 3 3 4 5 5 6 6 7 7 11 8 8 9 10 10 9 11 12 12 14 13
REMARK SMILES IDX 13 14
REMARK H PARENT
REMARK Flexibility Score: inf
ROOT
ATOM      1  C   UNL     1       6.297   0.939   1.110  1.00  0.00     0.080 C 
ENDROOT
BRANCH   1   2
ATOM      2  C   UNL     1       5.073   1.771   0.939  1.00  0.00     0.130 C 
ATOM      3  C   UNL     1       4.869   2.622  -0.264  1.00  0.00     0.087 C 
ATOM      4  O   UNL     1       4.196   1.778   1.788  1.00  0.00    -0.300 OA
ENDBRANCH   1   2
BRANCH   1   5
ATOM      5  C   UNL     1       7.258   1.129  -0.047  1.00  0.00     0.043 C 
BRANCH   5   6
ATOM      6  C   UNL     1       7.595  -0.152  -0.693  1.00  0.00    -0.044 A 
ATOM      7  C   UNL     1       7.578  -0.297  -2.085  1.00  0.00     0.008 A 
ATOM      8  C   UNL     1       7.938  -1.237   0.081  1.00  0.00     0.054 A 
ATOM      9  C   UNL     1       7.904  -1.523  -2.635  1.00  0.00     0.051 A 
ATOM     10  C   UNL     1       8.268  -2.474  -0.481  1.00  0.00     0.166 A 
ATOM     11  C   UNL     1       8.251  -2.619  -1.850  1.00  0.00     0.165 A 
ATOM     12  O   UNL     1       8.637  -3.685   0.065  1.00  0.00    -0.454 OA
ATOM     13  O   UNL     1       8.614  -3.929  -2.120  1.00  0.00    -0.454 OA
ATOM     14  C   UNL     1       8.955  -4.615  -0.939  1.00  0.00     0.468 C 
ENDBRANCH   5   6
ENDBRANCH   1   5
TORSDOF 3
ENDMDL
