@<TRIPOS>MOLECULE
/home/cewinharhar/GITHUB/reincatalyze/data/processed/docking_pred/2023-May-22-1902_sub9_nm5_bs15_s42_ex16_mel10_mts1000_k50_ec02_g099_lra9e-4_lrc1e-3/b0dbf451e4e891e0fb60bf6ca530f921e690d9da_ligand_9.pdbqt
 14 15 0 0 0
SMALL
GASTEIGER

@<TRIPOS>ATOM
      1  C          5.4430    2.9060    0.0650 C.3     1  UNL1        0.0800
      2  C          6.2800    3.8040    0.9090 C.2     1  UNL1        0.1300
      3  C          7.2370    4.7710    0.3080 C.3     1  UNL1        0.0870
      4  O          6.2040    3.7700    2.1260 O.2     1  UNL1       -0.3000
      5  C          5.1650    1.5920    0.7670 C.3     1  UNL1        0.0430
      6  C          6.0010    0.5010    0.2340 C.2     1  UNL1       -0.0440
      7  C          6.3080   -0.6280    1.0020 C.2     1  UNL1        0.0080
      8  C          6.4940    0.5830   -1.0480 C.2     1  UNL1        0.0540
      9  C          7.0960   -1.6210    0.4490 C.2     1  UNL1        0.0510
     10  C          7.2900   -0.4240   -1.6030 C.2     1  UNL1        0.1660
     11  C          7.5940   -1.5350   -0.8480 C.2     1  UNL1        0.1650
     12  O          7.8930   -0.5740   -2.8330 O.2     1  UNL1       -0.4540
     13  O          8.3840   -2.3530   -1.6390 O.2     1  UNL1       -0.4540
     14  C          8.5230   -1.8250   -2.9370 C.3     1  UNL1        0.4680
@<TRIPOS>BOND
     1    14    12    1
     2    14    13    1
     3    12    10    1
     4    13    11    1
     5    10     8    1
     6    10    11    2
     7     8     6    2
     8    11     9    1
     9     1     5    1
    10     1     2    1
    11     6     5    1
    12     6     7    1
    13     3     2    1
    14     9     7    2
    15     2     4    2
