MODEL 1
REMARK VINA RESULT:      -7.6      0.000      0.000
REMARK SMILES CC(=O)CCc1ccc2c(c1)OCO2
REMARK SMILES IDX 4 1 2 2 1 3 3 4 5 5 6 6 7 7 11 8 8 9 10 10 9 11 12 12 14 13
REMARK SMILES IDX 13 14
REMARK H PARENT
REMARK Flexibility Score: inf
ROOT
ATOM      1  C   UNL     1       5.521   2.838   0.400  1.00  0.00     0.080 C 
ENDROOT
BRANCH   1   2
ATOM      2  C   UNL     1       6.304   3.910   1.076  1.00  0.00     0.130 C 
ATOM      3  C   UNL     1       7.254   4.775   0.325  1.00  0.00     0.087 C 
ATOM      4  O   UNL     1       6.189   4.110   2.274  1.00  0.00    -0.300 OA
ENDBRANCH   1   2
BRANCH   1   5
ATOM      5  C   UNL     1       5.506   1.565   1.223  1.00  0.00     0.043 C 
BRANCH   5   6
ATOM      6  C   UNL     1       6.345   0.514   0.618  1.00  0.00    -0.044 A 
ATOM      7  C   UNL     1       7.049  -0.404   1.405  1.00  0.00     0.008 A 
ATOM      8  C   UNL     1       6.443   0.423  -0.751  1.00  0.00     0.054 A 
ATOM      9  C   UNL     1       7.819  -1.370   0.782  1.00  0.00     0.051 A 
ATOM     10  C   UNL     1       7.222  -0.555  -1.376  1.00  0.00     0.166 A 
ATOM     11  C   UNL     1       7.916  -1.458  -0.603  1.00  0.00     0.165 A 
ATOM     12  O   UNL     1       7.479  -0.848  -2.699  1.00  0.00    -0.454 OA
ATOM     13  O   UNL     1       8.591  -2.297  -1.475  1.00  0.00    -0.454 OA
ATOM     14  C   UNL     1       8.271  -2.003  -2.814  1.00  0.00     0.468 C 
ENDBRANCH   5   6
ENDBRANCH   1   5
TORSDOF 3
ENDMDL
MODEL 2
REMARK VINA RESULT:      -7.5      1.148      1.401
REMARK SMILES CC(=O)CCc1ccc2c(c1)OCO2
REMARK SMILES IDX 4 1 2 2 1 3 3 4 5 5 6 6 7 7 11 8 8 9 10 10 9 11 12 12 14 13
REMARK SMILES IDX 13 14
REMARK H PARENT
REMARK Flexibility Score: inf
ROOT
ATOM      1  C   UNL     1       5.467   2.878   0.427  1.00  0.00     0.080 C 
ENDROOT
BRANCH   1   2
ATOM      2  C   UNL     1       6.235   3.949   1.122  1.00  0.00     0.130 C 
ATOM      3  C   UNL     1       7.244   4.775   0.407  1.00  0.00     0.087 C 
ATOM      4  O   UNL     1       6.056   4.180   2.307  1.00  0.00    -0.300 OA
ENDBRANCH   1   2
BRANCH   1   5
ATOM      5  C   UNL     1       5.891   1.502   0.899  1.00  0.00     0.043 C 
BRANCH   5   6
ATOM      6  C   UNL     1       6.863   0.883  -0.021  1.00  0.00    -0.044 A 
ATOM      7  C   UNL     1       8.113   1.463  -0.264  1.00  0.00     0.008 A 
ATOM      8  C   UNL     1       6.544  -0.293  -0.659  1.00  0.00     0.054 A 
ATOM      9  C   UNL     1       8.985   0.837  -1.136  1.00  0.00     0.051 A 
ATOM     10  C   UNL     1       7.429  -0.922  -1.540  1.00  0.00     0.166 A 
ATOM     11  C   UNL     1       8.659  -0.352  -1.781  1.00  0.00     0.165 A 
ATOM     12  O   UNL     1       7.348  -2.078  -2.288  1.00  0.00    -0.454 OA
ATOM     13  O   UNL     1       9.315  -1.179  -2.679  1.00  0.00    -0.454 OA
ATOM     14  C   UNL     1       8.556  -2.332  -2.957  1.00  0.00     0.468 C 
ENDBRANCH   5   6
ENDBRANCH   1   5
TORSDOF 3
ENDMDL
MODEL 3
REMARK VINA RESULT:      -7.4      1.641      2.668
REMARK SMILES CC(=O)CCc1ccc2c(c1)OCO2
REMARK SMILES IDX 4 1 2 2 1 3 3 4 5 5 6 6 7 7 11 8 8 9 10 10 9 11 12 12 14 13
REMARK SMILES IDX 13 14
REMARK H PARENT
REMARK Flexibility Score: inf
ROOT
ATOM      1  C   UNL     1       5.745   1.329  -0.334  1.00  0.00     0.080 C 
ENDROOT
BRANCH   1   2
ATOM      2  C   UNL     1       5.380   2.684   0.165  1.00  0.00     0.130 C 
ATOM      3  C   UNL     1       6.415   3.683   0.543  1.00  0.00     0.087 C 
ATOM      4  O   UNL     1       4.211   3.015   0.281  1.00  0.00    -0.300 OA
ENDBRANCH   1   2
BRANCH   1   5
ATOM      5  C   UNL     1       7.249   1.136  -0.350  1.00  0.00     0.043 C 
BRANCH   5   6
ATOM      6  C   UNL     1       7.626  -0.171  -0.917  1.00  0.00    -0.044 A 
ATOM      7  C   UNL     1       7.738  -0.365  -2.299  1.00  0.00     0.008 A 
ATOM      8  C   UNL     1       7.878  -1.232  -0.078  1.00  0.00     0.054 A 
ATOM      9  C   UNL     1       8.096  -1.614  -2.774  1.00  0.00     0.051 A 
ATOM     10  C   UNL     1       8.240  -2.492  -0.563  1.00  0.00     0.166 A 
ATOM     11  C   UNL     1       8.350  -2.685  -1.923  1.00  0.00     0.165 A 
ATOM     12  O   UNL     1       8.537  -3.688   0.055  1.00  0.00    -0.454 OA
ATOM     13  O   UNL     1       8.717  -4.008  -2.112  1.00  0.00    -0.454 OA
ATOM     14  C   UNL     1       8.935  -4.656  -0.882  1.00  0.00     0.468 C 
ENDBRANCH   5   6
ENDBRANCH   1   5
TORSDOF 3
ENDMDL
MODEL 4
REMARK VINA RESULT:      -7.4      0.900      1.776
REMARK SMILES CC(=O)CCc1ccc2c(c1)OCO2
REMARK SMILES IDX 4 1 2 2 1 3 3 4 5 5 6 6 7 7 11 8 8 9 10 10 9 11 12 12 14 13
REMARK SMILES IDX 13 14
REMARK H PARENT
REMARK Flexibility Score: inf
ROOT
ATOM      1  C   UNL     1       5.690   2.529   0.702  1.00  0.00     0.080 C 
ENDROOT
BRANCH   1   2
ATOM      2  C   UNL     1       6.314   3.792   1.185  1.00  0.00     0.130 C 
ATOM      3  C   UNL     1       7.132   4.652   0.288  1.00  0.00     0.087 C 
ATOM      4  O   UNL     1       6.172   4.160   2.340  1.00  0.00    -0.300 OA
ENDBRANCH   1   2
BRANCH   1   5
ATOM      5  C   UNL     1       6.386   1.314   1.283  1.00  0.00     0.043 C 
BRANCH   5   6
ATOM      6  C   UNL     1       6.765   0.349   0.235  1.00  0.00    -0.044 A 
ATOM      7  C   UNL     1       6.479   0.582  -1.115  1.00  0.00     0.008 A 
ATOM      8  C   UNL     1       7.418  -0.812   0.581  1.00  0.00     0.054 A 
ATOM      9  C   UNL     1       6.859  -0.359  -2.054  1.00  0.00     0.051 A 
ATOM     10  C   UNL     1       7.801  -1.760  -0.372  1.00  0.00     0.166 A 
ATOM     11  C   UNL     1       7.519  -1.532  -1.701  1.00  0.00     0.165 A 
ATOM     12  O   UNL     1       8.450  -2.974  -0.283  1.00  0.00    -0.454 OA
ATOM     13  O   UNL     1       8.006  -2.621  -2.407  1.00  0.00    -0.454 OA
ATOM     14  C   UNL     1       8.684  -3.515  -1.557  1.00  0.00     0.468 C 
ENDBRANCH   5   6
ENDBRANCH   1   5
TORSDOF 3
ENDMDL
MODEL 5
REMARK VINA RESULT:      -7.4      1.584      2.157
REMARK SMILES CC(=O)CCc1ccc2c(c1)OCO2
REMARK SMILES IDX 4 1 2 2 1 3 3 4 5 5 6 6 7 7 11 8 8 9 10 10 9 11 12 12 14 13
REMARK SMILES IDX 13 14
REMARK H PARENT
REMARK Flexibility Score: inf
ROOT
ATOM      1  C   UNL     1       5.629   1.306  -0.535  1.00  0.00     0.080 C 
ENDROOT
BRANCH   1   2
ATOM      2  C   UNL     1       5.362   2.289   0.552  1.00  0.00     0.130 C 
ATOM      3  C   UNL     1       6.145   3.547   0.677  1.00  0.00     0.087 C 
ATOM      4  O   UNL     1       4.486   2.087   1.378  1.00  0.00    -0.300 OA
ENDBRANCH   1   2
BRANCH   1   5
ATOM      5  C   UNL     1       7.117   1.117  -0.752  1.00  0.00     0.043 C 
BRANCH   5   6
ATOM      6  C   UNL     1       7.543  -0.259  -0.443  1.00  0.00    -0.044 A 
ATOM      7  C   UNL     1       7.659  -0.712   0.877  1.00  0.00     0.008 A 
ATOM      8  C   UNL     1       7.835  -1.130  -1.468  1.00  0.00     0.054 A 
ATOM      9  C   UNL     1       8.063  -2.015   1.106  1.00  0.00     0.051 A 
ATOM     10  C   UNL     1       8.243  -2.446  -1.231  1.00  0.00     0.166 A 
ATOM     11  C   UNL     1       8.358  -2.892   0.067  1.00  0.00     0.165 A 
ATOM     12  O   UNL     1       8.586  -3.489  -2.065  1.00  0.00    -0.454 OA
ATOM     13  O   UNL     1       8.772  -4.213   0.002  1.00  0.00    -0.454 OA
ATOM     14  C   UNL     1       8.842  -4.659  -1.331  1.00  0.00     0.468 C 
ENDBRANCH   5   6
ENDBRANCH   1   5
TORSDOF 3
ENDMDL
