@<TRIPOS>MOLECULE
/home/cewinharhar/GITHUB/reincatalyze/data/processed/docking_pred/2023-May-22-1902_sub9_nm5_bs15_s42_ex16_mel10_mts1000_k50_ec02_g099_lra9e-4_lrc1e-3/b393d0f0af23d36e99ef7bf88514b4beffd0378d_ligand_9.pdbqt
 14 15 0 0 0
SMALL
GASTEIGER

@<TRIPOS>ATOM
      1  C          5.6290    1.3060   -0.5350 C.3     1  UNL1        0.0800
      2  C          5.3620    2.2890    0.5520 C.2     1  UNL1        0.1300
      3  C          6.1450    3.5470    0.6770 C.3     1  UNL1        0.0870
      4  O          4.4860    2.0870    1.3780 O.2     1  UNL1       -0.3000
      5  C          7.1170    1.1170   -0.7520 C.3     1  UNL1        0.0430
      6  C          7.5430   -0.2590   -0.4430 C.2     1  UNL1       -0.0440
      7  C          7.6590   -0.7120    0.8770 C.2     1  UNL1        0.0080
      8  C          7.8350   -1.1300   -1.4680 C.2     1  UNL1        0.0540
      9  C          8.0630   -2.0150    1.1060 C.2     1  UNL1        0.0510
     10  C          8.2430   -2.4460   -1.2310 C.2     1  UNL1        0.1660
     11  C          8.3580   -2.8920    0.0670 C.2     1  UNL1        0.1650
     12  O          8.5860   -3.4890   -2.0650 O.2     1  UNL1       -0.4540
     13  O          8.7720   -4.2130    0.0020 O.2     1  UNL1       -0.4540
     14  C          8.8420   -4.6590   -1.3310 C.3     1  UNL1        0.4680
@<TRIPOS>BOND
     1    12    14    1
     2    12    10    1
     3     8    10    1
     4     8     6    2
     5    14    13    1
     6    10    11    2
     7     5     1    1
     8     5     6    1
     9     1     2    1
    10     6     7    1
    11    13    11    1
    12    11     9    1
    13     2     3    1
    14     2     4    2
    15     7     9    2
