MODEL 1
REMARK VINA RESULT:      -8.0      0.000      0.000
REMARK SMILES CC(=O)CCc1ccc2c(c1)OCO2
REMARK SMILES IDX 4 1 2 2 1 3 3 4 5 5 6 6 7 7 11 8 8 9 10 10 9 11 12 12 14 13
REMARK SMILES IDX 13 14
REMARK H PARENT
REMARK Flexibility Score: inf
ROOT
ATOM      1  C   UNL     1       5.429   2.935   0.069  1.00  0.00     0.080 C 
ENDROOT
BRANCH   1   2
ATOM      2  C   UNL     1       6.295   3.789   0.929  1.00  0.00     0.130 C 
ATOM      3  C   UNL     1       7.247   4.773   0.347  1.00  0.00     0.087 C 
ATOM      4  O   UNL     1       6.249   3.704   2.145  1.00  0.00    -0.300 OA
ENDBRANCH   1   2
BRANCH   1   5
ATOM      5  C   UNL     1       5.106   1.619   0.747  1.00  0.00     0.043 C 
BRANCH   5   6
ATOM      6  C   UNL     1       5.960   0.525   0.251  1.00  0.00    -0.044 A 
ATOM      7  C   UNL     1       6.313  -0.557   1.067  1.00  0.00     0.008 A 
ATOM      8  C   UNL     1       6.425   0.555  -1.044  1.00  0.00     0.054 A 
ATOM      9  C   UNL     1       7.116  -1.555   0.547  1.00  0.00     0.051 A 
ATOM     10  C   UNL     1       7.236  -0.457  -1.565  1.00  0.00     0.166 A 
ATOM     11  C   UNL     1       7.585  -1.521  -0.763  1.00  0.00     0.165 A 
ATOM     12  O   UNL     1       7.817  -0.653  -2.800  1.00  0.00    -0.454 OA
ATOM     13  O   UNL     1       8.380  -2.357  -1.530  1.00  0.00    -0.454 OA
ATOM     14  C   UNL     1       8.479  -1.891  -2.855  1.00  0.00     0.468 C 
ENDBRANCH   5   6
ENDBRANCH   1   5
TORSDOF 3
ENDMDL
MODEL 2
REMARK VINA RESULT:      -7.8      0.978      1.962
REMARK SMILES CC(=O)CCc1ccc2c(c1)OCO2
REMARK SMILES IDX 4 1 2 2 1 3 3 4 5 5 6 6 7 7 11 8 8 9 10 10 9 11 12 12 14 13
REMARK SMILES IDX 13 14
REMARK H PARENT
REMARK Flexibility Score: inf
ROOT
ATOM      1  C   UNL     1       5.482   2.894   0.210  1.00  0.00     0.080 C 
ENDROOT
BRANCH   1   2
ATOM      2  C   UNL     1       6.290   3.872   0.991  1.00  0.00     0.130 C 
ATOM      3  C   UNL     1       7.272   4.775   0.334  1.00  0.00     0.087 C 
ATOM      4  O   UNL     1       6.168   3.959   2.203  1.00  0.00    -0.300 OA
ENDBRANCH   1   2
BRANCH   1   5
ATOM      5  C   UNL     1       5.334   1.582   0.956  1.00  0.00     0.043 C 
BRANCH   5   6
ATOM      6  C   UNL     1       6.112   0.503   0.322  1.00  0.00    -0.044 A 
ATOM      7  C   UNL     1       6.401   0.514  -1.047  1.00  0.00     0.008 A 
ATOM      8  C   UNL     1       6.572  -0.545   1.086  1.00  0.00     0.054 A 
ATOM      9  C   UNL     1       7.136  -0.526  -1.587  1.00  0.00     0.051 A 
ATOM     10  C   UNL     1       7.315  -1.594   0.536  1.00  0.00     0.166 A 
ATOM     11  C   UNL     1       7.599  -1.584  -0.811  1.00  0.00     0.165 A 
ATOM     12  O   UNL     1       7.876  -2.732   1.076  1.00  0.00    -0.454 OA
ATOM     13  O   UNL     1       8.337  -2.728  -1.073  1.00  0.00    -0.454 OA
ATOM     14  C   UNL     1       8.613  -3.437   0.111  1.00  0.00     0.468 C 
ENDBRANCH   5   6
ENDBRANCH   1   5
TORSDOF 3
ENDMDL
MODEL 3
REMARK VINA RESULT:      -7.7      1.878      2.614
REMARK SMILES CC(=O)CCc1ccc2c(c1)OCO2
REMARK SMILES IDX 4 1 2 2 1 3 3 4 5 5 6 6 7 7 11 8 8 9 10 10 9 11 12 12 14 13
REMARK SMILES IDX 13 14
REMARK H PARENT
REMARK Flexibility Score: inf
ROOT
ATOM      1  C   UNL     1       5.509   1.928   1.251  1.00  0.00     0.080 C 
ENDROOT
BRANCH   1   2
ATOM      2  C   UNL     1       5.075   0.713   1.995  1.00  0.00     0.130 C 
ATOM      3  C   UNL     1       5.973  -0.460   2.166  1.00  0.00     0.087 C 
ATOM      4  O   UNL     1       3.961   0.645   2.488  1.00  0.00    -0.300 OA
ENDBRANCH   1   2
BRANCH   1   5
ATOM      5  C   UNL     1       5.387   1.730  -0.247  1.00  0.00     0.043 C 
BRANCH   5   6
ATOM      6  C   UNL     1       6.558   1.028  -0.802  1.00  0.00    -0.044 A 
ATOM      7  C   UNL     1       7.863   1.459  -0.541  1.00  0.00     0.008 A 
ATOM      8  C   UNL     1       6.375  -0.081  -1.596  1.00  0.00     0.054 A 
ATOM      9  C   UNL     1       8.923   0.760  -1.089  1.00  0.00     0.051 A 
ATOM     10  C   UNL     1       7.450  -0.785  -2.147  1.00  0.00     0.166 A 
ATOM     11  C   UNL     1       8.734  -0.361  -1.892  1.00  0.00     0.165 A 
ATOM     12  O   UNL     1       7.528  -1.899  -2.956  1.00  0.00    -0.454 OA
ATOM     13  O   UNL     1       9.584  -1.232  -2.555  1.00  0.00    -0.454 OA
ATOM     14  C   UNL     1       8.864  -2.276  -3.167  1.00  0.00     0.468 C 
ENDBRANCH   5   6
ENDBRANCH   1   5
TORSDOF 3
ENDMDL
MODEL 4
REMARK VINA RESULT:      -7.5      1.938      3.021
REMARK SMILES CC(=O)CCc1ccc2c(c1)OCO2
REMARK SMILES IDX 4 1 2 2 1 3 3 4 5 5 6 6 7 7 11 8 8 9 10 10 9 11 12 12 14 13
REMARK SMILES IDX 13 14
REMARK H PARENT
REMARK Flexibility Score: inf
ROOT
ATOM      1  C   UNL     1       5.724   1.302  -0.321  1.00  0.00     0.080 C 
ENDROOT
BRANCH   1   2
ATOM      2  C   UNL     1       5.189   1.297   1.069  1.00  0.00     0.130 C 
ATOM      3  C   UNL     1       5.359   0.124   1.968  1.00  0.00     0.087 C 
ATOM      4  O   UNL     1       4.590   2.264   1.513  1.00  0.00    -0.300 OA
ENDBRANCH   1   2
BRANCH   1   5
ATOM      5  C   UNL     1       7.228   1.111  -0.332  1.00  0.00     0.043 C 
BRANCH   5   6
ATOM      6  C   UNL     1       7.611  -0.188  -0.912  1.00  0.00    -0.044 A 
ATOM      7  C   UNL     1       7.707  -0.372  -2.297  1.00  0.00     0.008 A 
ATOM      8  C   UNL     1       7.884  -1.252  -0.083  1.00  0.00     0.054 A 
ATOM      9  C   UNL     1       8.071  -1.614  -2.784  1.00  0.00     0.051 A 
ATOM     10  C   UNL     1       8.252  -2.506  -0.581  1.00  0.00     0.166 A 
ATOM     11  C   UNL     1       8.346  -2.688  -1.943  1.00  0.00     0.165 A 
ATOM     12  O   UNL     1       8.568  -3.702   0.026  1.00  0.00    -0.454 OA
ATOM     13  O   UNL     1       8.724  -4.006  -2.145  1.00  0.00    -0.454 OA
ATOM     14  C   UNL     1       8.964  -4.660  -0.922  1.00  0.00     0.468 C 
ENDBRANCH   5   6
ENDBRANCH   1   5
TORSDOF 3
ENDMDL
MODEL 5
REMARK VINA RESULT:      -7.4      1.817      2.826
REMARK SMILES CC(=O)CCc1ccc2c(c1)OCO2
REMARK SMILES IDX 4 1 2 2 1 3 3 4 5 5 6 6 7 7 11 8 8 9 10 10 9 11 12 12 14 13
REMARK SMILES IDX 13 14
REMARK H PARENT
REMARK Flexibility Score: inf
ROOT
ATOM      1  C   UNL     1       6.338   0.908   1.025  1.00  0.00     0.080 C 
ENDROOT
BRANCH   1   2
ATOM      2  C   UNL     1       5.108   1.744   0.936  1.00  0.00     0.130 C 
ATOM      3  C   UNL     1       4.866   2.656  -0.213  1.00  0.00     0.087 C 
ATOM      4  O   UNL     1       4.259   1.704   1.812  1.00  0.00    -0.300 OA
ENDBRANCH   1   2
BRANCH   1   5
ATOM      5  C   UNL     1       7.223   1.100  -0.191  1.00  0.00     0.043 C 
BRANCH   5   6
ATOM      6  C   UNL     1       7.574  -0.186  -0.819  1.00  0.00    -0.044 A 
ATOM      7  C   UNL     1       7.600  -0.339  -2.210  1.00  0.00     0.008 A 
ATOM      8  C   UNL     1       7.889  -1.268  -0.029  1.00  0.00     0.054 A 
ATOM      9  C   UNL     1       7.938  -1.570  -2.744  1.00  0.00     0.051 A 
ATOM     10  C   UNL     1       8.231  -2.510  -0.573  1.00  0.00     0.166 A 
ATOM     11  C   UNL     1       8.255  -2.662  -1.942  1.00  0.00     0.165 A 
ATOM     12  O   UNL     1       8.578  -3.719  -0.010  1.00  0.00    -0.454 OA
ATOM     13  O   UNL     1       8.621  -3.975  -2.193  1.00  0.00    -0.454 OA
ATOM     14  C   UNL     1       8.923  -4.655  -0.998  1.00  0.00     0.468 C 
ENDBRANCH   5   6
ENDBRANCH   1   5
TORSDOF 3
ENDMDL
