@<TRIPOS>MOLECULE
/home/cewinharhar/GITHUB/reincatalyze/data/processed/docking_pred/2023-May-22-1902_sub9_nm5_bs15_s42_ex16_mel10_mts1000_k50_ec02_g099_lra9e-4_lrc1e-3/b3efa5aa79561967f2a1346927635c3d7bfec8a2_ligand_9.pdbqt
 14 15 0 0 0
SMALL
GASTEIGER

@<TRIPOS>ATOM
      1  C          5.3700    2.8600    0.0270 C.3     1  UNL1        0.0800
      2  C          6.1250    3.6580    1.0330 C.2     1  UNL1        0.1300
      3  C          7.0210    4.7750    0.6310 C.3     1  UNL1        0.0870
      4  O          6.0290    3.4160    2.2250 O.2     1  UNL1       -0.3000
      5  C          5.4870    1.3740    0.3030 C.3     1  UNL1        0.0430
      6  C          6.6180    0.7710   -0.4240 C.2     1  UNL1       -0.0440
      7  C          7.8840    1.3680   -0.4360 C.2     1  UNL1        0.0080
      8  C          6.4370   -0.4090   -1.1100 C.2     1  UNL1        0.0540
      9  C          8.9080    0.7550   -1.1350 C.2     1  UNL1        0.0510
     10  C          7.4760   -1.0240   -1.8140 C.2     1  UNL1        0.1660
     11  C          8.7210   -0.4370   -1.8270 C.2     1  UNL1        0.1650
     12  O          7.5480   -2.1800   -2.5630 O.2     1  UNL1       -0.4540
     13  O          9.5410   -1.2530   -2.5910 O.2     1  UNL1       -0.4540
     14  C          8.8610   -2.4160   -3.0010 C.3     1  UNL1        0.4680
@<TRIPOS>BOND
     1    14    13    1
     2    14    12    1
     3    13    11    1
     4    12    10    1
     5    11    10    2
     6    11     9    1
     7    10     8    1
     8     9     7    2
     9     8     6    2
    10     7     6    1
    11     6     5    1
    12     1     5    1
    13     1     2    1
    14     3     2    1
    15     2     4    2
