@<TRIPOS>MOLECULE
/home/cewinharhar/GITHUB/reincatalyze/data/processed/docking_pred/2023-May-22-1902_sub9_nm5_bs15_s42_ex16_mel10_mts1000_k50_ec02_g099_lra9e-4_lrc1e-3/b3efa5aa79561967f2a1346927635c3d7bfec8a2_ligand_9.pdbqt
 14 15 0 0 0
SMALL
GASTEIGER

@<TRIPOS>ATOM
      1  C          5.4550    0.0510    2.0920 C.3     1  UNL1        0.0800
      2  C          4.6050    1.2460    1.8350 C.2     1  UNL1        0.1300
      3  C          4.8680    2.1600    0.6910 C.3     1  UNL1        0.0870
      4  O          3.6610    1.5120    2.5610 O.2     1  UNL1       -0.3000
      5  C          6.8860    0.2880    1.6520 C.3     1  UNL1        0.0430
      6  C          7.2880   -0.6370    0.5770 C.2     1  UNL1       -0.0440
      7  C          7.1510   -0.2950   -0.7730 C.2     1  UNL1        0.0080
      8  C          7.8150   -1.8670    0.8980 C.2     1  UNL1        0.0540
      9  C          7.5460   -1.2030   -1.7380 C.2     1  UNL1        0.0510
     10  C          8.2130   -2.7820   -0.0820 C.2     1  UNL1        0.1660
     11  C          8.0780   -2.4470   -1.4110 C.2     1  UNL1        0.1650
     12  O          8.7560   -4.0480   -0.0210 O.2     1  UNL1       -0.4540
     13  O          8.5450   -3.5250   -2.1460 O.2     1  UNL1       -0.4540
     14  C          9.0690   -4.5250   -1.3040 C.3     1  UNL1        0.4680
@<TRIPOS>BOND
     1    13    11    1
     2    13    14    1
     3     9    11    2
     4     9     7    1
     5    11    10    1
     6    14    12    1
     7     7     6    2
     8    10    12    1
     9    10     8    2
    10     6     8    1
    11     6     5    1
    12     3     2    1
    13     5     1    1
    14     2     1    1
    15     2     4    2
