@<TRIPOS>MOLECULE
/home/cewinharhar/GITHUB/reincatalyze/data/processed/docking_pred/2023-May-22-1902_sub9_nm5_bs15_s42_ex16_mel10_mts1000_k50_ec02_g099_lra9e-4_lrc1e-3/b3efa5aa79561967f2a1346927635c3d7bfec8a2_ligand_9.pdbqt
 14 15 0 0 0
SMALL
GASTEIGER

@<TRIPOS>ATOM
      1  C          5.4080    2.9230    0.0970 C.3     1  UNL1        0.0800
      2  C          6.2290    3.7580    1.0180 C.2     1  UNL1        0.1300
      3  C          7.1870    4.7740    0.5050 C.3     1  UNL1        0.0870
      4  O          6.1370    3.6320    2.2280 O.2     1  UNL1       -0.3000
      5  C          5.0900    1.5750    0.7140 C.3     1  UNL1        0.0430
      6  C          5.9690    0.5140    0.1910 C.2     1  UNL1       -0.0440
      7  C          6.3200   -0.5970    0.9670 C.2     1  UNL1        0.0080
      8  C          6.4600    0.6050   -1.0920 C.2     1  UNL1        0.0540
      9  C          7.1470   -1.5620    0.4220 C.2     1  UNL1        0.0510
     10  C          7.2960   -0.3740   -1.6380 C.2     1  UNL1        0.1660
     11  C          7.6420   -1.4660   -0.8750 C.2     1  UNL1        0.1650
     12  O          7.9050   -0.5100   -2.8670 O.2     1  UNL1       -0.4540
     13  O          8.4650   -2.2590   -1.6590 O.2     1  UNL1       -0.4540
     14  C          8.5840   -1.7350   -2.9610 C.3     1  UNL1        0.4680
@<TRIPOS>BOND
     1    14    12    1
     2    14    13    1
     3    12    10    1
     4    13    11    1
     5    10     8    1
     6    10    11    2
     7     8     6    2
     8    11     9    1
     9     1     5    1
    10     1     2    1
    11     6     5    1
    12     6     7    1
    13     9     7    2
    14     3     2    1
    15     2     4    2
