@<TRIPOS>MOLECULE
/home/cewinharhar/GITHUB/reincatalyze/data/processed/docking_pred/2023-May-22-1902_sub9_nm5_bs15_s42_ex16_mel10_mts1000_k50_ec02_g099_lra9e-4_lrc1e-3/b3efa5aa79561967f2a1346927635c3d7bfec8a2_ligand_9.pdbqt
 14 15 0 0 0
SMALL
GASTEIGER

@<TRIPOS>ATOM
      1  C          5.4730    2.2210    1.2250 C.3     1  UNL1        0.0800
      2  C          4.7960    1.1540    2.0140 C.2     1  UNL1        0.1300
      3  C          5.3610   -0.2180    2.1160 C.3     1  UNL1        0.0870
      4  O          3.7500    1.3770    2.6020 O.2     1  UNL1       -0.3000
      5  C          5.3510    1.9660   -0.2640 C.3     1  UNL1        0.0430
      6  C          6.5070    1.2150   -0.7860 C.2     1  UNL1       -0.0440
      7  C          7.8210    1.5880   -0.4830 C.2     1  UNL1        0.0080
      8  C          6.3000    0.1170   -1.5900 C.2     1  UNL1        0.0540
      9  C          8.8660    0.8450   -1.0000 C.2     1  UNL1        0.0510
     10  C          7.3600   -0.6320   -2.1100 C.2     1  UNL1        0.1660
     11  C          8.6540   -0.2640   -1.8130 C.2     1  UNL1        0.1650
     12  O          7.4150   -1.7460   -2.9200 O.2     1  UNL1       -0.4540
     13  O          9.4850   -1.1710   -2.4530 O.2     1  UNL1       -0.4540
     14  C          8.7400   -2.1800   -3.0920 C.3     1  UNL1        0.4680
@<TRIPOS>BOND
     1    14    12    1
     2    14    13    1
     3    12    10    1
     4    13    11    1
     5    10    11    2
     6    10     8    1
     7    11     9    1
     8     8     6    2
     9     9     7    2
    10     6     7    1
    11     6     5    1
    12     5     1    1
    13     1     2    1
    14     2     3    1
    15     2     4    2
