MODEL 1
REMARK VINA RESULT:      -7.9      0.000      0.000
REMARK SMILES CC(=O)CCc1ccc2c(c1)OCO2
REMARK SMILES IDX 4 1 2 2 1 3 3 4 5 5 6 6 7 7 11 8 8 9 10 10 9 11 12 12 14 13
REMARK SMILES IDX 13 14
REMARK H PARENT
REMARK Flexibility Score: inf
ROOT
ATOM      1  C   UNL     1       5.473   2.221   1.225  1.00  0.00     0.080 C 
ENDROOT
BRANCH   1   2
ATOM      2  C   UNL     1       4.796   1.154   2.014  1.00  0.00     0.130 C 
ATOM      3  C   UNL     1       5.361  -0.218   2.116  1.00  0.00     0.087 C 
ATOM      4  O   UNL     1       3.750   1.377   2.602  1.00  0.00    -0.300 OA
ENDBRANCH   1   2
BRANCH   1   5
ATOM      5  C   UNL     1       5.351   1.966  -0.264  1.00  0.00     0.043 C 
BRANCH   5   6
ATOM      6  C   UNL     1       6.507   1.215  -0.786  1.00  0.00    -0.044 A 
ATOM      7  C   UNL     1       7.821   1.588  -0.483  1.00  0.00     0.008 A 
ATOM      8  C   UNL     1       6.300   0.117  -1.590  1.00  0.00     0.054 A 
ATOM      9  C   UNL     1       8.866   0.845  -1.000  1.00  0.00     0.051 A 
ATOM     10  C   UNL     1       7.360  -0.632  -2.110  1.00  0.00     0.166 A 
ATOM     11  C   UNL     1       8.654  -0.264  -1.813  1.00  0.00     0.165 A 
ATOM     12  O   UNL     1       7.415  -1.746  -2.920  1.00  0.00    -0.454 OA
ATOM     13  O   UNL     1       9.485  -1.171  -2.453  1.00  0.00    -0.454 OA
ATOM     14  C   UNL     1       8.740  -2.180  -3.092  1.00  0.00     0.468 C 
ENDBRANCH   5   6
ENDBRANCH   1   5
TORSDOF 3
ENDMDL
MODEL 2
REMARK VINA RESULT:      -7.7      1.795      2.467
REMARK SMILES CC(=O)CCc1ccc2c(c1)OCO2
REMARK SMILES IDX 4 1 2 2 1 3 3 4 5 5 6 6 7 7 11 8 8 9 10 10 9 11 12 12 14 13
REMARK SMILES IDX 13 14
REMARK H PARENT
REMARK Flexibility Score: inf
ROOT
ATOM      1  C   UNL     1       5.408   2.923   0.097  1.00  0.00     0.080 C 
ENDROOT
BRANCH   1   2
ATOM      2  C   UNL     1       6.229   3.758   1.018  1.00  0.00     0.130 C 
ATOM      3  C   UNL     1       7.187   4.774   0.505  1.00  0.00     0.087 C 
ATOM      4  O   UNL     1       6.137   3.632   2.228  1.00  0.00    -0.300 OA
ENDBRANCH   1   2
BRANCH   1   5
ATOM      5  C   UNL     1       5.090   1.575   0.714  1.00  0.00     0.043 C 
BRANCH   5   6
ATOM      6  C   UNL     1       5.969   0.514   0.191  1.00  0.00    -0.044 A 
ATOM      7  C   UNL     1       6.320  -0.597   0.967  1.00  0.00     0.008 A 
ATOM      8  C   UNL     1       6.460   0.605  -1.092  1.00  0.00     0.054 A 
ATOM      9  C   UNL     1       7.147  -1.562   0.422  1.00  0.00     0.051 A 
ATOM     10  C   UNL     1       7.296  -0.374  -1.638  1.00  0.00     0.166 A 
ATOM     11  C   UNL     1       7.642  -1.466  -0.875  1.00  0.00     0.165 A 
ATOM     12  O   UNL     1       7.905  -0.510  -2.867  1.00  0.00    -0.454 OA
ATOM     13  O   UNL     1       8.465  -2.259  -1.659  1.00  0.00    -0.454 OA
ATOM     14  C   UNL     1       8.584  -1.735  -2.961  1.00  0.00     0.468 C 
ENDBRANCH   5   6
ENDBRANCH   1   5
TORSDOF 3
ENDMDL
MODEL 3
REMARK VINA RESULT:      -7.6      1.324      1.938
REMARK SMILES CC(=O)CCc1ccc2c(c1)OCO2
REMARK SMILES IDX 4 1 2 2 1 3 3 4 5 5 6 6 7 7 11 8 8 9 10 10 9 11 12 12 14 13
REMARK SMILES IDX 13 14
REMARK H PARENT
REMARK Flexibility Score: inf
ROOT
ATOM      1  C   UNL     1       5.370   2.860   0.027  1.00  0.00     0.080 C 
ENDROOT
BRANCH   1   2
ATOM      2  C   UNL     1       6.125   3.658   1.033  1.00  0.00     0.130 C 
ATOM      3  C   UNL     1       7.021   4.775   0.631  1.00  0.00     0.087 C 
ATOM      4  O   UNL     1       6.029   3.416   2.225  1.00  0.00    -0.300 OA
ENDBRANCH   1   2
BRANCH   1   5
ATOM      5  C   UNL     1       5.487   1.374   0.303  1.00  0.00     0.043 C 
BRANCH   5   6
ATOM      6  C   UNL     1       6.618   0.771  -0.424  1.00  0.00    -0.044 A 
ATOM      7  C   UNL     1       7.884   1.368  -0.436  1.00  0.00     0.008 A 
ATOM      8  C   UNL     1       6.437  -0.409  -1.110  1.00  0.00     0.054 A 
ATOM      9  C   UNL     1       8.908   0.755  -1.135  1.00  0.00     0.051 A 
ATOM     10  C   UNL     1       7.476  -1.024  -1.814  1.00  0.00     0.166 A 
ATOM     11  C   UNL     1       8.721  -0.437  -1.827  1.00  0.00     0.165 A 
ATOM     12  O   UNL     1       7.548  -2.180  -2.563  1.00  0.00    -0.454 OA
ATOM     13  O   UNL     1       9.541  -1.253  -2.591  1.00  0.00    -0.454 OA
ATOM     14  C   UNL     1       8.861  -2.416  -3.001  1.00  0.00     0.468 C 
ENDBRANCH   5   6
ENDBRANCH   1   5
TORSDOF 3
ENDMDL
MODEL 4
REMARK VINA RESULT:      -7.6      2.476      2.933
REMARK SMILES CC(=O)CCc1ccc2c(c1)OCO2
REMARK SMILES IDX 4 1 2 2 1 3 3 4 5 5 6 6 7 7 11 8 8 9 10 10 9 11 12 12 14 13
REMARK SMILES IDX 13 14
REMARK H PARENT
REMARK Flexibility Score: inf
ROOT
ATOM      1  C   UNL     1       5.332   2.875   0.034  1.00  0.00     0.080 C 
ENDROOT
BRANCH   1   2
ATOM      2  C   UNL     1       6.261   3.771   0.778  1.00  0.00     0.130 C 
ATOM      3  C   UNL     1       6.582   3.545   2.212  1.00  0.00     0.087 C 
ATOM      4  O   UNL     1       6.788   4.723   0.227  1.00  0.00    -0.300 OA
ENDBRANCH   1   2
BRANCH   1   5
ATOM      5  C   UNL     1       5.137   1.559   0.761  1.00  0.00     0.043 C 
BRANCH   5   6
ATOM      6  C   UNL     1       5.989   0.494   0.203  1.00  0.00    -0.044 A 
ATOM      7  C   UNL     1       6.378   0.496  -1.142  1.00  0.00     0.008 A 
ATOM      8  C   UNL     1       6.421  -0.530   1.014  1.00  0.00     0.054 A 
ATOM      9  C   UNL     1       7.180  -0.529  -1.610  1.00  0.00     0.051 A 
ATOM     10  C   UNL     1       7.231  -1.564   0.536  1.00  0.00     0.166 A 
ATOM     11  C   UNL     1       7.614  -1.563  -0.787  1.00  0.00     0.165 A 
ATOM     12  O   UNL     1       7.782  -2.678   1.132  1.00  0.00    -0.454 OA
ATOM     13  O   UNL     1       8.401  -2.688  -0.977  1.00  0.00    -0.454 OA
ATOM     14  C   UNL     1       8.608  -3.374   0.234  1.00  0.00     0.468 C 
ENDBRANCH   5   6
ENDBRANCH   1   5
TORSDOF 3
ENDMDL
MODEL 5
REMARK VINA RESULT:      -7.4      2.124      2.629
REMARK SMILES CC(=O)CCc1ccc2c(c1)OCO2
REMARK SMILES IDX 4 1 2 2 1 3 3 4 5 5 6 6 7 7 11 8 8 9 10 10 9 11 12 12 14 13
REMARK SMILES IDX 13 14
REMARK H PARENT
REMARK Flexibility Score: inf
ROOT
ATOM      1  C   UNL     1       5.455   0.051   2.092  1.00  0.00     0.080 C 
ENDROOT
BRANCH   1   2
ATOM      2  C   UNL     1       4.605   1.246   1.835  1.00  0.00     0.130 C 
ATOM      3  C   UNL     1       4.868   2.160   0.691  1.00  0.00     0.087 C 
ATOM      4  O   UNL     1       3.661   1.512   2.561  1.00  0.00    -0.300 OA
ENDBRANCH   1   2
BRANCH   1   5
ATOM      5  C   UNL     1       6.886   0.288   1.652  1.00  0.00     0.043 C 
BRANCH   5   6
ATOM      6  C   UNL     1       7.288  -0.637   0.577  1.00  0.00    -0.044 A 
ATOM      7  C   UNL     1       7.151  -0.295  -0.773  1.00  0.00     0.008 A 
ATOM      8  C   UNL     1       7.815  -1.867   0.898  1.00  0.00     0.054 A 
ATOM      9  C   UNL     1       7.546  -1.203  -1.738  1.00  0.00     0.051 A 
ATOM     10  C   UNL     1       8.213  -2.782  -0.082  1.00  0.00     0.166 A 
ATOM     11  C   UNL     1       8.078  -2.447  -1.411  1.00  0.00     0.165 A 
ATOM     12  O   UNL     1       8.756  -4.048  -0.021  1.00  0.00    -0.454 OA
ATOM     13  O   UNL     1       8.545  -3.525  -2.146  1.00  0.00    -0.454 OA
ATOM     14  C   UNL     1       9.069  -4.525  -1.304  1.00  0.00     0.468 C 
ENDBRANCH   5   6
ENDBRANCH   1   5
TORSDOF 3
ENDMDL
