@<TRIPOS>MOLECULE
/home/cewinharhar/GITHUB/reincatalyze/data/processed/docking_pred/2023-May-22-1902_sub9_nm5_bs15_s42_ex16_mel10_mts1000_k50_ec02_g099_lra9e-4_lrc1e-3/b3efa5aa79561967f2a1346927635c3d7bfec8a2_ligand_9.pdbqt
 14 15 0 0 0
SMALL
GASTEIGER

@<TRIPOS>ATOM
      1  C          5.3320    2.8750    0.0340 C.3     1  UNL1        0.0800
      2  C          6.2610    3.7710    0.7780 C.2     1  UNL1        0.1300
      3  C          6.5820    3.5450    2.2120 C.3     1  UNL1        0.0870
      4  O          6.7880    4.7230    0.2270 O.2     1  UNL1       -0.3000
      5  C          5.1370    1.5590    0.7610 C.3     1  UNL1        0.0430
      6  C          5.9890    0.4940    0.2030 C.2     1  UNL1       -0.0440
      7  C          6.3780    0.4960   -1.1420 C.2     1  UNL1        0.0080
      8  C          6.4210   -0.5300    1.0140 C.2     1  UNL1        0.0540
      9  C          7.1800   -0.5290   -1.6100 C.2     1  UNL1        0.0510
     10  C          7.2310   -1.5640    0.5360 C.2     1  UNL1        0.1660
     11  C          7.6140   -1.5630   -0.7870 C.2     1  UNL1        0.1650
     12  O          7.7820   -2.6780    1.1320 O.2     1  UNL1       -0.4540
     13  O          8.4010   -2.6880   -0.9770 O.2     1  UNL1       -0.4540
     14  C          8.6080   -3.3740    0.2340 C.3     1  UNL1        0.4680
@<TRIPOS>BOND
     1     9     7    1
     2     9    11    2
     3     7     6    2
     4    13    11    1
     5    13    14    1
     6    11    10    1
     7     1     5    1
     8     1     2    1
     9     6     5    1
    10     6     8    1
    11     4     2    2
    12    14    12    1
    13    10     8    2
    14    10    12    1
    15     2     3    1
