@<TRIPOS>MOLECULE
/home/cewinharhar/GITHUB/reincatalyze/data/processed/docking_pred/2023-May-22-1902_sub9_nm5_bs15_s42_ex16_mel10_mts1000_k50_ec02_g099_lra9e-4_lrc1e-3/b58c38953477011b0b30fd8623da0ee842eab33b_ligand_9.pdbqt
 14 15 0 0 0
SMALL
GASTEIGER

@<TRIPOS>ATOM
      1  C          5.4820    2.8940    0.2100 C.3     1  UNL1        0.0800
      2  C          6.2900    3.8720    0.9910 C.2     1  UNL1        0.1300
      3  C          7.2720    4.7750    0.3340 C.3     1  UNL1        0.0870
      4  O          6.1680    3.9590    2.2030 O.2     1  UNL1       -0.3000
      5  C          5.3340    1.5820    0.9560 C.3     1  UNL1        0.0430
      6  C          6.1120    0.5030    0.3220 C.2     1  UNL1       -0.0440
      7  C          6.4010    0.5140   -1.0470 C.2     1  UNL1        0.0080
      8  C          6.5720   -0.5450    1.0860 C.2     1  UNL1        0.0540
      9  C          7.1360   -0.5260   -1.5870 C.2     1  UNL1        0.0510
     10  C          7.3150   -1.5940    0.5360 C.2     1  UNL1        0.1660
     11  C          7.5990   -1.5840   -0.8110 C.2     1  UNL1        0.1650
     12  O          7.8760   -2.7320    1.0760 O.2     1  UNL1       -0.4540
     13  O          8.3370   -2.7280   -1.0730 O.2     1  UNL1       -0.4540
     14  C          8.6130   -3.4370    0.1110 C.3     1  UNL1        0.4680
@<TRIPOS>BOND
     1     9     7    1
     2     9    11    2
     3    13    11    1
     4    13    14    1
     5     7     6    2
     6    11    10    1
     7    14    12    1
     8     1     5    1
     9     1     2    1
    10     6     5    1
    11     6     8    1
    12     3     2    1
    13    10    12    1
    14    10     8    2
    15     2     4    2
