@<TRIPOS>MOLECULE
/home/cewinharhar/GITHUB/reincatalyze/data/processed/docking_pred/2023-May-22-1902_sub9_nm5_bs15_s42_ex16_mel10_mts1000_k50_ec02_g099_lra9e-4_lrc1e-3/b58c38953477011b0b30fd8623da0ee842eab33b_ligand_9.pdbqt
 14 15 0 0 0
SMALL
GASTEIGER

@<TRIPOS>ATOM
      1  C          5.5300    1.9250    1.2740 C.3     1  UNL1        0.0800
      2  C          5.0850    0.7070    2.0080 C.2     1  UNL1        0.1300
      3  C          5.9750   -0.4730    2.1740 C.3     1  UNL1        0.0870
      4  O          3.9690    0.6430    2.4980 O.2     1  UNL1       -0.3000
      5  C          5.4010    1.7410   -0.2250 C.3     1  UNL1        0.0430
      6  C          6.5670    1.0390   -0.7910 C.2     1  UNL1       -0.0440
      7  C          7.8740    1.4750   -0.5490 C.2     1  UNL1        0.0080
      8  C          6.3770   -0.0750   -1.5770 C.2     1  UNL1        0.0540
      9  C          8.9290    0.7760   -1.1060 C.2     1  UNL1        0.0510
     10  C          7.4470   -0.7790   -2.1380 C.2     1  UNL1        0.1660
     11  C          8.7340   -0.3490   -1.9000 C.2     1  UNL1        0.1650
     12  O          7.5180   -1.8970   -2.9410 O.2     1  UNL1       -0.4540
     13  O          9.5770   -1.2220   -2.5690 O.2     1  UNL1       -0.4540
     14  C          8.8530   -2.2710   -3.1670 C.3     1  UNL1        0.4680
@<TRIPOS>BOND
     1    14    12    1
     2    14    13    1
     3    12    10    1
     4    13    11    1
     5    10    11    2
     6    10     8    1
     7    11     9    1
     8     8     6    2
     9     9     7    2
    10     6     7    1
    11     6     5    1
    12     5     1    1
    13     1     2    1
    14     2     3    1
    15     2     4    2
