@<TRIPOS>MOLECULE
/home/cewinharhar/GITHUB/reincatalyze/data/processed/docking_pred/2023-May-22-1902_sub9_nm5_bs15_s42_ex16_mel10_mts1000_k50_ec02_g099_lra9e-4_lrc1e-3/b590df4aad401e291154b1741be08749940afe84_ligand_9.pdbqt
 14 15 0 0 0
SMALL
GASTEIGER

@<TRIPOS>ATOM
      1  C          5.3100    2.3730    0.8820 C.3     1  UNL1        0.0800
      2  C          6.2180    3.5100    1.2030 C.2     1  UNL1        0.1300
      3  C          6.8840    4.3020    0.1350 C.3     1  UNL1        0.0870
      4  O          6.4430    3.8250    2.3600 O.2     1  UNL1       -0.3000
      5  C          5.4520    1.9460   -0.5650 C.3     1  UNL1        0.0430
      6  C          6.2240    0.6970   -0.6940 C.2     1  UNL1       -0.0440
      7  C          6.7290    0.2710   -1.9280 C.2     1  UNL1        0.0080
      8  C          6.4620   -0.0750    0.4200 C.2     1  UNL1        0.0540
      9  C          7.4470   -0.9090   -1.9880 C.2     1  UNL1        0.0510
     10  C          7.1900   -1.2670    0.3540 C.2     1  UNL1        0.1660
     11  C          7.6850   -1.6880   -0.8600 C.2     1  UNL1        0.1650
     12  O          7.5550   -2.1990    1.3030 O.2     1  UNL1       -0.4540
     13  O          8.3530   -2.8800   -0.6280 O.2     1  UNL1       -0.4540
     14  C          8.3730   -3.1940    0.7440 C.3     1  UNL1        0.4680
@<TRIPOS>BOND
     1     9     7    1
     2     9    11    2
     3     7     6    2
     4    11    13    1
     5    11    10    1
     6     6     5    1
     7     6     8    1
     8    13    14    1
     9     5     1    1
    10     3     2    1
    11    10     8    2
    12    10    12    1
    13    14    12    1
    14     1     2    1
    15     2     4    2
