@<TRIPOS>MOLECULE
/home/cewinharhar/GITHUB/reincatalyze/data/processed/docking_pred/2023-May-22-1902_sub9_nm5_bs15_s42_ex16_mel10_mts1000_k50_ec02_g099_lra9e-4_lrc1e-3/b590df4aad401e291154b1741be08749940afe84_ligand_9.pdbqt
 14 15 0 0 0
SMALL
GASTEIGER

@<TRIPOS>ATOM
      1  C          5.4460    2.9190    0.2670 C.3     1  UNL1        0.0800
      2  C          6.2620    3.8720    1.0690 C.2     1  UNL1        0.1300
      3  C          7.2580    4.7750    0.4320 C.3     1  UNL1        0.0870
      4  O          6.1360    3.9400    2.2810 O.2     1  UNL1       -0.3000
      5  C          5.7140    1.4840    0.6780 C.3     1  UNL1        0.0430
      6  C          6.7450    0.8570   -0.1680 C.2     1  UNL1       -0.0440
      7  C          8.0220    1.4140   -0.3020 C.2     1  UNL1        0.0080
      8  C          6.4560   -0.3050   -0.8470 C.2     1  UNL1        0.0540
      9  C          8.9490    0.7810   -1.1090 C.2     1  UNL1        0.0510
     10  C          7.3970   -0.9420   -1.6610 C.2     1  UNL1        0.1660
     11  C          8.6540   -0.3940   -1.7940 C.2     1  UNL1        0.1650
     12  O          7.3550   -2.0870   -2.4280 O.2     1  UNL1       -0.4540
     13  O          9.3650   -1.2240   -2.6470 O.2     1  UNL1       -0.4540
     14  C          8.6090   -2.3570   -3.0000 C.3     1  UNL1        0.4680
@<TRIPOS>BOND
     1    14    13    1
     2    14    12    1
     3    13    11    1
     4    12    10    1
     5    11    10    2
     6    11     9    1
     7    10     8    1
     8     9     7    2
     9     8     6    2
    10     7     6    1
    11     6     5    1
    12     1     5    1
    13     1     2    1
    14     3     2    1
    15     2     4    2
