@<TRIPOS>MOLECULE
/home/cewinharhar/GITHUB/reincatalyze/data/processed/docking_pred/2023-May-22-1902_sub9_nm5_bs15_s42_ex16_mel10_mts1000_k50_ec02_g099_lra9e-4_lrc1e-3/b5f7d4a2d914252a6bbd971338c7ac1ea6a3e46f_ligand_9.pdbqt
 14 15 0 0 0
SMALL
GASTEIGER

@<TRIPOS>ATOM
      1  C          5.5330    1.9320    1.2600 C.3     1  UNL1        0.0800
      2  C          5.1120    0.7120    2.0030 C.2     1  UNL1        0.1300
      3  C          6.0270   -0.4470    2.1850 C.3     1  UNL1        0.0870
      4  O          3.9950    0.6270    2.4870 O.2     1  UNL1       -0.3000
      5  C          5.4070    1.7350   -0.2380 C.3     1  UNL1        0.0430
      6  C          6.5730    1.0270   -0.7970 C.2     1  UNL1       -0.0440
      7  C          7.8810    1.4490   -0.5350 C.2     1  UNL1        0.0080
      8  C          6.3820   -0.0780   -1.5940 C.2     1  UNL1        0.0540
      9  C          8.9360    0.7450   -1.0850 C.2     1  UNL1        0.0510
     10  C          7.4520   -0.7870   -2.1480 C.2     1  UNL1        0.1660
     11  C          8.7400   -0.3720   -1.8920 C.2     1  UNL1        0.1650
     12  O          7.5220   -1.8990   -2.9610 O.2     1  UNL1       -0.4540
     13  O          9.5830   -1.2470   -2.5590 O.2     1  UNL1       -0.4540
     14  C          8.8560   -2.2840   -3.1740 C.3     1  UNL1        0.4680
@<TRIPOS>BOND
     1    14    12    1
     2    14    13    1
     3    12    10    1
     4    13    11    1
     5    10    11    2
     6    10     8    1
     7    11     9    1
     8     8     6    2
     9     9     7    2
    10     6     7    1
    11     6     5    1
    12     5     1    1
    13     1     2    1
    14     2     3    1
    15     2     4    2
