@<TRIPOS>MOLECULE
/home/cewinharhar/GITHUB/reincatalyze/data/processed/docking_pred/2023-May-22-1902_sub9_nm5_bs15_s42_ex16_mel10_mts1000_k50_ec02_g099_lra9e-4_lrc1e-3/b5f7d4a2d914252a6bbd971338c7ac1ea6a3e46f_ligand_9.pdbqt
 14 15 0 0 0
SMALL
GASTEIGER

@<TRIPOS>ATOM
      1  C          5.7310    1.3110   -0.3090 C.3     1  UNL1        0.0800
      2  C          5.1550    1.2800    1.0640 C.2     1  UNL1        0.1300
      3  C          5.3290    0.1040    1.9580 C.3     1  UNL1        0.0870
      4  O          4.5190    2.2270    1.4980 O.2     1  UNL1       -0.3000
      5  C          7.2320    1.0980   -0.2820 C.3     1  UNL1        0.0430
      6  C          7.6120   -0.1940   -0.8810 C.2     1  UNL1       -0.0440
      7  C          7.6980   -0.3620   -2.2680 C.2     1  UNL1        0.0080
      8  C          7.8930   -1.2670   -0.0660 C.2     1  UNL1        0.0540
      9  C          8.0610   -1.5970   -2.7720 C.2     1  UNL1        0.0510
     10  C          8.2590   -2.5140   -0.5810 C.2     1  UNL1        0.1660
     11  C          8.3440   -2.6800   -1.9460 C.2     1  UNL1        0.1650
     12  O          8.5820   -3.7170    0.0100 O.2     1  UNL1       -0.4540
     13  O          8.7220   -3.9950   -2.1660 O.2     1  UNL1       -0.4540
     14  C          8.9720   -4.6630   -0.9520 C.3     1  UNL1        0.4680
@<TRIPOS>BOND
     1     9     7    1
     2     9    11    2
     3     7     6    2
     4    13    11    1
     5    13    14    1
     6    11    10    1
     7    14    12    1
     8     6     5    1
     9     6     8    1
    10    10     8    2
    11    10    12    1
    12     1     5    1
    13     1     2    1
    14     2     4    2
    15     2     3    1
