@<TRIPOS>MOLECULE
/home/cewinharhar/GITHUB/reincatalyze/data/processed/docking_pred/2023-May-22-1902_sub9_nm5_bs15_s42_ex16_mel10_mts1000_k50_ec02_g099_lra9e-4_lrc1e-3/b5f7d4a2d914252a6bbd971338c7ac1ea6a3e46f_ligand_9.pdbqt
 14 15 0 0 0
SMALL
GASTEIGER

@<TRIPOS>ATOM
      1  C          6.3710    0.9730    1.1260 C.3     1  UNL1        0.0800
      2  C          5.1350    1.7790    0.9240 C.2     1  UNL1        0.1300
      3  C          4.9190    2.5820   -0.3090 C.3     1  UNL1        0.0870
      4  O          4.2570    1.8030    1.7710 O.2     1  UNL1       -0.3000
      5  C          7.3310    1.1360   -0.0360 C.3     1  UNL1        0.0430
      6  C          7.6310   -0.1540   -0.6820 C.2     1  UNL1       -0.0440
      7  C          7.5760   -0.3080   -2.0720 C.2     1  UNL1        0.0080
      8  C          7.9770   -1.2400    0.0900 C.2     1  UNL1        0.0540
      9  C          7.8690   -1.5430   -2.6220 C.2     1  UNL1        0.0510
     10  C          8.2730   -2.4860   -0.4710 C.2     1  UNL1        0.1660
     11  C          8.2180   -2.6380   -1.8380 C.2     1  UNL1        0.1650
     12  O          8.6360   -3.6990    0.0740 O.2     1  UNL1       -0.4540
     13  O          8.5540   -3.9560   -2.1080 O.2     1  UNL1       -0.4540
     14  C          8.9140   -4.6400   -0.9320 C.3     1  UNL1        0.4680
@<TRIPOS>BOND
     1     9     7    1
     2     9    11    2
     3    13    11    1
     4    13    14    1
     5     7     6    2
     6    11    10    1
     7    14    12    1
     8     6     5    1
     9     6     8    1
    10    10    12    1
    11    10     8    2
    12     3     2    1
    13     5     1    1
    14     2     1    1
    15     2     4    2
