MODEL 1
REMARK VINA RESULT:      -7.9      0.000      0.000
REMARK SMILES CC(=O)CCc1ccc2c(c1)OCO2
REMARK SMILES IDX 4 1 2 2 1 3 3 4 5 5 6 6 7 7 11 8 8 9 10 10 9 11 12 12 14 13
REMARK SMILES IDX 13 14
REMARK H PARENT
REMARK Flexibility Score: inf
ROOT
ATOM      1  C   UNL     1       5.448   2.917   0.072  1.00  0.00     0.080 C 
ENDROOT
BRANCH   1   2
ATOM      2  C   UNL     1       6.278   3.817   0.920  1.00  0.00     0.130 C 
ATOM      3  C   UNL     1       7.250   4.773   0.326  1.00  0.00     0.087 C 
ATOM      4  O   UNL     1       6.183   3.796   2.137  1.00  0.00    -0.300 OA
ENDBRANCH   1   2
BRANCH   1   5
ATOM      5  C   UNL     1       5.160   1.607   0.777  1.00  0.00     0.043 C 
BRANCH   5   6
ATOM      6  C   UNL     1       5.992   0.509   0.251  1.00  0.00    -0.044 A 
ATOM      7  C   UNL     1       6.289  -0.620   1.023  1.00  0.00     0.008 A 
ATOM      8  C   UNL     1       6.492   0.585  -1.029  1.00  0.00     0.054 A 
ATOM      9  C   UNL     1       7.073  -1.619   0.476  1.00  0.00     0.051 A 
ATOM     10  C   UNL     1       7.284  -0.428  -1.577  1.00  0.00     0.166 A 
ATOM     11  C   UNL     1       7.578  -1.539  -0.818  1.00  0.00     0.165 A 
ATOM     12  O   UNL     1       7.892  -0.585  -2.805  1.00  0.00    -0.454 OA
ATOM     13  O   UNL     1       8.367  -2.364  -1.604  1.00  0.00    -0.454 OA
ATOM     14  C   UNL     1       8.515  -1.840  -2.902  1.00  0.00     0.468 C 
ENDBRANCH   5   6
ENDBRANCH   1   5
TORSDOF 3
ENDMDL
MODEL 2
REMARK VINA RESULT:      -7.7      1.884      2.623
REMARK SMILES CC(=O)CCc1ccc2c(c1)OCO2
REMARK SMILES IDX 4 1 2 2 1 3 3 4 5 5 6 6 7 7 11 8 8 9 10 10 9 11 12 12 14 13
REMARK SMILES IDX 13 14
REMARK H PARENT
REMARK Flexibility Score: inf
ROOT
ATOM      1  C   UNL     1       5.533   1.932   1.260  1.00  0.00     0.080 C 
ENDROOT
BRANCH   1   2
ATOM      2  C   UNL     1       5.112   0.712   2.003  1.00  0.00     0.130 C 
ATOM      3  C   UNL     1       6.027  -0.447   2.185  1.00  0.00     0.087 C 
ATOM      4  O   UNL     1       3.995   0.627   2.487  1.00  0.00    -0.300 OA
ENDBRANCH   1   2
BRANCH   1   5
ATOM      5  C   UNL     1       5.407   1.735  -0.238  1.00  0.00     0.043 C 
BRANCH   5   6
ATOM      6  C   UNL     1       6.573   1.027  -0.797  1.00  0.00    -0.044 A 
ATOM      7  C   UNL     1       7.881   1.449  -0.535  1.00  0.00     0.008 A 
ATOM      8  C   UNL     1       6.382  -0.078  -1.594  1.00  0.00     0.054 A 
ATOM      9  C   UNL     1       8.936   0.745  -1.085  1.00  0.00     0.051 A 
ATOM     10  C   UNL     1       7.452  -0.787  -2.148  1.00  0.00     0.166 A 
ATOM     11  C   UNL     1       8.740  -0.372  -1.892  1.00  0.00     0.165 A 
ATOM     12  O   UNL     1       7.522  -1.899  -2.961  1.00  0.00    -0.454 OA
ATOM     13  O   UNL     1       9.583  -1.247  -2.559  1.00  0.00    -0.454 OA
ATOM     14  C   UNL     1       8.856  -2.284  -3.174  1.00  0.00     0.468 C 
ENDBRANCH   5   6
ENDBRANCH   1   5
TORSDOF 3
ENDMDL
MODEL 3
REMARK VINA RESULT:      -7.5      1.955      3.022
REMARK SMILES CC(=O)CCc1ccc2c(c1)OCO2
REMARK SMILES IDX 4 1 2 2 1 3 3 4 5 5 6 6 7 7 11 8 8 9 10 10 9 11 12 12 14 13
REMARK SMILES IDX 13 14
REMARK H PARENT
REMARK Flexibility Score: inf
ROOT
ATOM      1  C   UNL     1       5.731   1.311  -0.309  1.00  0.00     0.080 C 
ENDROOT
BRANCH   1   2
ATOM      2  C   UNL     1       5.155   1.280   1.064  1.00  0.00     0.130 C 
ATOM      3  C   UNL     1       5.329   0.104   1.958  1.00  0.00     0.087 C 
ATOM      4  O   UNL     1       4.519   2.227   1.498  1.00  0.00    -0.300 OA
ENDBRANCH   1   2
BRANCH   1   5
ATOM      5  C   UNL     1       7.232   1.098  -0.282  1.00  0.00     0.043 C 
BRANCH   5   6
ATOM      6  C   UNL     1       7.612  -0.194  -0.881  1.00  0.00    -0.044 A 
ATOM      7  C   UNL     1       7.698  -0.362  -2.268  1.00  0.00     0.008 A 
ATOM      8  C   UNL     1       7.893  -1.267  -0.066  1.00  0.00     0.054 A 
ATOM      9  C   UNL     1       8.061  -1.597  -2.772  1.00  0.00     0.051 A 
ATOM     10  C   UNL     1       8.259  -2.514  -0.581  1.00  0.00     0.166 A 
ATOM     11  C   UNL     1       8.344  -2.680  -1.946  1.00  0.00     0.165 A 
ATOM     12  O   UNL     1       8.582  -3.717   0.010  1.00  0.00    -0.454 OA
ATOM     13  O   UNL     1       8.722  -3.995  -2.166  1.00  0.00    -0.454 OA
ATOM     14  C   UNL     1       8.972  -4.663  -0.952  1.00  0.00     0.468 C 
ENDBRANCH   5   6
ENDBRANCH   1   5
TORSDOF 3
ENDMDL
MODEL 4
REMARK VINA RESULT:      -7.4      1.848      2.802
REMARK SMILES CC(=O)CCc1ccc2c(c1)OCO2
REMARK SMILES IDX 4 1 2 2 1 3 3 4 5 5 6 6 7 7 11 8 8 9 10 10 9 11 12 12 14 13
REMARK SMILES IDX 13 14
REMARK H PARENT
REMARK Flexibility Score: inf
ROOT
ATOM      1  C   UNL     1       6.371   0.973   1.126  1.00  0.00     0.080 C 
ENDROOT
BRANCH   1   2
ATOM      2  C   UNL     1       5.135   1.779   0.924  1.00  0.00     0.130 C 
ATOM      3  C   UNL     1       4.919   2.582  -0.309  1.00  0.00     0.087 C 
ATOM      4  O   UNL     1       4.257   1.803   1.771  1.00  0.00    -0.300 OA
ENDBRANCH   1   2
BRANCH   1   5
ATOM      5  C   UNL     1       7.331   1.136  -0.036  1.00  0.00     0.043 C 
BRANCH   5   6
ATOM      6  C   UNL     1       7.631  -0.154  -0.682  1.00  0.00    -0.044 A 
ATOM      7  C   UNL     1       7.576  -0.308  -2.072  1.00  0.00     0.008 A 
ATOM      8  C   UNL     1       7.977  -1.240   0.090  1.00  0.00     0.054 A 
ATOM      9  C   UNL     1       7.869  -1.543  -2.622  1.00  0.00     0.051 A 
ATOM     10  C   UNL     1       8.273  -2.486  -0.471  1.00  0.00     0.166 A 
ATOM     11  C   UNL     1       8.218  -2.638  -1.838  1.00  0.00     0.165 A 
ATOM     12  O   UNL     1       8.636  -3.699   0.074  1.00  0.00    -0.454 OA
ATOM     13  O   UNL     1       8.554  -3.956  -2.108  1.00  0.00    -0.454 OA
ATOM     14  C   UNL     1       8.914  -4.640  -0.932  1.00  0.00     0.468 C 
ENDBRANCH   5   6
ENDBRANCH   1   5
TORSDOF 3
ENDMDL
MODEL 5
REMARK VINA RESULT:      -7.4      0.988      1.818
REMARK SMILES CC(=O)CCc1ccc2c(c1)OCO2
REMARK SMILES IDX 4 1 2 2 1 3 3 4 5 5 6 6 7 7 11 8 8 9 10 10 9 11 12 12 14 13
REMARK SMILES IDX 13 14
REMARK H PARENT
REMARK Flexibility Score: inf
ROOT
ATOM      1  C   UNL     1       5.804   2.612   0.304  1.00  0.00     0.080 C 
ENDROOT
BRANCH   1   2
ATOM      2  C   UNL     1       6.307   3.834   0.992  1.00  0.00     0.130 C 
ATOM      3  C   UNL     1       7.246   4.775   0.326  1.00  0.00     0.087 C 
ATOM      4  O   UNL     1       5.959   4.099   2.132  1.00  0.00    -0.300 OA
ENDBRANCH   1   2
BRANCH   1   5
ATOM      5  C   UNL     1       6.288   1.353   0.996  1.00  0.00     0.043 C 
BRANCH   5   6
ATOM      6  C   UNL     1       6.725   0.331   0.028  1.00  0.00    -0.044 A 
ATOM      7  C   UNL     1       6.509   0.484  -1.347  1.00  0.00     0.008 A 
ATOM      8  C   UNL     1       7.363  -0.804   0.474  1.00  0.00     0.054 A 
ATOM      9  C   UNL     1       6.942  -0.508  -2.208  1.00  0.00     0.051 A 
ATOM     10  C   UNL     1       7.799  -1.803  -0.401  1.00  0.00     0.166 A 
ATOM     11  C   UNL     1       7.586  -1.654  -1.753  1.00  0.00     0.165 A 
ATOM     12  O   UNL     1       8.446  -3.005  -0.207  1.00  0.00    -0.454 OA
ATOM     13  O   UNL     1       8.114  -2.778  -2.368  1.00  0.00    -0.454 OA
ATOM     14  C   UNL     1       8.749  -3.618  -1.433  1.00  0.00     0.468 C 
ENDBRANCH   5   6
ENDBRANCH   1   5
TORSDOF 3
ENDMDL
