@<TRIPOS>MOLECULE
/home/cewinharhar/GITHUB/reincatalyze/data/processed/docking_pred/2023-May-22-1902_sub9_nm5_bs15_s42_ex16_mel10_mts1000_k50_ec02_g099_lra9e-4_lrc1e-3/b5f7d4a2d914252a6bbd971338c7ac1ea6a3e46f_ligand_9.pdbqt
 14 15 0 0 0
SMALL
GASTEIGER

@<TRIPOS>ATOM
      1  C          5.8040    2.6120    0.3040 C.3     1  UNL1        0.0800
      2  C          6.3070    3.8340    0.9920 C.2     1  UNL1        0.1300
      3  C          7.2460    4.7750    0.3260 C.3     1  UNL1        0.0870
      4  O          5.9590    4.0990    2.1320 O.2     1  UNL1       -0.3000
      5  C          6.2880    1.3530    0.9960 C.3     1  UNL1        0.0430
      6  C          6.7250    0.3310    0.0280 C.2     1  UNL1       -0.0440
      7  C          6.5090    0.4840   -1.3470 C.2     1  UNL1        0.0080
      8  C          7.3630   -0.8040    0.4740 C.2     1  UNL1        0.0540
      9  C          6.9420   -0.5080   -2.2080 C.2     1  UNL1        0.0510
     10  C          7.7990   -1.8030   -0.4010 C.2     1  UNL1        0.1660
     11  C          7.5860   -1.6540   -1.7530 C.2     1  UNL1        0.1650
     12  O          8.4460   -3.0050   -0.2070 O.2     1  UNL1       -0.4540
     13  O          8.1140   -2.7780   -2.3680 O.2     1  UNL1       -0.4540
     14  C          8.7490   -3.6180   -1.4330 C.3     1  UNL1        0.4680
@<TRIPOS>BOND
     1    13    11    1
     2    13    14    1
     3     9    11    2
     4     9     7    1
     5    11    10    1
     6    14    12    1
     7     7     6    2
     8    10    12    1
     9    10     8    2
    10     6     8    1
    11     6     5    1
    12     1     2    1
    13     1     5    1
    14     3     2    1
    15     2     4    2
