@<TRIPOS>MOLECULE
/home/cewinharhar/GITHUB/reincatalyze/data/processed/docking_pred/2023-May-22-1902_sub9_nm5_bs15_s42_ex16_mel10_mts1000_k50_ec02_g099_lra9e-4_lrc1e-3/b5f7d4a2d914252a6bbd971338c7ac1ea6a3e46f_ligand_9.pdbqt
 14 15 0 0 0
SMALL
GASTEIGER

@<TRIPOS>ATOM
      1  C          5.4480    2.9170    0.0720 C.3     1  UNL1        0.0800
      2  C          6.2780    3.8170    0.9200 C.2     1  UNL1        0.1300
      3  C          7.2500    4.7730    0.3260 C.3     1  UNL1        0.0870
      4  O          6.1830    3.7960    2.1370 O.2     1  UNL1       -0.3000
      5  C          5.1600    1.6070    0.7770 C.3     1  UNL1        0.0430
      6  C          5.9920    0.5090    0.2510 C.2     1  UNL1       -0.0440
      7  C          6.2890   -0.6200    1.0230 C.2     1  UNL1        0.0080
      8  C          6.4920    0.5850   -1.0290 C.2     1  UNL1        0.0540
      9  C          7.0730   -1.6190    0.4760 C.2     1  UNL1        0.0510
     10  C          7.2840   -0.4280   -1.5770 C.2     1  UNL1        0.1660
     11  C          7.5780   -1.5390   -0.8180 C.2     1  UNL1        0.1650
     12  O          7.8920   -0.5850   -2.8050 O.2     1  UNL1       -0.4540
     13  O          8.3670   -2.3640   -1.6040 O.2     1  UNL1       -0.4540
     14  C          8.5150   -1.8400   -2.9020 C.3     1  UNL1        0.4680
@<TRIPOS>BOND
     1    14    12    1
     2    14    13    1
     3    12    10    1
     4    13    11    1
     5    10     8    1
     6    10    11    2
     7     8     6    2
     8    11     9    1
     9     1     5    1
    10     1     2    1
    11     6     5    1
    12     6     7    1
    13     3     2    1
    14     9     7    2
    15     2     4    2
