@<TRIPOS>MOLECULE
/home/cewinharhar/GITHUB/reincatalyze/data/processed/docking_pred/2023-May-22-1902_sub9_nm5_bs15_s42_ex16_mel10_mts1000_k50_ec02_g099_lra9e-4_lrc1e-3/b658f69152bbaa0d4df6d0fc1d77222c9f34aa3c_ligand_9.pdbqt
 14 15 0 0 0
SMALL
GASTEIGER

@<TRIPOS>ATOM
      1  C          5.5000    1.9240    1.2780 C.3     1  UNL1        0.0800
      2  C          5.0390    0.7060    2.0020 C.2     1  UNL1        0.1300
      3  C          5.9000   -0.5010    2.1260 C.3     1  UNL1        0.0870
      4  O          3.9340    0.6630    2.5160 O.2     1  UNL1       -0.3000
      5  C          5.3830    1.7500   -0.2230 C.3     1  UNL1        0.0430
      6  C          6.5520    1.0490   -0.7850 C.2     1  UNL1       -0.0440
      7  C          7.8580    1.4830   -0.5300 C.2     1  UNL1        0.0080
      8  C          6.3670   -0.0600   -1.5770 C.2     1  UNL1        0.0540
      9  C          8.9170    0.7860   -1.0840 C.2     1  UNL1        0.0510
     10  C          7.4400   -0.7620   -2.1340 C.2     1  UNL1        0.1660
     11  C          8.7250   -0.3350   -1.8850 C.2     1  UNL1        0.1650
     12  O          7.5160   -1.8760   -2.9430 O.2     1  UNL1       -0.4540
     13  O          9.5730   -1.2060   -2.5530 O.2     1  UNL1       -0.4540
     14  C          8.8520   -2.2500   -3.1620 C.3     1  UNL1        0.4680
@<TRIPOS>BOND
     1    14    12    1
     2    14    13    1
     3    12    10    1
     4    13    11    1
     5    10    11    2
     6    10     8    1
     7    11     9    1
     8     8     6    2
     9     9     7    2
    10     6     7    1
    11     6     5    1
    12     5     1    1
    13     1     2    1
    14     2     3    1
    15     2     4    2
