@<TRIPOS>MOLECULE
/home/cewinharhar/GITHUB/reincatalyze/data/processed/docking_pred/2023-May-22-1902_sub9_nm5_bs15_s42_ex16_mel10_mts1000_k50_ec02_g099_lra9e-4_lrc1e-3/b658f69152bbaa0d4df6d0fc1d77222c9f34aa3c_ligand_9.pdbqt
 14 15 0 0 0
SMALL
GASTEIGER

@<TRIPOS>ATOM
      1  C          5.3970    2.8540    0.1870 C.3     1  UNL1        0.0800
      2  C          6.2770    3.7430    0.9970 C.2     1  UNL1        0.1300
      3  C          7.1400    4.7750    0.3630 C.3     1  UNL1        0.0870
      4  O          6.3140    3.6480    2.2130 O.2     1  UNL1       -0.3000
      5  C          5.6140    1.3960    0.5390 C.3     1  UNL1        0.0430
      6  C          6.6970    0.7960   -0.2610 C.2     1  UNL1       -0.0440
      7  C          7.9610    1.3910   -0.3480 C.2     1  UNL1        0.0080
      8  C          6.4720   -0.3790   -0.9420 C.2     1  UNL1        0.0540
      9  C          8.9380    0.7820   -1.1130 C.2     1  UNL1        0.0510
     10  C          7.4640   -0.9910   -1.7140 C.2     1  UNL1        0.1660
     11  C          8.7070   -0.4050   -1.8000 C.2     1  UNL1        0.1650
     12  O          7.4870   -2.1420   -2.4730 O.2     1  UNL1       -0.4540
     13  O          9.4760   -1.2170   -2.6190 O.2     1  UNL1       -0.4540
     14  C          8.7700   -2.3760   -2.9940 C.3     1  UNL1        0.4680
@<TRIPOS>BOND
     1    14    13    1
     2    14    12    1
     3    13    11    1
     4    12    10    1
     5    11    10    2
     6    11     9    1
     7    10     8    1
     8     9     7    2
     9     8     6    2
    10     7     6    1
    11     6     5    1
    12     1     5    1
    13     1     2    1
    14     3     2    1
    15     2     4    2
