@<TRIPOS>MOLECULE
/home/cewinharhar/GITHUB/reincatalyze/data/processed/docking_pred/2023-May-22-1902_sub9_nm5_bs15_s42_ex16_mel10_mts1000_k50_ec02_g099_lra9e-4_lrc1e-3/b8d8050f43b71ccf975db7ed0a80e234855f027b_ligand_9.pdbqt
 14 15 0 0 0
SMALL
GASTEIGER

@<TRIPOS>ATOM
      1  C          5.7180    2.7880   -0.0140 C.3     1  UNL1        0.0800
      2  C          6.3570    3.7890    0.8850 C.2     1  UNL1        0.1300
      3  C          7.3480    4.7740    0.3760 C.3     1  UNL1        0.0870
      4  O          6.0820    3.8290    2.0730 O.2     1  UNL1       -0.3000
      5  C          4.9510    1.7470    0.7770 C.3     1  UNL1        0.0430
      6  C          5.7260    0.5050    0.9410 C.2     1  UNL1       -0.0440
      7  C          5.7210   -0.2090    2.1450 C.2     1  UNL1        0.0080
      8  C          6.4750    0.0240   -0.1090 C.2     1  UNL1        0.0540
      9  C          6.4670   -1.3700    2.2410 C.2     1  UNL1        0.0510
     10  C          7.2270   -1.1500   -0.0070 C.2     1  UNL1        0.1660
     11  C          7.2230   -1.8520    1.1770 C.2     1  UNL1        0.1650
     12  O          8.0410   -1.8240   -0.8930 O.2     1  UNL1       -0.4540
     13  O          8.0430   -2.9550    0.9920 O.2     1  UNL1       -0.4540
     14  C          8.5090   -3.0240   -0.3340 C.3     1  UNL1        0.4680
@<TRIPOS>BOND
     1    12    14    1
     2    12    10    1
     3    14    13    1
     4     8    10    1
     5     8     6    2
     6     1     5    1
     7     1     2    1
     8    10    11    2
     9     3     2    1
    10     5     6    1
    11     2     4    2
    12     6     7    1
    13    13    11    1
    14    11     9    1
    15     7     9    2
