MODEL 1
REMARK VINA RESULT:      -7.9      0.000      0.000
REMARK SMILES CC(=O)CCc1ccc2c(c1)OCO2
REMARK SMILES IDX 4 1 2 2 1 3 3 4 5 5 6 6 7 7 11 8 8 9 10 10 9 11 12 12 14 13
REMARK SMILES IDX 13 14
REMARK H PARENT
REMARK Flexibility Score: inf
ROOT
ATOM      1  C   UNL     1       5.457   2.922   0.132  1.00  0.00     0.080 C 
ENDROOT
BRANCH   1   2
ATOM      2  C   UNL     1       6.264   3.814   1.010  1.00  0.00     0.130 C 
ATOM      3  C   UNL     1       7.252   4.775   0.451  1.00  0.00     0.087 C 
ATOM      4  O   UNL     1       6.136   3.781   2.224  1.00  0.00    -0.300 OA
ENDBRANCH   1   2
BRANCH   1   5
ATOM      5  C   UNL     1       5.157   1.602   0.814  1.00  0.00     0.043 C 
BRANCH   5   6
ATOM      6  C   UNL     1       5.990   0.509   0.281  1.00  0.00    -0.044 A 
ATOM      7  C   UNL     1       6.322  -0.606   1.059  1.00  0.00     0.008 A 
ATOM      8  C   UNL     1       6.457   0.576  -1.012  1.00  0.00     0.054 A 
ATOM      9  C   UNL     1       7.107  -1.601   0.505  1.00  0.00     0.051 A 
ATOM     10  C   UNL     1       7.249  -0.433  -1.568  1.00  0.00     0.166 A 
ATOM     11  C   UNL     1       7.577  -1.531  -0.803  1.00  0.00     0.165 A 
ATOM     12  O   UNL     1       7.828  -0.597  -2.808  1.00  0.00    -0.454 OA
ATOM     13  O   UNL     1       8.357  -2.355  -1.598  1.00  0.00    -0.454 OA
ATOM     14  C   UNL     1       8.466  -1.845  -2.906  1.00  0.00     0.468 C 
ENDBRANCH   5   6
ENDBRANCH   1   5
TORSDOF 3
ENDMDL
MODEL 2
REMARK VINA RESULT:      -7.8      1.001      1.989
REMARK SMILES CC(=O)CCc1ccc2c(c1)OCO2
REMARK SMILES IDX 4 1 2 2 1 3 3 4 5 5 6 6 7 7 11 8 8 9 10 10 9 11 12 12 14 13
REMARK SMILES IDX 13 14
REMARK H PARENT
REMARK Flexibility Score: inf
ROOT
ATOM      1  C   UNL     1       5.464   2.958   0.151  1.00  0.00     0.080 C 
ENDROOT
BRANCH   1   2
ATOM      2  C   UNL     1       6.302   3.870   0.978  1.00  0.00     0.130 C 
ATOM      3  C   UNL     1       7.311   4.774   0.364  1.00  0.00     0.087 C 
ATOM      4  O   UNL     1       6.184   3.901   2.192  1.00  0.00    -0.300 OA
ENDBRANCH   1   2
BRANCH   1   5
ATOM      5  C   UNL     1       5.225   1.638   0.857  1.00  0.00     0.043 C 
BRANCH   5   6
ATOM      6  C   UNL     1       6.035   0.553   0.275  1.00  0.00    -0.044 A 
ATOM      7  C   UNL     1       6.364   0.533  -1.085  1.00  0.00     0.008 A 
ATOM      8  C   UNL     1       6.486  -0.469   1.079  1.00  0.00     0.054 A 
ATOM      9  C   UNL     1       7.128  -0.511  -1.576  1.00  0.00     0.051 A 
ATOM     10  C   UNL     1       7.258  -1.522   0.579  1.00  0.00     0.166 A 
ATOM     11  C   UNL     1       7.581  -1.543  -0.760  1.00  0.00     0.165 A 
ATOM     12  O   UNL     1       7.817  -2.638   1.164  1.00  0.00    -0.454 OA
ATOM     13  O   UNL     1       8.341  -2.683  -0.970  1.00  0.00    -0.454 OA
ATOM     14  C   UNL     1       8.591  -3.358   0.239  1.00  0.00     0.468 C 
ENDBRANCH   5   6
ENDBRANCH   1   5
TORSDOF 3
ENDMDL
MODEL 3
REMARK VINA RESULT:      -7.7      1.876      2.618
REMARK SMILES CC(=O)CCc1ccc2c(c1)OCO2
REMARK SMILES IDX 4 1 2 2 1 3 3 4 5 5 6 6 7 7 11 8 8 9 10 10 9 11 12 12 14 13
REMARK SMILES IDX 13 14
REMARK H PARENT
REMARK Flexibility Score: inf
ROOT
ATOM      1  C   UNL     1       5.524   1.915   1.262  1.00  0.00     0.080 C 
ENDROOT
BRANCH   1   2
ATOM      2  C   UNL     1       5.078   0.703   2.004  1.00  0.00     0.130 C 
ATOM      3  C   UNL     1       5.965  -0.479   2.174  1.00  0.00     0.087 C 
ATOM      4  O   UNL     1       3.963   0.645   2.497  1.00  0.00    -0.300 OA
ENDBRANCH   1   2
BRANCH   1   5
ATOM      5  C   UNL     1       5.397   1.721  -0.236  1.00  0.00     0.043 C 
BRANCH   5   6
ATOM      6  C   UNL     1       6.565   1.020  -0.797  1.00  0.00    -0.044 A 
ATOM      7  C   UNL     1       7.872   1.454  -0.544  1.00  0.00     0.008 A 
ATOM      8  C   UNL     1       6.379  -0.091  -1.588  1.00  0.00     0.054 A 
ATOM      9  C   UNL     1       8.930   0.755  -1.097  1.00  0.00     0.051 A 
ATOM     10  C   UNL     1       7.452  -0.794  -2.144  1.00  0.00     0.166 A 
ATOM     11  C   UNL     1       8.738  -0.367  -1.897  1.00  0.00     0.165 A 
ATOM     12  O   UNL     1       7.527  -1.909  -2.952  1.00  0.00    -0.454 OA
ATOM     13  O   UNL     1       9.585  -1.239  -2.563  1.00  0.00    -0.454 OA
ATOM     14  C   UNL     1       8.863  -2.284  -3.170  1.00  0.00     0.468 C 
ENDBRANCH   5   6
ENDBRANCH   1   5
TORSDOF 3
ENDMDL
MODEL 4
REMARK VINA RESULT:      -7.6      1.138      1.551
REMARK SMILES CC(=O)CCc1ccc2c(c1)OCO2
REMARK SMILES IDX 4 1 2 2 1 3 3 4 5 5 6 6 7 7 11 8 8 9 10 10 9 11 12 12 14 13
REMARK SMILES IDX 13 14
REMARK H PARENT
REMARK Flexibility Score: inf
ROOT
ATOM      1  C   UNL     1       5.389   2.834   0.120  1.00  0.00     0.080 C 
ENDROOT
BRANCH   1   2
ATOM      2  C   UNL     1       6.245   3.709   0.969  1.00  0.00     0.130 C 
ATOM      3  C   UNL     1       7.098   4.775   0.380  1.00  0.00     0.087 C 
ATOM      4  O   UNL     1       6.270   3.575   2.182  1.00  0.00    -0.300 OA
ENDBRANCH   1   2
BRANCH   1   5
ATOM      5  C   UNL     1       5.595   1.370   0.456  1.00  0.00     0.043 C 
BRANCH   5   6
ATOM      6  C   UNL     1       6.704   0.783  -0.318  1.00  0.00    -0.044 A 
ATOM      7  C   UNL     1       7.967   1.385  -0.360  1.00  0.00     0.008 A 
ATOM      8  C   UNL     1       6.505  -0.385  -1.017  1.00  0.00     0.054 A 
ATOM      9  C   UNL     1       8.970   0.788  -1.102  1.00  0.00     0.051 A 
ATOM     10  C   UNL     1       7.522  -0.985  -1.765  1.00  0.00     0.166 A 
ATOM     11  C   UNL     1       8.765  -0.393  -1.808  1.00  0.00     0.165 A 
ATOM     12  O   UNL     1       7.574  -2.128  -2.535  1.00  0.00    -0.454 OA
ATOM     13  O   UNL     1       9.562  -1.193  -2.611  1.00  0.00    -0.454 OA
ATOM     14  C   UNL     1       8.873  -2.351  -3.019  1.00  0.00     0.468 C 
ENDBRANCH   5   6
ENDBRANCH   1   5
TORSDOF 3
ENDMDL
MODEL 5
REMARK VINA RESULT:      -7.6      1.250      1.570
REMARK SMILES CC(=O)CCc1ccc2c(c1)OCO2
REMARK SMILES IDX 4 1 2 2 1 3 3 4 5 5 6 6 7 7 11 8 8 9 10 10 9 11 12 12 14 13
REMARK SMILES IDX 13 14
REMARK H PARENT
REMARK Flexibility Score: inf
ROOT
ATOM      1  C   UNL     1       5.718   2.788  -0.014  1.00  0.00     0.080 C 
ENDROOT
BRANCH   1   2
ATOM      2  C   UNL     1       6.357   3.789   0.885  1.00  0.00     0.130 C 
ATOM      3  C   UNL     1       7.348   4.774   0.376  1.00  0.00     0.087 C 
ATOM      4  O   UNL     1       6.082   3.829   2.073  1.00  0.00    -0.300 OA
ENDBRANCH   1   2
BRANCH   1   5
ATOM      5  C   UNL     1       4.951   1.747   0.777  1.00  0.00     0.043 C 
BRANCH   5   6
ATOM      6  C   UNL     1       5.726   0.505   0.941  1.00  0.00    -0.044 A 
ATOM      7  C   UNL     1       5.721  -0.209   2.145  1.00  0.00     0.008 A 
ATOM      8  C   UNL     1       6.475   0.024  -0.109  1.00  0.00     0.054 A 
ATOM      9  C   UNL     1       6.467  -1.370   2.241  1.00  0.00     0.051 A 
ATOM     10  C   UNL     1       7.227  -1.150  -0.007  1.00  0.00     0.166 A 
ATOM     11  C   UNL     1       7.223  -1.852   1.177  1.00  0.00     0.165 A 
ATOM     12  O   UNL     1       8.041  -1.824  -0.893  1.00  0.00    -0.454 OA
ATOM     13  O   UNL     1       8.043  -2.955   0.992  1.00  0.00    -0.454 OA
ATOM     14  C   UNL     1       8.509  -3.024  -0.334  1.00  0.00     0.468 C 
ENDBRANCH   5   6
ENDBRANCH   1   5
TORSDOF 3
ENDMDL
