@<TRIPOS>MOLECULE
/home/cewinharhar/GITHUB/reincatalyze/data/processed/docking_pred/2023-May-22-1902_sub9_nm5_bs15_s42_ex16_mel10_mts1000_k50_ec02_g099_lra9e-4_lrc1e-3/b8d8050f43b71ccf975db7ed0a80e234855f027b_ligand_9.pdbqt
 14 15 0 0 0
SMALL
GASTEIGER

@<TRIPOS>ATOM
      1  C          5.4640    2.9580    0.1510 C.3     1  UNL1        0.0800
      2  C          6.3020    3.8700    0.9780 C.2     1  UNL1        0.1300
      3  C          7.3110    4.7740    0.3640 C.3     1  UNL1        0.0870
      4  O          6.1840    3.9010    2.1920 O.2     1  UNL1       -0.3000
      5  C          5.2250    1.6380    0.8570 C.3     1  UNL1        0.0430
      6  C          6.0350    0.5530    0.2750 C.2     1  UNL1       -0.0440
      7  C          6.3640    0.5330   -1.0850 C.2     1  UNL1        0.0080
      8  C          6.4860   -0.4690    1.0790 C.2     1  UNL1        0.0540
      9  C          7.1280   -0.5110   -1.5760 C.2     1  UNL1        0.0510
     10  C          7.2580   -1.5220    0.5790 C.2     1  UNL1        0.1660
     11  C          7.5810   -1.5430   -0.7600 C.2     1  UNL1        0.1650
     12  O          7.8170   -2.6380    1.1640 O.2     1  UNL1       -0.4540
     13  O          8.3410   -2.6830   -0.9700 O.2     1  UNL1       -0.4540
     14  C          8.5910   -3.3580    0.2390 C.3     1  UNL1        0.4680
@<TRIPOS>BOND
     1     9     7    1
     2     9    11    2
     3     7     6    2
     4    13    11    1
     5    13    14    1
     6    11    10    1
     7     1     5    1
     8     1     2    1
     9    14    12    1
    10     6     5    1
    11     6     8    1
    12     3     2    1
    13    10     8    2
    14    10    12    1
    15     2     4    2
