@<TRIPOS>MOLECULE
/home/cewinharhar/GITHUB/reincatalyze/data/processed/docking_pred/2023-May-22-1902_sub9_nm5_bs15_s42_ex16_mel10_mts1000_k50_ec02_g099_lra9e-4_lrc1e-3/b8d8050f43b71ccf975db7ed0a80e234855f027b_ligand_9.pdbqt
 14 15 0 0 0
SMALL
GASTEIGER

@<TRIPOS>ATOM
      1  C          5.4570    2.9220    0.1320 C.3     1  UNL1        0.0800
      2  C          6.2640    3.8140    1.0100 C.2     1  UNL1        0.1300
      3  C          7.2520    4.7750    0.4510 C.3     1  UNL1        0.0870
      4  O          6.1360    3.7810    2.2240 O.2     1  UNL1       -0.3000
      5  C          5.1570    1.6020    0.8140 C.3     1  UNL1        0.0430
      6  C          5.9900    0.5090    0.2810 C.2     1  UNL1       -0.0440
      7  C          6.3220   -0.6060    1.0590 C.2     1  UNL1        0.0080
      8  C          6.4570    0.5760   -1.0120 C.2     1  UNL1        0.0540
      9  C          7.1070   -1.6010    0.5050 C.2     1  UNL1        0.0510
     10  C          7.2490   -0.4330   -1.5680 C.2     1  UNL1        0.1660
     11  C          7.5770   -1.5310   -0.8030 C.2     1  UNL1        0.1650
     12  O          7.8280   -0.5970   -2.8080 O.2     1  UNL1       -0.4540
     13  O          8.3570   -2.3550   -1.5980 O.2     1  UNL1       -0.4540
     14  C          8.4660   -1.8450   -2.9060 C.3     1  UNL1        0.4680
@<TRIPOS>BOND
     1    14    12    1
     2    14    13    1
     3    12    10    1
     4    13    11    1
     5    10     8    1
     6    10    11    2
     7     8     6    2
     8    11     9    1
     9     1     5    1
    10     1     2    1
    11     6     5    1
    12     6     7    1
    13     3     2    1
    14     9     7    2
    15     2     4    2
