@<TRIPOS>MOLECULE
/home/cewinharhar/GITHUB/reincatalyze/data/processed/docking_pred/2023-May-22-1902_sub9_nm5_bs15_s42_ex16_mel10_mts1000_k50_ec02_g099_lra9e-4_lrc1e-3/b8d8050f43b71ccf975db7ed0a80e234855f027b_ligand_9.pdbqt
 14 15 0 0 0
SMALL
GASTEIGER

@<TRIPOS>ATOM
      1  C          5.3890    2.8340    0.1200 C.3     1  UNL1        0.0800
      2  C          6.2450    3.7090    0.9690 C.2     1  UNL1        0.1300
      3  C          7.0980    4.7750    0.3800 C.3     1  UNL1        0.0870
      4  O          6.2700    3.5750    2.1820 O.2     1  UNL1       -0.3000
      5  C          5.5950    1.3700    0.4560 C.3     1  UNL1        0.0430
      6  C          6.7040    0.7830   -0.3180 C.2     1  UNL1       -0.0440
      7  C          7.9670    1.3850   -0.3600 C.2     1  UNL1        0.0080
      8  C          6.5050   -0.3850   -1.0170 C.2     1  UNL1        0.0540
      9  C          8.9700    0.7880   -1.1020 C.2     1  UNL1        0.0510
     10  C          7.5220   -0.9850   -1.7650 C.2     1  UNL1        0.1660
     11  C          8.7650   -0.3930   -1.8080 C.2     1  UNL1        0.1650
     12  O          7.5740   -2.1280   -2.5350 O.2     1  UNL1       -0.4540
     13  O          9.5620   -1.1930   -2.6110 O.2     1  UNL1       -0.4540
     14  C          8.8730   -2.3510   -3.0190 C.3     1  UNL1        0.4680
@<TRIPOS>BOND
     1    14    13    1
     2    14    12    1
     3    13    11    1
     4    12    10    1
     5    11    10    2
     6    11     9    1
     7    10     8    1
     8     9     7    2
     9     8     6    2
    10     7     6    1
    11     6     5    1
    12     1     5    1
    13     1     2    1
    14     3     2    1
    15     2     4    2
