@<TRIPOS>MOLECULE
/home/cewinharhar/GITHUB/reincatalyze/data/processed/docking_pred/2023-May-22-1902_sub9_nm5_bs15_s42_ex16_mel10_mts1000_k50_ec02_g099_lra9e-4_lrc1e-3/b9a0748b4c4cb53be71f33acfe76cbadf25e0c0f_ligand_9.pdbqt
 14 15 0 0 0
SMALL
GASTEIGER

@<TRIPOS>ATOM
      1  C          5.4560    2.8500    0.0620 C.3     1  UNL1        0.0800
      2  C          6.2460    3.7550    0.9420 C.2     1  UNL1        0.1300
      3  C          7.1750    4.7730    0.3820 C.3     1  UNL1        0.0870
      4  O          6.1540    3.6860    2.1570 O.2     1  UNL1       -0.3000
      5  C          5.6540    1.3970    0.4460 C.3     1  UNL1        0.0430
      6  C          6.7360    0.7680   -0.3320 C.2     1  UNL1       -0.0440
      7  C          7.9990    1.3610   -0.4430 C.2     1  UNL1        0.0080
      8  C          6.5100   -0.4320   -0.9670 C.2     1  UNL1        0.0540
      9  C          8.9760    0.7240   -1.1870 C.2     1  UNL1        0.0510
     10  C          7.5010   -1.0720   -1.7170 C.2     1  UNL1        0.1660
     11  C          8.7440   -0.4890   -1.8280 C.2     1  UNL1        0.1650
     12  O          7.5250   -2.2510   -2.4320 O.2     1  UNL1       -0.4540
     13  O          9.5130   -1.3310   -2.6160 O.2     1  UNL1       -0.4540
     14  C          8.8070   -2.5040   -2.9460 C.3     1  UNL1        0.4680
@<TRIPOS>BOND
     1    14    13    1
     2    14    12    1
     3    13    11    1
     4    12    10    1
     5    11    10    2
     6    11     9    1
     7    10     8    1
     8     9     7    2
     9     8     6    2
    10     7     6    1
    11     6     5    1
    12     1     5    1
    13     1     2    1
    14     3     2    1
    15     2     4    2
