MODEL 1
REMARK VINA RESULT:      -7.7      0.000      0.000
REMARK SMILES CC(=O)CCc1ccc2c(c1)OCO2
REMARK SMILES IDX 4 1 2 2 1 3 3 4 5 5 6 6 7 7 11 8 8 9 10 10 9 11 12 12 14 13
REMARK SMILES IDX 13 14
REMARK H PARENT
REMARK Flexibility Score: inf
ROOT
ATOM      1  C   UNL     1       5.503   1.927   1.258  1.00  0.00     0.080 C 
ENDROOT
BRANCH   1   2
ATOM      2  C   UNL     1       5.059   0.711   1.996  1.00  0.00     0.130 C 
ATOM      3  C   UNL     1       5.944  -0.475   2.150  1.00  0.00     0.087 C 
ATOM      4  O   UNL     1       3.949   0.654   2.499  1.00  0.00    -0.300 OA
ENDBRANCH   1   2
BRANCH   1   5
ATOM      5  C   UNL     1       5.382   1.736  -0.240  1.00  0.00     0.043 C 
BRANCH   5   6
ATOM      6  C   UNL     1       6.552   1.034  -0.798  1.00  0.00    -0.044 A 
ATOM      7  C   UNL     1       7.858   1.468  -0.540  1.00  0.00     0.008 A 
ATOM      8  C   UNL     1       6.368  -0.076  -1.590  1.00  0.00     0.054 A 
ATOM      9  C   UNL     1       8.917   0.769  -1.089  1.00  0.00     0.051 A 
ATOM     10  C   UNL     1       7.443  -0.779  -2.143  1.00  0.00     0.166 A 
ATOM     11  C   UNL     1       8.728  -0.353  -1.891  1.00  0.00     0.165 A 
ATOM     12  O   UNL     1       7.521  -1.894  -2.951  1.00  0.00    -0.454 OA
ATOM     13  O   UNL     1       9.577  -1.224  -2.555  1.00  0.00    -0.454 OA
ATOM     14  C   UNL     1       8.857  -2.269  -3.165  1.00  0.00     0.468 C 
ENDBRANCH   5   6
ENDBRANCH   1   5
TORSDOF 3
ENDMDL
MODEL 2
REMARK VINA RESULT:      -7.6      1.548      2.118
REMARK SMILES CC(=O)CCc1ccc2c(c1)OCO2
REMARK SMILES IDX 4 1 2 2 1 3 3 4 5 5 6 6 7 7 11 8 8 9 10 10 9 11 12 12 14 13
REMARK SMILES IDX 13 14
REMARK H PARENT
REMARK Flexibility Score: inf
ROOT
ATOM      1  C   UNL     1       5.456   2.850   0.062  1.00  0.00     0.080 C 
ENDROOT
BRANCH   1   2
ATOM      2  C   UNL     1       6.246   3.755   0.942  1.00  0.00     0.130 C 
ATOM      3  C   UNL     1       7.175   4.773   0.382  1.00  0.00     0.087 C 
ATOM      4  O   UNL     1       6.154   3.686   2.157  1.00  0.00    -0.300 OA
ENDBRANCH   1   2
BRANCH   1   5
ATOM      5  C   UNL     1       5.654   1.397   0.446  1.00  0.00     0.043 C 
BRANCH   5   6
ATOM      6  C   UNL     1       6.736   0.768  -0.332  1.00  0.00    -0.044 A 
ATOM      7  C   UNL     1       7.999   1.361  -0.443  1.00  0.00     0.008 A 
ATOM      8  C   UNL     1       6.510  -0.432  -0.967  1.00  0.00     0.054 A 
ATOM      9  C   UNL     1       8.976   0.724  -1.187  1.00  0.00     0.051 A 
ATOM     10  C   UNL     1       7.501  -1.072  -1.717  1.00  0.00     0.166 A 
ATOM     11  C   UNL     1       8.744  -0.489  -1.828  1.00  0.00     0.165 A 
ATOM     12  O   UNL     1       7.525  -2.251  -2.432  1.00  0.00    -0.454 OA
ATOM     13  O   UNL     1       9.513  -1.331  -2.616  1.00  0.00    -0.454 OA
ATOM     14  C   UNL     1       8.807  -2.504  -2.946  1.00  0.00     0.468 C 
ENDBRANCH   5   6
ENDBRANCH   1   5
TORSDOF 3
ENDMDL
MODEL 3
REMARK VINA RESULT:      -7.5      1.934      2.430
REMARK SMILES CC(=O)CCc1ccc2c(c1)OCO2
REMARK SMILES IDX 4 1 2 2 1 3 3 4 5 5 6 6 7 7 11 8 8 9 10 10 9 11 12 12 14 13
REMARK SMILES IDX 13 14
REMARK H PARENT
REMARK Flexibility Score: inf
ROOT
ATOM      1  C   UNL     1       5.763   1.360  -0.350  1.00  0.00     0.080 C 
ENDROOT
BRANCH   1   2
ATOM      2  C   UNL     1       5.130   1.313   0.997  1.00  0.00     0.130 C 
ATOM      3  C   UNL     1       5.407   0.206   1.952  1.00  0.00     0.087 C 
ATOM      4  O   UNL     1       4.360   2.187   1.359  1.00  0.00    -0.300 OA
ENDBRANCH   1   2
BRANCH   1   5
ATOM      5  C   UNL     1       7.251   1.079  -0.270  1.00  0.00     0.043 C 
BRANCH   5   6
ATOM      6  C   UNL     1       7.595  -0.219  -0.877  1.00  0.00    -0.044 A 
ATOM      7  C   UNL     1       7.603  -0.400  -2.265  1.00  0.00     0.008 A 
ATOM      8  C   UNL     1       7.922  -1.285  -0.069  1.00  0.00     0.054 A 
ATOM      9  C   UNL     1       7.936  -1.641  -2.778  1.00  0.00     0.051 A 
ATOM     10  C   UNL     1       8.258  -2.537  -0.593  1.00  0.00     0.166 A 
ATOM     11  C   UNL     1       8.264  -2.716  -1.958  1.00  0.00     0.165 A 
ATOM     12  O   UNL     1       8.613  -3.735  -0.010  1.00  0.00    -0.454 OA
ATOM     13  O   UNL     1       8.628  -4.034  -2.187  1.00  0.00    -0.454 OA
ATOM     14  C   UNL     1       8.947  -4.690  -0.983  1.00  0.00     0.468 C 
ENDBRANCH   5   6
ENDBRANCH   1   5
TORSDOF 3
ENDMDL
MODEL 4
REMARK VINA RESULT:      -7.4      1.960      2.624
REMARK SMILES CC(=O)CCc1ccc2c(c1)OCO2
REMARK SMILES IDX 4 1 2 2 1 3 3 4 5 5 6 6 7 7 11 8 8 9 10 10 9 11 12 12 14 13
REMARK SMILES IDX 13 14
REMARK H PARENT
REMARK Flexibility Score: inf
ROOT
ATOM      1  C   UNL     1       6.185   0.801   1.022  1.00  0.00     0.080 C 
ENDROOT
BRANCH   1   2
ATOM      2  C   UNL     1       5.034   1.744   0.931  1.00  0.00     0.130 C 
ATOM      3  C   UNL     1       4.882   2.681  -0.214  1.00  0.00     0.087 C 
ATOM      4  O   UNL     1       4.178   1.773   1.800  1.00  0.00    -0.300 OA
ENDBRANCH   1   2
BRANCH   1   5
ATOM      5  C   UNL     1       7.157   1.007  -0.123  1.00  0.00     0.043 C 
BRANCH   5   6
ATOM      6  C   UNL     1       7.525  -0.268  -0.763  1.00  0.00    -0.044 A 
ATOM      7  C   UNL     1       7.534  -0.414  -2.155  1.00  0.00     0.008 A 
ATOM      8  C   UNL     1       7.873  -1.348   0.017  1.00  0.00     0.054 A 
ATOM      9  C   UNL     1       7.890  -1.635  -2.699  1.00  0.00     0.051 A 
ATOM     10  C   UNL     1       8.232  -2.579  -0.538  1.00  0.00     0.166 A 
ATOM     11  C   UNL     1       8.240  -2.724  -1.908  1.00  0.00     0.165 A 
ATOM     12  O   UNL     1       8.611  -3.785   0.014  1.00  0.00    -0.454 OA
ATOM     13  O   UNL     1       8.629  -4.028  -2.171  1.00  0.00    -0.454 OA
ATOM     14  C   UNL     1       8.961  -4.709  -0.984  1.00  0.00     0.468 C 
ENDBRANCH   5   6
ENDBRANCH   1   5
TORSDOF 3
ENDMDL
MODEL 5
REMARK VINA RESULT:      -7.4      2.165      2.737
REMARK SMILES CC(=O)CCc1ccc2c(c1)OCO2
REMARK SMILES IDX 4 1 2 2 1 3 3 4 5 5 6 6 7 7 11 8 8 9 10 10 9 11 12 12 14 13
REMARK SMILES IDX 13 14
REMARK H PARENT
REMARK Flexibility Score: inf
ROOT
ATOM      1  C   UNL     1       5.342   1.634   0.211  1.00  0.00     0.080 C 
ENDROOT
BRANCH   1   2
ATOM      2  C   UNL     1       6.106   2.692   0.931  1.00  0.00     0.130 C 
ATOM      3  C   UNL     1       6.490   3.966   0.267  1.00  0.00     0.087 C 
ATOM      4  O   UNL     1       6.441   2.540   2.094  1.00  0.00    -0.300 OA
ENDBRANCH   1   2
BRANCH   1   5
ATOM      5  C   UNL     1       6.148   1.056  -0.934  1.00  0.00     0.043 C 
BRANCH   5   6
ATOM      6  C   UNL     1       6.802  -0.211  -0.557  1.00  0.00    -0.044 A 
ATOM      7  C   UNL     1       6.934  -0.597   0.781  1.00  0.00     0.008 A 
ATOM      8  C   UNL     1       7.296  -1.041  -1.537  1.00  0.00     0.054 A 
ATOM      9  C   UNL     1       7.556  -1.797   1.075  1.00  0.00     0.051 A 
ATOM     10  C   UNL     1       7.923  -2.254  -1.235  1.00  0.00     0.166 A 
ATOM     11  C   UNL     1       8.054  -2.634   0.082  1.00  0.00     0.165 A 
ATOM     12  O   UNL     1       8.489  -3.239  -2.016  1.00  0.00    -0.454 OA
ATOM     13  O   UNL     1       8.704  -3.859   0.082  1.00  0.00    -0.454 OA
ATOM     14  C   UNL     1       8.917  -4.322  -1.230  1.00  0.00     0.468 C 
ENDBRANCH   5   6
ENDBRANCH   1   5
TORSDOF 3
ENDMDL
