@<TRIPOS>MOLECULE
/home/cewinharhar/GITHUB/reincatalyze/data/processed/docking_pred/2023-May-22-1902_sub9_nm5_bs15_s42_ex16_mel10_mts1000_k50_ec02_g099_lra9e-4_lrc1e-3/b9a0748b4c4cb53be71f33acfe76cbadf25e0c0f_ligand_9.pdbqt
 14 15 0 0 0
SMALL
GASTEIGER

@<TRIPOS>ATOM
      1  C          6.1850    0.8010    1.0220 C.3     1  UNL1        0.0800
      2  C          5.0340    1.7440    0.9310 C.2     1  UNL1        0.1300
      3  C          4.8820    2.6810   -0.2140 C.3     1  UNL1        0.0870
      4  O          4.1780    1.7730    1.8000 O.2     1  UNL1       -0.3000
      5  C          7.1570    1.0070   -0.1230 C.3     1  UNL1        0.0430
      6  C          7.5250   -0.2680   -0.7630 C.2     1  UNL1       -0.0440
      7  C          7.5340   -0.4140   -2.1550 C.2     1  UNL1        0.0080
      8  C          7.8730   -1.3480    0.0170 C.2     1  UNL1        0.0540
      9  C          7.8900   -1.6350   -2.6990 C.2     1  UNL1        0.0510
     10  C          8.2320   -2.5790   -0.5380 C.2     1  UNL1        0.1660
     11  C          8.2400   -2.7240   -1.9080 C.2     1  UNL1        0.1650
     12  O          8.6110   -3.7850    0.0140 O.2     1  UNL1       -0.4540
     13  O          8.6290   -4.0280   -2.1710 O.2     1  UNL1       -0.4540
     14  C          8.9610   -4.7090   -0.9840 C.3     1  UNL1        0.4680
@<TRIPOS>BOND
     1     9     7    1
     2     9    11    2
     3    13    11    1
     4    13    14    1
     5     7     6    2
     6    11    10    1
     7    14    12    1
     8     6     5    1
     9     6     8    1
    10    10    12    1
    11    10     8    2
    12     3     2    1
    13     5     1    1
    14     2     1    1
    15     2     4    2
