@<TRIPOS>MOLECULE
/home/cewinharhar/GITHUB/reincatalyze/data/processed/docking_pred/2023-May-22-1902_sub9_nm5_bs15_s42_ex16_mel10_mts1000_k50_ec02_g099_lra9e-4_lrc1e-3/b9a0748b4c4cb53be71f33acfe76cbadf25e0c0f_ligand_9.pdbqt
 14 15 0 0 0
SMALL
GASTEIGER

@<TRIPOS>ATOM
      1  C          5.3420    1.6340    0.2110 C.3     1  UNL1        0.0800
      2  C          6.1060    2.6920    0.9310 C.2     1  UNL1        0.1300
      3  C          6.4900    3.9660    0.2670 C.3     1  UNL1        0.0870
      4  O          6.4410    2.5400    2.0940 O.2     1  UNL1       -0.3000
      5  C          6.1480    1.0560   -0.9340 C.3     1  UNL1        0.0430
      6  C          6.8020   -0.2110   -0.5570 C.2     1  UNL1       -0.0440
      7  C          6.9340   -0.5970    0.7810 C.2     1  UNL1        0.0080
      8  C          7.2960   -1.0410   -1.5370 C.2     1  UNL1        0.0540
      9  C          7.5560   -1.7970    1.0750 C.2     1  UNL1        0.0510
     10  C          7.9230   -2.2540   -1.2350 C.2     1  UNL1        0.1660
     11  C          8.0540   -2.6340    0.0820 C.2     1  UNL1        0.1650
     12  O          8.4890   -3.2390   -2.0160 O.2     1  UNL1       -0.4540
     13  O          8.7040   -3.8590    0.0820 O.2     1  UNL1       -0.4540
     14  C          8.9170   -4.3220   -1.2300 C.3     1  UNL1        0.4680
@<TRIPOS>BOND
     1    12    10    1
     2    12    14    1
     3     8    10    1
     4     8     6    2
     5    10    11    2
     6    14    13    1
     7     5     6    1
     8     5     1    1
     9     6     7    1
    10    11    13    1
    11    11     9    1
    12     1     2    1
    13     3     2    1
    14     7     9    2
    15     2     4    2
