@<TRIPOS>MOLECULE
/home/cewinharhar/GITHUB/reincatalyze/data/processed/docking_pred/2023-May-22-1902_sub9_nm5_bs15_s42_ex16_mel10_mts1000_k50_ec02_g099_lra9e-4_lrc1e-3/b9a0748b4c4cb53be71f33acfe76cbadf25e0c0f_ligand_9.pdbqt
 14 15 0 0 0
SMALL
GASTEIGER

@<TRIPOS>ATOM
      1  C          5.7630    1.3600   -0.3500 C.3     1  UNL1        0.0800
      2  C          5.1300    1.3130    0.9970 C.2     1  UNL1        0.1300
      3  C          5.4070    0.2060    1.9520 C.3     1  UNL1        0.0870
      4  O          4.3600    2.1870    1.3590 O.2     1  UNL1       -0.3000
      5  C          7.2510    1.0790   -0.2700 C.3     1  UNL1        0.0430
      6  C          7.5950   -0.2190   -0.8770 C.2     1  UNL1       -0.0440
      7  C          7.6030   -0.4000   -2.2650 C.2     1  UNL1        0.0080
      8  C          7.9220   -1.2850   -0.0690 C.2     1  UNL1        0.0540
      9  C          7.9360   -1.6410   -2.7780 C.2     1  UNL1        0.0510
     10  C          8.2580   -2.5370   -0.5930 C.2     1  UNL1        0.1660
     11  C          8.2640   -2.7160   -1.9580 C.2     1  UNL1        0.1650
     12  O          8.6130   -3.7350   -0.0100 O.2     1  UNL1       -0.4540
     13  O          8.6280   -4.0340   -2.1870 O.2     1  UNL1       -0.4540
     14  C          8.9470   -4.6900   -0.9830 C.3     1  UNL1        0.4680
@<TRIPOS>BOND
     1     9     7    1
     2     9    11    2
     3     7     6    2
     4    13    11    1
     5    13    14    1
     6    11    10    1
     7    14    12    1
     8     6     5    1
     9     6     8    1
    10    10     8    2
    11    10    12    1
    12     1     5    1
    13     1     2    1
    14     2     4    2
    15     2     3    1
