@<TRIPOS>MOLECULE
/home/cewinharhar/GITHUB/reincatalyze/data/processed/docking_pred/2023-May-22-1902_sub9_nm5_bs15_s42_ex16_mel10_mts1000_k50_ec02_g099_lra9e-4_lrc1e-3/ba254a63d1f23417312e0ffefa4719b754a9a4bf_ligand_9.pdbqt
 14 15 0 0 0
SMALL
GASTEIGER

@<TRIPOS>ATOM
      1  C          5.4370    2.8540    0.1200 C.3     1  UNL1        0.0800
      2  C          6.2540    3.8010    0.9300 C.2     1  UNL1        0.1300
      3  C          7.2110    4.7470    0.2970 C.3     1  UNL1        0.0870
      4  O          6.1600    3.8260    2.1470 O.2     1  UNL1       -0.3000
      5  C          5.2460    1.5350    0.8420 C.3     1  UNL1        0.0430
      6  C          6.0750    0.4660    0.2550 C.2     1  UNL1       -0.0440
      7  C          6.4420    0.4820   -1.0950 C.2     1  UNL1        0.0080
      8  C          6.5050   -0.5750    1.0460 C.2     1  UNL1        0.0540
      9  C          7.2220   -0.5480   -1.5900 C.2     1  UNL1        0.0510
     10  C          7.2930   -1.6130    0.5410 C.2     1  UNL1        0.1660
     11  C          7.6550   -1.6000   -0.7880 C.2     1  UNL1        0.1650
     12  O          7.8380   -2.7430    1.1130 O.2     1  UNL1       -0.4540
     13  O          8.4230   -2.7330   -1.0060 O.2     1  UNL1       -0.4540
     14  C          8.6400   -3.4380    0.1930 C.3     1  UNL1        0.4680
@<TRIPOS>BOND
     1     9     7    1
     2     9    11    2
     3     7     6    2
     4    13    11    1
     5    13    14    1
     6    11    10    1
     7     1     5    1
     8     1     2    1
     9    14    12    1
    10     6     5    1
    11     6     8    1
    12     3     2    1
    13    10     8    2
    14    10    12    1
    15     2     4    2
