@<TRIPOS>MOLECULE
/home/cewinharhar/GITHUB/reincatalyze/data/processed/docking_pred/2023-May-22-1902_sub9_nm5_bs15_s42_ex16_mel10_mts1000_k50_ec02_g099_lra9e-4_lrc1e-3/bae690ffab80532c90b6f683492bf7de3cce581e_ligand_9.pdbqt
 14 15 0 0 0
SMALL
GASTEIGER

@<TRIPOS>ATOM
      1  C          5.4940    2.8900    0.1220 C.3     1  UNL1        0.0800
      2  C          6.2430    3.8620    0.9670 C.2     1  UNL1        0.1300
      3  C          7.2650    4.7740    0.3870 C.3     1  UNL1        0.0870
      4  O          6.0370    3.9390    2.1670 O.2     1  UNL1       -0.3000
      5  C          5.2360    1.5970    0.8700 C.3     1  UNL1        0.0430
      6  C          6.0640    0.4920    0.3530 C.2     1  UNL1       -0.0440
      7  C          6.4230   -0.5930    1.1600 C.2     1  UNL1        0.0080
      8  C          6.4980    0.5180   -0.9520 C.2     1  UNL1        0.0540
      9  C          7.2010   -1.6010    0.6210 C.2     1  UNL1        0.0510
     10  C          7.2840   -0.5040   -1.4930 C.2     1  UNL1        0.1660
     11  C          7.6390   -1.5720   -0.7000 C.2     1  UNL1        0.1650
     12  O          7.8330   -0.7060   -2.7420 O.2     1  UNL1       -0.4540
     13  O          8.4060   -2.4180   -1.4860 O.2     1  UNL1       -0.4540
     14  C          8.4780   -1.9520   -2.8130 C.3     1  UNL1        0.4680
@<TRIPOS>BOND
     1    14    12    1
     2    14    13    1
     3    12    10    1
     4    10     8    1
     5    10    11    2
     6    13    11    1
     7     8     6    2
     8    11     9    1
     9     1     5    1
    10     1     2    1
    11     6     5    1
    12     6     7    1
    13     3     2    1
    14     9     7    2
    15     2     4    2
