@<TRIPOS>MOLECULE
/home/cewinharhar/GITHUB/reincatalyze/data/processed/docking_pred/2023-May-22-1902_sub9_nm5_bs15_s42_ex16_mel10_mts1000_k50_ec02_g099_lra9e-4_lrc1e-3/bae690ffab80532c90b6f683492bf7de3cce581e_ligand_9.pdbqt
 14 15 0 0 0
SMALL
GASTEIGER

@<TRIPOS>ATOM
      1  C          5.3760    2.9630    0.1230 C.3     1  UNL1        0.0800
      2  C          6.2790    3.8030    0.9580 C.2     1  UNL1        0.1300
      3  C          7.2260    4.7750    0.3480 C.3     1  UNL1        0.0870
      4  O          6.2680    3.7170    2.1750 O.2     1  UNL1       -0.3000
      5  C          5.1020    1.6260    0.7820 C.3     1  UNL1        0.0430
      6  C          5.9550    0.5590    0.2300 C.2     1  UNL1       -0.0440
      7  C          6.3440    0.5540   -1.1150 C.2     1  UNL1        0.0080
      8  C          6.3880   -0.4600    1.0470 C.2     1  UNL1        0.0540
      9  C          7.1470   -0.4730   -1.5770 C.2     1  UNL1        0.0510
     10  C          7.2000   -1.4960    0.5750 C.2     1  UNL1        0.1660
     11  C          7.5820   -1.5020   -0.7480 C.2     1  UNL1        0.1650
     12  O          7.7520   -2.6060    1.1770 O.2     1  UNL1       -0.4540
     13  O          8.3700   -2.6270   -0.9320 O.2     1  UNL1       -0.4540
     14  C          8.5790   -3.3060    0.2830 C.3     1  UNL1        0.4680
@<TRIPOS>BOND
     1     9     7    1
     2     9    11    2
     3     7     6    2
     4    13    11    1
     5    13    14    1
     6    11    10    1
     7     1     5    1
     8     1     2    1
     9     6     5    1
    10     6     8    1
    11    14    12    1
    12     3     2    1
    13    10     8    2
    14    10    12    1
    15     2     4    2
