@<TRIPOS>MOLECULE
/home/cewinharhar/GITHUB/reincatalyze/data/processed/docking_pred/2023-May-22-1902_sub9_nm5_bs15_s42_ex16_mel10_mts1000_k50_ec02_g099_lra9e-4_lrc1e-3/bae690ffab80532c90b6f683492bf7de3cce581e_ligand_9.pdbqt
 14 15 0 0 0
SMALL
GASTEIGER

@<TRIPOS>ATOM
      1  C          5.5160    1.9180    1.2650 C.3     1  UNL1        0.0800
      2  C          5.0660    0.7030    2.0000 C.2     1  UNL1        0.1300
      3  C          5.9440   -0.4870    2.1540 C.3     1  UNL1        0.0870
      4  O          3.9540    0.6500    2.5000 O.2     1  UNL1       -0.3000
      5  C          5.3930    1.7310   -0.2350 C.3     1  UNL1        0.0430
      6  C          6.5620    1.0310   -0.7960 C.2     1  UNL1       -0.0440
      7  C          7.8680    1.4670   -0.5450 C.2     1  UNL1        0.0080
      8  C          6.3770   -0.0810   -1.5860 C.2     1  UNL1        0.0540
      9  C          8.9270    0.7690   -1.0980 C.2     1  UNL1        0.0510
     10  C          7.4500   -0.7830   -2.1420 C.2     1  UNL1        0.1660
     11  C          8.7360   -0.3540   -1.8960 C.2     1  UNL1        0.1650
     12  O          7.5270   -1.8990   -2.9490 O.2     1  UNL1       -0.4540
     13  O          9.5830   -1.2250   -2.5630 O.2     1  UNL1       -0.4540
     14  C          8.8630   -2.2720   -3.1680 C.3     1  UNL1        0.4680
@<TRIPOS>BOND
     1    14    12    1
     2    14    13    1
     3    12    10    1
     4    13    11    1
     5    10    11    2
     6    10     8    1
     7    11     9    1
     8     8     6    2
     9     9     7    2
    10     6     7    1
    11     6     5    1
    12     5     1    1
    13     1     2    1
    14     2     3    1
    15     2     4    2
