MODEL 1
REMARK VINA RESULT:      -7.9      0.000      0.000
REMARK SMILES CC(=O)CCc1ccc2c(c1)OCO2
REMARK SMILES IDX 4 1 2 2 1 3 3 4 5 5 6 6 7 7 11 8 8 9 10 10 9 11 12 12 14 13
REMARK SMILES IDX 13 14
REMARK H PARENT
REMARK Flexibility Score: inf
ROOT
ATOM      1  C   UNL     1       5.494   2.890   0.122  1.00  0.00     0.080 C 
ENDROOT
BRANCH   1   2
ATOM      2  C   UNL     1       6.243   3.862   0.967  1.00  0.00     0.130 C 
ATOM      3  C   UNL     1       7.265   4.774   0.387  1.00  0.00     0.087 C 
ATOM      4  O   UNL     1       6.037   3.939   2.167  1.00  0.00    -0.300 OA
ENDBRANCH   1   2
BRANCH   1   5
ATOM      5  C   UNL     1       5.236   1.597   0.870  1.00  0.00     0.043 C 
BRANCH   5   6
ATOM      6  C   UNL     1       6.064   0.492   0.353  1.00  0.00    -0.044 A 
ATOM      7  C   UNL     1       6.423  -0.593   1.160  1.00  0.00     0.008 A 
ATOM      8  C   UNL     1       6.498   0.518  -0.952  1.00  0.00     0.054 A 
ATOM      9  C   UNL     1       7.201  -1.601   0.621  1.00  0.00     0.051 A 
ATOM     10  C   UNL     1       7.284  -0.504  -1.493  1.00  0.00     0.166 A 
ATOM     11  C   UNL     1       7.639  -1.572  -0.700  1.00  0.00     0.165 A 
ATOM     12  O   UNL     1       7.833  -0.706  -2.742  1.00  0.00    -0.454 OA
ATOM     13  O   UNL     1       8.406  -2.418  -1.486  1.00  0.00    -0.454 OA
ATOM     14  C   UNL     1       8.478  -1.952  -2.813  1.00  0.00     0.468 C 
ENDBRANCH   5   6
ENDBRANCH   1   5
TORSDOF 3
ENDMDL
MODEL 2
REMARK VINA RESULT:      -7.9      0.971      1.960
REMARK SMILES CC(=O)CCc1ccc2c(c1)OCO2
REMARK SMILES IDX 4 1 2 2 1 3 3 4 5 5 6 6 7 7 11 8 8 9 10 10 9 11 12 12 14 13
REMARK SMILES IDX 13 14
REMARK H PARENT
REMARK Flexibility Score: inf
ROOT
ATOM      1  C   UNL     1       5.376   2.963   0.123  1.00  0.00     0.080 C 
ENDROOT
BRANCH   1   2
ATOM      2  C   UNL     1       6.279   3.803   0.958  1.00  0.00     0.130 C 
ATOM      3  C   UNL     1       7.226   4.775   0.348  1.00  0.00     0.087 C 
ATOM      4  O   UNL     1       6.268   3.717   2.175  1.00  0.00    -0.300 OA
ENDBRANCH   1   2
BRANCH   1   5
ATOM      5  C   UNL     1       5.102   1.626   0.782  1.00  0.00     0.043 C 
BRANCH   5   6
ATOM      6  C   UNL     1       5.955   0.559   0.230  1.00  0.00    -0.044 A 
ATOM      7  C   UNL     1       6.344   0.554  -1.115  1.00  0.00     0.008 A 
ATOM      8  C   UNL     1       6.388  -0.460   1.047  1.00  0.00     0.054 A 
ATOM      9  C   UNL     1       7.147  -0.473  -1.577  1.00  0.00     0.051 A 
ATOM     10  C   UNL     1       7.200  -1.496   0.575  1.00  0.00     0.166 A 
ATOM     11  C   UNL     1       7.582  -1.502  -0.748  1.00  0.00     0.165 A 
ATOM     12  O   UNL     1       7.752  -2.606   1.177  1.00  0.00    -0.454 OA
ATOM     13  O   UNL     1       8.370  -2.627  -0.932  1.00  0.00    -0.454 OA
ATOM     14  C   UNL     1       8.579  -3.306   0.283  1.00  0.00     0.468 C 
ENDBRANCH   5   6
ENDBRANCH   1   5
TORSDOF 3
ENDMDL
MODEL 3
REMARK VINA RESULT:      -7.7      1.897      2.642
REMARK SMILES CC(=O)CCc1ccc2c(c1)OCO2
REMARK SMILES IDX 4 1 2 2 1 3 3 4 5 5 6 6 7 7 11 8 8 9 10 10 9 11 12 12 14 13
REMARK SMILES IDX 13 14
REMARK H PARENT
REMARK Flexibility Score: inf
ROOT
ATOM      1  C   UNL     1       5.516   1.918   1.265  1.00  0.00     0.080 C 
ENDROOT
BRANCH   1   2
ATOM      2  C   UNL     1       5.066   0.703   2.000  1.00  0.00     0.130 C 
ATOM      3  C   UNL     1       5.944  -0.487   2.154  1.00  0.00     0.087 C 
ATOM      4  O   UNL     1       3.954   0.650   2.500  1.00  0.00    -0.300 OA
ENDBRANCH   1   2
BRANCH   1   5
ATOM      5  C   UNL     1       5.393   1.731  -0.235  1.00  0.00     0.043 C 
BRANCH   5   6
ATOM      6  C   UNL     1       6.562   1.031  -0.796  1.00  0.00    -0.044 A 
ATOM      7  C   UNL     1       7.868   1.467  -0.545  1.00  0.00     0.008 A 
ATOM      8  C   UNL     1       6.377  -0.081  -1.586  1.00  0.00     0.054 A 
ATOM      9  C   UNL     1       8.927   0.769  -1.098  1.00  0.00     0.051 A 
ATOM     10  C   UNL     1       7.450  -0.783  -2.142  1.00  0.00     0.166 A 
ATOM     11  C   UNL     1       8.736  -0.354  -1.896  1.00  0.00     0.165 A 
ATOM     12  O   UNL     1       7.527  -1.899  -2.949  1.00  0.00    -0.454 OA
ATOM     13  O   UNL     1       9.583  -1.225  -2.563  1.00  0.00    -0.454 OA
ATOM     14  C   UNL     1       8.863  -2.272  -3.168  1.00  0.00     0.468 C 
ENDBRANCH   5   6
ENDBRANCH   1   5
TORSDOF 3
ENDMDL
MODEL 4
REMARK VINA RESULT:      -7.5      1.950      2.992
REMARK SMILES CC(=O)CCc1ccc2c(c1)OCO2
REMARK SMILES IDX 4 1 2 2 1 3 3 4 5 5 6 6 7 7 11 8 8 9 10 10 9 11 12 12 14 13
REMARK SMILES IDX 13 14
REMARK H PARENT
REMARK Flexibility Score: inf
ROOT
ATOM      1  C   UNL     1       5.806   1.389  -0.385  1.00  0.00     0.080 C 
ENDROOT
BRANCH   1   2
ATOM      2  C   UNL     1       5.149   1.349   0.951  1.00  0.00     0.130 C 
ATOM      3  C   UNL     1       5.397   0.240   1.910  1.00  0.00     0.087 C 
ATOM      4  O   UNL     1       4.382   2.233   1.299  1.00  0.00    -0.300 OA
ENDBRANCH   1   2
BRANCH   1   5
ATOM      5  C   UNL     1       7.292   1.111  -0.276  1.00  0.00     0.043 C 
BRANCH   5   6
ATOM      6  C   UNL     1       7.651  -0.186  -0.876  1.00  0.00    -0.044 A 
ATOM      7  C   UNL     1       7.722  -0.357  -2.263  1.00  0.00     0.008 A 
ATOM      8  C   UNL     1       7.927  -1.261  -0.063  1.00  0.00     0.054 A 
ATOM      9  C   UNL     1       8.065  -1.597  -2.770  1.00  0.00     0.051 A 
ATOM     10  C   UNL     1       8.274  -2.513  -0.580  1.00  0.00     0.166 A 
ATOM     11  C   UNL     1       8.343  -2.682  -1.945  1.00  0.00     0.165 A 
ATOM     12  O   UNL     1       8.588  -3.719   0.010  1.00  0.00    -0.454 OA
ATOM     13  O   UNL     1       8.703  -4.002  -2.167  1.00  0.00    -0.454 OA
ATOM     14  C   UNL     1       8.957  -4.671  -0.954  1.00  0.00     0.468 C 
ENDBRANCH   5   6
ENDBRANCH   1   5
TORSDOF 3
ENDMDL
MODEL 5
REMARK VINA RESULT:      -7.5      1.805      2.792
REMARK SMILES CC(=O)CCc1ccc2c(c1)OCO2
REMARK SMILES IDX 4 1 2 2 1 3 3 4 5 5 6 6 7 7 11 8 8 9 10 10 9 11 12 12 14 13
REMARK SMILES IDX 13 14
REMARK H PARENT
REMARK Flexibility Score: inf
ROOT
ATOM      1  C   UNL     1       6.293   0.887   1.062  1.00  0.00     0.080 C 
ENDROOT
BRANCH   1   2
ATOM      2  C   UNL     1       5.090   1.756   0.934  1.00  0.00     0.130 C 
ATOM      3  C   UNL     1       4.897   2.654  -0.236  1.00  0.00     0.087 C 
ATOM      4  O   UNL     1       4.223   1.757   1.793  1.00  0.00    -0.300 OA
ENDBRANCH   1   2
BRANCH   1   5
ATOM      5  C   UNL     1       7.242   1.085  -0.103  1.00  0.00     0.043 C 
BRANCH   5   6
ATOM      6  C   UNL     1       7.582  -0.192  -0.755  1.00  0.00    -0.044 A 
ATOM      7  C   UNL     1       7.579  -0.328  -2.148  1.00  0.00     0.008 A 
ATOM      8  C   UNL     1       7.914  -1.284   0.015  1.00  0.00     0.054 A 
ATOM      9  C   UNL     1       7.908  -1.551  -2.703  1.00  0.00     0.051 A 
ATOM     10  C   UNL     1       8.246  -2.518  -0.551  1.00  0.00     0.166 A 
ATOM     11  C   UNL     1       8.242  -2.653  -1.922  1.00  0.00     0.165 A 
ATOM     12  O   UNL     1       8.605  -3.734  -0.010  1.00  0.00    -0.454 OA
ATOM     13  O   UNL     1       8.604  -3.962  -2.197  1.00  0.00    -0.454 OA
ATOM     14  C   UNL     1       8.931  -4.658  -1.017  1.00  0.00     0.468 C 
ENDBRANCH   5   6
ENDBRANCH   1   5
TORSDOF 3
ENDMDL
