@<TRIPOS>MOLECULE
/home/cewinharhar/GITHUB/reincatalyze/data/processed/docking_pred/2023-May-22-1902_sub9_nm5_bs15_s42_ex16_mel10_mts1000_k50_ec02_g099_lra9e-4_lrc1e-3/bae690ffab80532c90b6f683492bf7de3cce581e_ligand_9.pdbqt
 14 15 0 0 0
SMALL
GASTEIGER

@<TRIPOS>ATOM
      1  C          5.8060    1.3890   -0.3850 C.3     1  UNL1        0.0800
      2  C          5.1490    1.3490    0.9510 C.2     1  UNL1        0.1300
      3  C          5.3970    0.2400    1.9100 C.3     1  UNL1        0.0870
      4  O          4.3820    2.2330    1.2990 O.2     1  UNL1       -0.3000
      5  C          7.2920    1.1110   -0.2760 C.3     1  UNL1        0.0430
      6  C          7.6510   -0.1860   -0.8760 C.2     1  UNL1       -0.0440
      7  C          7.7220   -0.3570   -2.2630 C.2     1  UNL1        0.0080
      8  C          7.9270   -1.2610   -0.0630 C.2     1  UNL1        0.0540
      9  C          8.0650   -1.5970   -2.7700 C.2     1  UNL1        0.0510
     10  C          8.2740   -2.5130   -0.5800 C.2     1  UNL1        0.1660
     11  C          8.3430   -2.6820   -1.9450 C.2     1  UNL1        0.1650
     12  O          8.5880   -3.7190    0.0100 O.2     1  UNL1       -0.4540
     13  O          8.7030   -4.0020   -2.1670 O.2     1  UNL1       -0.4540
     14  C          8.9570   -4.6710   -0.9540 C.3     1  UNL1        0.4680
@<TRIPOS>BOND
     1     9     7    1
     2     9    11    2
     3     7     6    2
     4    13    11    1
     5    13    14    1
     6    11    10    1
     7    14    12    1
     8     6     5    1
     9     6     8    1
    10    10     8    2
    11    10    12    1
    12     1     5    1
    13     1     2    1
    14     2     4    2
    15     2     3    1
