@<TRIPOS>MOLECULE
/home/cewinharhar/GITHUB/reincatalyze/data/processed/docking_pred/2023-May-22-1902_sub9_nm5_bs15_s42_ex16_mel10_mts1000_k50_ec02_g099_lra9e-4_lrc1e-3/bb509c9d750c31c787a0dfaad7ceec12964b61ea_ligand_9.pdbqt
 14 15 0 0 0
SMALL
GASTEIGER

@<TRIPOS>ATOM
      1  C          6.3110    0.8920    1.0630 C.3     1  UNL1        0.0800
      2  C          5.1160    1.7680    0.9070 C.2     1  UNL1        0.1300
      3  C          4.9260    2.6210   -0.2970 C.3     1  UNL1        0.0870
      4  O          4.2540    1.8120    1.7690 O.2     1  UNL1       -0.3000
      5  C          7.2800    1.0720   -0.0890 C.3     1  UNL1        0.0430
      6  C          7.6050   -0.2130   -0.7340 C.2     1  UNL1       -0.0440
      7  C          7.5810   -0.3610   -2.1250 C.2     1  UNL1        0.0080
      8  C          7.9450   -1.2980    0.0410 C.2     1  UNL1        0.0540
      9  C          7.8970   -1.5900   -2.6750 C.2     1  UNL1        0.0510
     10  C          8.2640   -2.5390   -0.5200 C.2     1  UNL1        0.1660
     11  C          8.2400   -2.6860   -1.8890 C.2     1  UNL1        0.1650
     12  O          8.6280   -3.7510    0.0270 O.2     1  UNL1       -0.4540
     13  O          8.5930   -3.9990   -2.1570 O.2     1  UNL1       -0.4540
     14  C          8.9360   -4.6850   -0.9770 C.3     1  UNL1        0.4680
@<TRIPOS>BOND
     1     9     7    1
     2     9    11    2
     3    13    11    1
     4    13    14    1
     5     7     6    2
     6    11    10    1
     7    14    12    1
     8     6     5    1
     9     6     8    1
    10    10    12    1
    11    10     8    2
    12     3     2    1
    13     5     1    1
    14     2     1    1
    15     2     4    2
