@<TRIPOS>MOLECULE
/home/cewinharhar/GITHUB/reincatalyze/data/processed/docking_pred/2023-May-22-1902_sub9_nm5_bs15_s42_ex16_mel10_mts1000_k50_ec02_g099_lra9e-4_lrc1e-3/bb509c9d750c31c787a0dfaad7ceec12964b61ea_ligand_9.pdbqt
 14 15 0 0 0
SMALL
GASTEIGER

@<TRIPOS>ATOM
      1  C          5.4250    2.9210    0.2080 C.3     1  UNL1        0.0800
      2  C          6.2680    3.8710    0.9860 C.2     1  UNL1        0.1300
      3  C          7.2440    4.7750    0.3210 C.3     1  UNL1        0.0870
      4  O          6.1810    3.9340    2.2020 O.2     1  UNL1       -0.3000
      5  C          5.2520    1.6080    0.9450 C.3     1  UNL1        0.0430
      6  C          6.0530    0.5300    0.3380 C.2     1  UNL1       -0.0440
      7  C          6.3550    0.5220   -1.0290 C.2     1  UNL1        0.0080
      8  C          6.5250   -0.4960    1.1250 C.2     1  UNL1        0.0540
      9  C          7.1120   -0.5150   -1.5430 C.2     1  UNL1        0.0510
     10  C          7.2910   -1.5410    0.6010 C.2     1  UNL1        0.1660
     11  C          7.5860   -1.5510   -0.7440 C.2     1  UNL1        0.1650
     12  O          7.8660   -2.6590    1.1660 O.2     1  UNL1       -0.4540
     13  O          8.3460   -2.6860   -0.9790 O.2     1  UNL1       -0.4540
     14  C          8.6240   -3.3690    0.2200 C.3     1  UNL1        0.4680
@<TRIPOS>BOND
     1     9     7    1
     2     9    11    2
     3     7     6    2
     4    13    11    1
     5    13    14    1
     6    11    10    1
     7     1     5    1
     8     1     2    1
     9    14    12    1
    10     3     2    1
    11     6     5    1
    12     6     8    1
    13    10     8    2
    14    10    12    1
    15     2     4    2
