@<TRIPOS>MOLECULE
/home/cewinharhar/GITHUB/reincatalyze/data/processed/docking_pred/2023-May-22-1902_sub9_nm5_bs15_s42_ex16_mel10_mts1000_k50_ec02_g099_lra9e-4_lrc1e-3/bb509c9d750c31c787a0dfaad7ceec12964b61ea_ligand_9.pdbqt
 14 15 0 0 0
SMALL
GASTEIGER

@<TRIPOS>ATOM
      1  C          5.5040    1.9210    1.2600 C.3     1  UNL1        0.0800
      2  C          5.0480    0.7090    1.9960 C.2     1  UNL1        0.1300
      3  C          5.9150   -0.4900    2.1390 C.3     1  UNL1        0.0870
      4  O          3.9400    0.6660    2.5060 O.2     1  UNL1       -0.3000
      5  C          5.3840    1.7320   -0.2390 C.3     1  UNL1        0.0430
      6  C          6.5540    1.0310   -0.7970 C.2     1  UNL1       -0.0440
      7  C          7.8600    1.4650   -0.5410 C.2     1  UNL1        0.0080
      8  C          6.3710   -0.0800   -1.5880 C.2     1  UNL1        0.0540
      9  C          8.9190    0.7670   -1.0910 C.2     1  UNL1        0.0510
     10  C          7.4450   -0.7830   -2.1410 C.2     1  UNL1        0.1660
     11  C          8.7300   -0.3560   -1.8910 C.2     1  UNL1        0.1650
     12  O          7.5230   -1.8990   -2.9480 O.2     1  UNL1       -0.4540
     13  O          9.5790   -1.2270   -2.5550 O.2     1  UNL1       -0.4540
     14  C          8.8600   -2.2730   -3.1630 C.3     1  UNL1        0.4680
@<TRIPOS>BOND
     1    14    12    1
     2    14    13    1
     3    12    10    1
     4    13    11    1
     5    10    11    2
     6    10     8    1
     7    11     9    1
     8     8     6    2
     9     9     7    2
    10     6     7    1
    11     6     5    1
    12     5     1    1
    13     1     2    1
    14     2     3    1
    15     2     4    2
