MODEL 1
REMARK VINA RESULT:      -7.8      0.000      0.000
REMARK SMILES CC(=O)CCc1ccc2c(c1)OCO2
REMARK SMILES IDX 4 1 2 2 1 3 3 4 5 5 6 6 7 7 11 8 8 9 10 10 9 11 12 12 14 13
REMARK SMILES IDX 13 14
REMARK H PARENT
REMARK Flexibility Score: inf
ROOT
ATOM      1  C   UNL     1       5.426   2.939   0.133  1.00  0.00     0.080 C 
ENDROOT
BRANCH   1   2
ATOM      2  C   UNL     1       6.293   3.830   0.953  1.00  0.00     0.130 C 
ATOM      3  C   UNL     1       7.257   4.775   0.326  1.00  0.00     0.087 C 
ATOM      4  O   UNL     1       6.237   3.811   2.172  1.00  0.00    -0.300 OA
ENDBRANCH   1   2
BRANCH   1   5
ATOM      5  C   UNL     1       5.143   1.634   0.852  1.00  0.00     0.043 C 
BRANCH   5   6
ATOM      6  C   UNL     1       5.971   0.532   0.331  1.00  0.00    -0.044 A 
ATOM      7  C   UNL     1       6.306  -0.571   1.124  1.00  0.00     0.008 A 
ATOM      8  C   UNL     1       6.430   0.578  -0.966  1.00  0.00     0.054 A 
ATOM      9  C   UNL     1       7.086  -1.576   0.581  1.00  0.00     0.051 A 
ATOM     10  C   UNL     1       7.217  -0.441  -1.511  1.00  0.00     0.166 A 
ATOM     11  C   UNL     1       7.549  -1.526  -0.731  1.00  0.00     0.165 A 
ATOM     12  O   UNL     1       7.788  -0.625  -2.752  1.00  0.00    -0.454 OA
ATOM     13  O   UNL     1       8.323  -2.364  -1.518  1.00  0.00    -0.454 OA
ATOM     14  C   UNL     1       8.424  -1.875  -2.834  1.00  0.00     0.468 C 
ENDBRANCH   5   6
ENDBRANCH   1   5
TORSDOF 3
ENDMDL
MODEL 2
REMARK VINA RESULT:      -7.7      0.983      1.968
REMARK SMILES CC(=O)CCc1ccc2c(c1)OCO2
REMARK SMILES IDX 4 1 2 2 1 3 3 4 5 5 6 6 7 7 11 8 8 9 10 10 9 11 12 12 14 13
REMARK SMILES IDX 13 14
REMARK H PARENT
REMARK Flexibility Score: inf
ROOT
ATOM      1  C   UNL     1       5.425   2.921   0.208  1.00  0.00     0.080 C 
ENDROOT
BRANCH   1   2
ATOM      2  C   UNL     1       6.268   3.871   0.986  1.00  0.00     0.130 C 
ATOM      3  C   UNL     1       7.244   4.775   0.321  1.00  0.00     0.087 C 
ATOM      4  O   UNL     1       6.181   3.934   2.202  1.00  0.00    -0.300 OA
ENDBRANCH   1   2
BRANCH   1   5
ATOM      5  C   UNL     1       5.252   1.608   0.945  1.00  0.00     0.043 C 
BRANCH   5   6
ATOM      6  C   UNL     1       6.053   0.530   0.338  1.00  0.00    -0.044 A 
ATOM      7  C   UNL     1       6.355   0.522  -1.029  1.00  0.00     0.008 A 
ATOM      8  C   UNL     1       6.525  -0.496   1.125  1.00  0.00     0.054 A 
ATOM      9  C   UNL     1       7.112  -0.515  -1.543  1.00  0.00     0.051 A 
ATOM     10  C   UNL     1       7.291  -1.541   0.601  1.00  0.00     0.166 A 
ATOM     11  C   UNL     1       7.586  -1.551  -0.744  1.00  0.00     0.165 A 
ATOM     12  O   UNL     1       7.866  -2.659   1.166  1.00  0.00    -0.454 OA
ATOM     13  O   UNL     1       8.346  -2.686  -0.979  1.00  0.00    -0.454 OA
ATOM     14  C   UNL     1       8.624  -3.369   0.220  1.00  0.00     0.468 C 
ENDBRANCH   5   6
ENDBRANCH   1   5
TORSDOF 3
ENDMDL
MODEL 3
REMARK VINA RESULT:      -7.6      1.893      2.653
REMARK SMILES CC(=O)CCc1ccc2c(c1)OCO2
REMARK SMILES IDX 4 1 2 2 1 3 3 4 5 5 6 6 7 7 11 8 8 9 10 10 9 11 12 12 14 13
REMARK SMILES IDX 13 14
REMARK H PARENT
REMARK Flexibility Score: inf
ROOT
ATOM      1  C   UNL     1       5.504   1.921   1.260  1.00  0.00     0.080 C 
ENDROOT
BRANCH   1   2
ATOM      2  C   UNL     1       5.048   0.709   1.996  1.00  0.00     0.130 C 
ATOM      3  C   UNL     1       5.915  -0.490   2.139  1.00  0.00     0.087 C 
ATOM      4  O   UNL     1       3.940   0.666   2.506  1.00  0.00    -0.300 OA
ENDBRANCH   1   2
BRANCH   1   5
ATOM      5  C   UNL     1       5.384   1.732  -0.239  1.00  0.00     0.043 C 
BRANCH   5   6
ATOM      6  C   UNL     1       6.554   1.031  -0.797  1.00  0.00    -0.044 A 
ATOM      7  C   UNL     1       7.860   1.465  -0.541  1.00  0.00     0.008 A 
ATOM      8  C   UNL     1       6.371  -0.080  -1.588  1.00  0.00     0.054 A 
ATOM      9  C   UNL     1       8.919   0.767  -1.091  1.00  0.00     0.051 A 
ATOM     10  C   UNL     1       7.445  -0.783  -2.141  1.00  0.00     0.166 A 
ATOM     11  C   UNL     1       8.730  -0.356  -1.891  1.00  0.00     0.165 A 
ATOM     12  O   UNL     1       7.523  -1.899  -2.948  1.00  0.00    -0.454 OA
ATOM     13  O   UNL     1       9.579  -1.227  -2.555  1.00  0.00    -0.454 OA
ATOM     14  C   UNL     1       8.860  -2.273  -3.163  1.00  0.00     0.468 C 
ENDBRANCH   5   6
ENDBRANCH   1   5
TORSDOF 3
ENDMDL
MODEL 4
REMARK VINA RESULT:      -7.5      1.971      3.046
REMARK SMILES CC(=O)CCc1ccc2c(c1)OCO2
REMARK SMILES IDX 4 1 2 2 1 3 3 4 5 5 6 6 7 7 11 8 8 9 10 10 9 11 12 12 14 13
REMARK SMILES IDX 13 14
REMARK H PARENT
REMARK Flexibility Score: inf
ROOT
ATOM      1  C   UNL     1       5.745   1.324  -0.411  1.00  0.00     0.080 C 
ENDROOT
BRANCH   1   2
ATOM      2  C   UNL     1       5.144   1.335   0.951  1.00  0.00     0.130 C 
ATOM      3  C   UNL     1       5.385   0.233   1.920  1.00  0.00     0.087 C 
ATOM      4  O   UNL     1       4.430   2.257   1.314  1.00  0.00    -0.300 OA
ENDBRANCH   1   2
BRANCH   1   5
ATOM      5  C   UNL     1       7.242   1.095  -0.350  1.00  0.00     0.043 C 
BRANCH   5   6
ATOM      6  C   UNL     1       7.621  -0.205  -0.932  1.00  0.00    -0.044 A 
ATOM      7  C   UNL     1       7.709  -0.390  -2.317  1.00  0.00     0.008 A 
ATOM      8  C   UNL     1       7.899  -1.268  -0.104  1.00  0.00     0.054 A 
ATOM      9  C   UNL     1       8.069  -1.633  -2.806  1.00  0.00     0.051 A 
ATOM     10  C   UNL     1       8.264  -2.522  -0.603  1.00  0.00     0.166 A 
ATOM     11  C   UNL     1       8.349  -2.706  -1.965  1.00  0.00     0.165 A 
ATOM     12  O   UNL     1       8.584  -3.718   0.004  1.00  0.00    -0.454 OA
ATOM     13  O   UNL     1       8.725  -4.024  -2.169  1.00  0.00    -0.454 OA
ATOM     14  C   UNL     1       8.973  -4.677  -0.946  1.00  0.00     0.468 C 
ENDBRANCH   5   6
ENDBRANCH   1   5
TORSDOF 3
ENDMDL
MODEL 5
REMARK VINA RESULT:      -7.4      1.833      2.842
REMARK SMILES CC(=O)CCc1ccc2c(c1)OCO2
REMARK SMILES IDX 4 1 2 2 1 3 3 4 5 5 6 6 7 7 11 8 8 9 10 10 9 11 12 12 14 13
REMARK SMILES IDX 13 14
REMARK H PARENT
REMARK Flexibility Score: inf
ROOT
ATOM      1  C   UNL     1       6.311   0.892   1.063  1.00  0.00     0.080 C 
ENDROOT
BRANCH   1   2
ATOM      2  C   UNL     1       5.116   1.768   0.907  1.00  0.00     0.130 C 
ATOM      3  C   UNL     1       4.926   2.621  -0.297  1.00  0.00     0.087 C 
ATOM      4  O   UNL     1       4.254   1.812   1.769  1.00  0.00    -0.300 OA
ENDBRANCH   1   2
BRANCH   1   5
ATOM      5  C   UNL     1       7.280   1.072  -0.089  1.00  0.00     0.043 C 
BRANCH   5   6
ATOM      6  C   UNL     1       7.605  -0.213  -0.734  1.00  0.00    -0.044 A 
ATOM      7  C   UNL     1       7.581  -0.361  -2.125  1.00  0.00     0.008 A 
ATOM      8  C   UNL     1       7.945  -1.298   0.041  1.00  0.00     0.054 A 
ATOM      9  C   UNL     1       7.897  -1.590  -2.675  1.00  0.00     0.051 A 
ATOM     10  C   UNL     1       8.264  -2.539  -0.520  1.00  0.00     0.166 A 
ATOM     11  C   UNL     1       8.240  -2.686  -1.889  1.00  0.00     0.165 A 
ATOM     12  O   UNL     1       8.628  -3.751   0.027  1.00  0.00    -0.454 OA
ATOM     13  O   UNL     1       8.593  -3.999  -2.157  1.00  0.00    -0.454 OA
ATOM     14  C   UNL     1       8.936  -4.685  -0.977  1.00  0.00     0.468 C 
ENDBRANCH   5   6
ENDBRANCH   1   5
TORSDOF 3
ENDMDL
