@<TRIPOS>MOLECULE
/home/cewinharhar/GITHUB/reincatalyze/data/processed/docking_pred/2023-May-22-1902_sub9_nm5_bs15_s42_ex16_mel10_mts1000_k50_ec02_g099_lra9e-4_lrc1e-3/bb509c9d750c31c787a0dfaad7ceec12964b61ea_ligand_9.pdbqt
 14 15 0 0 0
SMALL
GASTEIGER

@<TRIPOS>ATOM
      1  C          5.7450    1.3240   -0.4110 C.3     1  UNL1        0.0800
      2  C          5.1440    1.3350    0.9510 C.2     1  UNL1        0.1300
      3  C          5.3850    0.2330    1.9200 C.3     1  UNL1        0.0870
      4  O          4.4300    2.2570    1.3140 O.2     1  UNL1       -0.3000
      5  C          7.2420    1.0950   -0.3500 C.3     1  UNL1        0.0430
      6  C          7.6210   -0.2050   -0.9320 C.2     1  UNL1       -0.0440
      7  C          7.7090   -0.3900   -2.3170 C.2     1  UNL1        0.0080
      8  C          7.8990   -1.2680   -0.1040 C.2     1  UNL1        0.0540
      9  C          8.0690   -1.6330   -2.8060 C.2     1  UNL1        0.0510
     10  C          8.2640   -2.5220   -0.6030 C.2     1  UNL1        0.1660
     11  C          8.3490   -2.7060   -1.9650 C.2     1  UNL1        0.1650
     12  O          8.5840   -3.7180    0.0040 O.2     1  UNL1       -0.4540
     13  O          8.7250   -4.0240   -2.1690 O.2     1  UNL1       -0.4540
     14  C          8.9730   -4.6770   -0.9460 C.3     1  UNL1        0.4680
@<TRIPOS>BOND
     1     9     7    1
     2     9    11    2
     3     7     6    2
     4    13    11    1
     5    13    14    1
     6    11    10    1
     7    14    12    1
     8     6     5    1
     9     6     8    1
    10    10     8    2
    11    10    12    1
    12     1     5    1
    13     1     2    1
    14     2     4    2
    15     2     3    1
