@<TRIPOS>MOLECULE
/home/cewinharhar/GITHUB/reincatalyze/data/processed/docking_pred/2023-May-22-1902_sub9_nm5_bs15_s42_ex16_mel10_mts1000_k50_ec02_g099_lra9e-4_lrc1e-3/bb509c9d750c31c787a0dfaad7ceec12964b61ea_ligand_9.pdbqt
 14 15 0 0 0
SMALL
GASTEIGER

@<TRIPOS>ATOM
      1  C          5.4260    2.9390    0.1330 C.3     1  UNL1        0.0800
      2  C          6.2930    3.8300    0.9530 C.2     1  UNL1        0.1300
      3  C          7.2570    4.7750    0.3260 C.3     1  UNL1        0.0870
      4  O          6.2370    3.8110    2.1720 O.2     1  UNL1       -0.3000
      5  C          5.1430    1.6340    0.8520 C.3     1  UNL1        0.0430
      6  C          5.9710    0.5320    0.3310 C.2     1  UNL1       -0.0440
      7  C          6.3060   -0.5710    1.1240 C.2     1  UNL1        0.0080
      8  C          6.4300    0.5780   -0.9660 C.2     1  UNL1        0.0540
      9  C          7.0860   -1.5760    0.5810 C.2     1  UNL1        0.0510
     10  C          7.2170   -0.4410   -1.5110 C.2     1  UNL1        0.1660
     11  C          7.5490   -1.5260   -0.7310 C.2     1  UNL1        0.1650
     12  O          7.7880   -0.6250   -2.7520 O.2     1  UNL1       -0.4540
     13  O          8.3230   -2.3640   -1.5180 O.2     1  UNL1       -0.4540
     14  C          8.4240   -1.8750   -2.8340 C.3     1  UNL1        0.4680
@<TRIPOS>BOND
     1    14    12    1
     2    14    13    1
     3    12    10    1
     4    13    11    1
     5    10     8    1
     6    10    11    2
     7     8     6    2
     8    11     9    1
     9     1     5    1
    10     1     2    1
    11     3     2    1
    12     6     5    1
    13     6     7    1
    14     9     7    2
    15     2     4    2
