@<TRIPOS>MOLECULE
/home/cewinharhar/GITHUB/reincatalyze/data/processed/docking_pred/2023-May-22-1902_sub9_nm5_bs15_s42_ex16_mel10_mts1000_k50_ec02_g099_lra9e-4_lrc1e-3/bb8285001221c2ec88d34c7e342a921234d5c761_ligand_9.pdbqt
 14 15 0 0 0
SMALL
GASTEIGER

@<TRIPOS>ATOM
      1  C          5.4310    1.3370    0.4800 C.3     1  UNL1        0.0800
      2  C          5.1580    0.4620    1.6540 C.2     1  UNL1        0.1300
      3  C          5.8640   -0.8330    1.8450 C.3     1  UNL1        0.0870
      4  O          4.3390    0.7860    2.4990 O.2     1  UNL1       -0.3000
      5  C          6.4840    2.3790    0.8030 C.3     1  UNL1        0.0430
      6  C          7.8420    1.8070    0.7890 C.2     1  UNL1       -0.0440
      7  C          8.4090    1.2950   -0.3830 C.2     1  UNL1        0.0080
      8  C          8.5800    1.7730    1.9500 C.2     1  UNL1        0.0540
      9  C          9.6890    0.7710   -0.3370 C.2     1  UNL1        0.0510
     10  C          9.8730    1.2430    1.9920 C.2     1  UNL1        0.1660
     11  C         10.4320    0.7380    0.8390 C.2     1  UNL1        0.1650
     12  O         10.7960    1.0950    3.0060 O.2     1  UNL1       -0.4540
     13  O         11.6990    0.2870    1.1730 O.2     1  UNL1       -0.4540
     14  C         12.0050    0.5770    2.5160 C.3     1  UNL1        0.4680
@<TRIPOS>BOND
     1     7     9    1
     2     7     6    2
     3     9    11    2
     4     1     5    1
     5     1     2    1
     6     6     5    1
     7     6     8    1
     8    11    13    1
     9    11    10    1
    10    13    14    1
    11     2     3    1
    12     2     4    2
    13     8    10    2
    14    10    12    1
    15    14    12    1
