@<TRIPOS>MOLECULE
/home/cewinharhar/GITHUB/reincatalyze/data/processed/docking_pred/2023-May-22-1902_sub9_nm5_bs15_s42_ex16_mel10_mts1000_k50_ec02_g099_lra9e-4_lrc1e-3/bb8285001221c2ec88d34c7e342a921234d5c761_ligand_9.pdbqt
 14 15 0 0 0
SMALL
GASTEIGER

@<TRIPOS>ATOM
      1  C          5.7530    3.1890    0.1740 C.3     1  UNL1        0.0800
      2  C          6.5760    3.7310    1.2910 C.2     1  UNL1        0.1300
      3  C          8.0280    3.4310    1.4080 C.3     1  UNL1        0.0870
      4  O          6.0780    4.4420    2.1490 O.2     1  UNL1       -0.3000
      5  C          5.0740    1.8930    0.5690 C.3     1  UNL1        0.0430
      6  C          5.8850    0.7180    0.2040 C.2     1  UNL1       -0.0440
      7  C          6.1930   -0.2790    1.1370 C.2     1  UNL1        0.0080
      8  C          6.3550    0.5860   -1.0830 C.2     1  UNL1        0.0540
      9  C          6.9580   -1.3590    0.7370 C.2     1  UNL1        0.0510
     10  C          7.1270   -0.5090   -1.4830 C.2     1  UNL1        0.1660
     11  C          7.4310   -1.4890   -0.5650 C.2     1  UNL1        0.1650
     12  O          7.7040   -0.8630   -2.6840 O.2     1  UNL1       -0.4540
     13  O          8.1960   -2.4360   -1.2290 O.2     1  UNL1       -0.4540
     14  C          8.3160   -2.1240   -2.5960 C.3     1  UNL1        0.4680
@<TRIPOS>BOND
     1    12    14    1
     2    12    10    1
     3    14    13    1
     4    10     8    1
     5    10    11    2
     6    13    11    1
     7     8     6    2
     8    11     9    1
     9     1     5    1
    10     1     2    1
    11     6     5    1
    12     6     7    1
    13     9     7    2
    14     2     3    1
    15     2     4    2
