MODEL 1
REMARK VINA RESULT:      -7.5      0.000      0.000
REMARK SMILES CC(=O)CCc1ccc2c(c1)OCO2
REMARK SMILES IDX 4 1 2 2 1 3 3 4 5 5 6 6 7 7 11 8 8 9 10 10 9 11 12 12 14 13
REMARK SMILES IDX 13 14
REMARK H PARENT
REMARK Flexibility Score: inf
ROOT
ATOM      1  C   UNL     1       5.753   3.189   0.174  1.00  0.00     0.080 C 
ENDROOT
BRANCH   1   2
ATOM      2  C   UNL     1       6.576   3.731   1.291  1.00  0.00     0.130 C 
ATOM      3  C   UNL     1       8.028   3.431   1.408  1.00  0.00     0.087 C 
ATOM      4  O   UNL     1       6.078   4.442   2.149  1.00  0.00    -0.300 OA
ENDBRANCH   1   2
BRANCH   1   5
ATOM      5  C   UNL     1       5.074   1.893   0.569  1.00  0.00     0.043 C 
BRANCH   5   6
ATOM      6  C   UNL     1       5.885   0.718   0.204  1.00  0.00    -0.044 A 
ATOM      7  C   UNL     1       6.193  -0.279   1.137  1.00  0.00     0.008 A 
ATOM      8  C   UNL     1       6.355   0.586  -1.083  1.00  0.00     0.054 A 
ATOM      9  C   UNL     1       6.958  -1.359   0.737  1.00  0.00     0.051 A 
ATOM     10  C   UNL     1       7.127  -0.509  -1.483  1.00  0.00     0.166 A 
ATOM     11  C   UNL     1       7.431  -1.489  -0.565  1.00  0.00     0.165 A 
ATOM     12  O   UNL     1       7.704  -0.863  -2.684  1.00  0.00    -0.454 OA
ATOM     13  O   UNL     1       8.196  -2.436  -1.229  1.00  0.00    -0.454 OA
ATOM     14  C   UNL     1       8.316  -2.124  -2.596  1.00  0.00     0.468 C 
ENDBRANCH   5   6
ENDBRANCH   1   5
TORSDOF 3
ENDMDL
MODEL 2
REMARK VINA RESULT:      -7.3      0.924      1.912
REMARK SMILES CC(=O)CCc1ccc2c(c1)OCO2
REMARK SMILES IDX 4 1 2 2 1 3 3 4 5 5 6 6 7 7 11 8 8 9 10 10 9 11 12 12 14 13
REMARK SMILES IDX 13 14
REMARK H PARENT
REMARK Flexibility Score: inf
ROOT
ATOM      1  C   UNL     1       5.546   3.074   0.235  1.00  0.00     0.080 C 
ENDROOT
BRANCH   1   2
ATOM      2  C   UNL     1       6.433   3.750   1.221  1.00  0.00     0.130 C 
ATOM      3  C   UNL     1       7.898   3.498   1.256  1.00  0.00     0.087 C 
ATOM      4  O   UNL     1       5.978   4.537   2.036  1.00  0.00    -0.300 OA
ENDBRANCH   1   2
BRANCH   1   5
ATOM      5  C   UNL     1       5.097   1.716   0.738  1.00  0.00     0.043 C 
BRANCH   5   6
ATOM      6  C   UNL     1       5.940   0.630   0.208  1.00  0.00    -0.044 A 
ATOM      7  C   UNL     1       6.344   0.604  -1.132  1.00  0.00     0.008 A 
ATOM      8  C   UNL     1       6.347  -0.387   1.041  1.00  0.00     0.054 A 
ATOM      9  C   UNL     1       7.136  -0.441  -1.573  1.00  0.00     0.051 A 
ATOM     10  C   UNL     1       7.148  -1.440   0.591  1.00  0.00     0.166 A 
ATOM     11  C   UNL     1       7.546  -1.467  -0.728  1.00  0.00     0.165 A 
ATOM     12  O   UNL     1       7.676  -2.552   1.212  1.00  0.00    -0.454 OA
ATOM     13  O   UNL     1       8.319  -2.606  -0.890  1.00  0.00    -0.454 OA
ATOM     14  C   UNL     1       8.502  -3.275   0.336  1.00  0.00     0.468 C 
ENDBRANCH   5   6
ENDBRANCH   1   5
TORSDOF 3
ENDMDL
MODEL 3
REMARK VINA RESULT:      -7.3      1.208      1.509
REMARK SMILES CC(=O)CCc1ccc2c(c1)OCO2
REMARK SMILES IDX 4 1 2 2 1 3 3 4 5 5 6 6 7 7 11 8 8 9 10 10 9 11 12 12 14 13
REMARK SMILES IDX 13 14
REMARK H PARENT
REMARK Flexibility Score: inf
ROOT
ATOM      1  C   UNL     1       6.061   3.330   0.074  1.00  0.00     0.080 C 
ENDROOT
BRANCH   1   2
ATOM      2  C   UNL     1       6.591   3.804   1.383  1.00  0.00     0.130 C 
ATOM      3  C   UNL     1       7.978   3.497   1.821  1.00  0.00     0.087 C 
ATOM      4  O   UNL     1       5.895   4.463   2.139  1.00  0.00    -0.300 OA
ENDBRANCH   1   2
BRANCH   1   5
ATOM      5  C   UNL     1       5.032   2.233   0.261  1.00  0.00     0.043 C 
BRANCH   5   6
ATOM      6  C   UNL     1       5.660   0.952   0.631  1.00  0.00    -0.044 A 
ATOM      7  C   UNL     1       5.379   0.322   1.848  1.00  0.00     0.008 A 
ATOM      8  C   UNL     1       6.544   0.351  -0.236  1.00  0.00     0.054 A 
ATOM      9  C   UNL     1       5.998  -0.880   2.141  1.00  0.00     0.051 A 
ATOM     10  C   UNL     1       7.167  -0.864   0.064  1.00  0.00     0.166 A 
ATOM     11  C   UNL     1       6.892  -1.484   1.263  1.00  0.00     0.165 A 
ATOM     12  O   UNL     1       8.070  -1.651  -0.619  1.00  0.00    -0.454 OA
ATOM     13  O   UNL     1       7.638  -2.652   1.290  1.00  0.00    -0.454 OA
ATOM     14  C   UNL     1       8.329  -2.843   0.079  1.00  0.00     0.468 C 
ENDBRANCH   5   6
ENDBRANCH   1   5
TORSDOF 3
ENDMDL
MODEL 4
REMARK VINA RESULT:      -7.1      1.483      5.324
REMARK SMILES CC(=O)CCc1ccc2c(c1)OCO2
REMARK SMILES IDX 4 1 2 2 1 3 3 4 5 5 6 6 7 7 11 8 8 9 10 10 9 11 12 12 14 13
REMARK SMILES IDX 13 14
REMARK H PARENT
REMARK Flexibility Score: inf
ROOT
ATOM      1  C   UNL     1       7.021  -1.376  -0.885  1.00  0.00     0.080 C 
ENDROOT
BRANCH   1   2
ATOM      2  C   UNL     1       7.560  -1.699   0.465  1.00  0.00     0.130 C 
ATOM      3  C   UNL     1       6.697  -1.680   1.676  1.00  0.00     0.087 C 
ATOM      4  O   UNL     1       8.735  -1.992   0.617  1.00  0.00    -0.300 OA
ENDBRANCH   1   2
BRANCH   1   5
ATOM      5  C   UNL     1       7.536  -0.038  -1.377  1.00  0.00     0.043 C 
BRANCH   5   6
ATOM      6  C   UNL     1       6.995   1.081  -0.584  1.00  0.00    -0.044 A 
ATOM      7  C   UNL     1       5.622   1.350  -0.537  1.00  0.00     0.008 A 
ATOM      8  C   UNL     1       7.851   1.885   0.133  1.00  0.00     0.054 A 
ATOM      9  C   UNL     1       5.172   2.412   0.225  1.00  0.00     0.051 A 
ATOM     10  C   UNL     1       7.391   2.958   0.902  1.00  0.00     0.166 A 
ATOM     11  C   UNL     1       6.041   3.224   0.948  1.00  0.00     0.165 A 
ATOM     12  O   UNL     1       8.030   3.891   1.691  1.00  0.00    -0.454 OA
ATOM     13  O   UNL     1       5.877   4.325   1.774  1.00  0.00    -0.454 OA
ATOM     14  C   UNL     1       7.103   4.724   2.339  1.00  0.00     0.468 C 
ENDBRANCH   5   6
ENDBRANCH   1   5
TORSDOF 3
ENDMDL
MODEL 5
REMARK VINA RESULT:      -7.1      3.264      4.301
REMARK SMILES CC(=O)CCc1ccc2c(c1)OCO2
REMARK SMILES IDX 4 1 2 2 1 3 3 4 5 5 6 6 7 7 11 8 8 9 10 10 9 11 12 12 14 13
REMARK SMILES IDX 13 14
REMARK H PARENT
REMARK Flexibility Score: inf
ROOT
ATOM      1  C   UNL     1       5.431   1.337   0.480  1.00  0.00     0.080 C 
ENDROOT
BRANCH   1   2
ATOM      2  C   UNL     1       5.158   0.462   1.654  1.00  0.00     0.130 C 
ATOM      3  C   UNL     1       5.864  -0.833   1.845  1.00  0.00     0.087 C 
ATOM      4  O   UNL     1       4.339   0.786   2.499  1.00  0.00    -0.300 OA
ENDBRANCH   1   2
BRANCH   1   5
ATOM      5  C   UNL     1       6.484   2.379   0.803  1.00  0.00     0.043 C 
BRANCH   5   6
ATOM      6  C   UNL     1       7.842   1.807   0.789  1.00  0.00    -0.044 A 
ATOM      7  C   UNL     1       8.409   1.295  -0.383  1.00  0.00     0.008 A 
ATOM      8  C   UNL     1       8.580   1.773   1.950  1.00  0.00     0.054 A 
ATOM      9  C   UNL     1       9.689   0.771  -0.337  1.00  0.00     0.051 A 
ATOM     10  C   UNL     1       9.873   1.243   1.992  1.00  0.00     0.166 A 
ATOM     11  C   UNL     1      10.432   0.738   0.839  1.00  0.00     0.165 A 
ATOM     12  O   UNL     1      10.796   1.095   3.006  1.00  0.00    -0.454 OA
ATOM     13  O   UNL     1      11.699   0.287   1.173  1.00  0.00    -0.454 OA
ATOM     14  C   UNL     1      12.005   0.577   2.516  1.00  0.00     0.468 C 
ENDBRANCH   5   6
ENDBRANCH   1   5
TORSDOF 3
ENDMDL
