@<TRIPOS>MOLECULE
/home/cewinharhar/GITHUB/reincatalyze/data/processed/docking_pred/2023-May-22-1902_sub9_nm5_bs15_s42_ex16_mel10_mts1000_k50_ec02_g099_lra9e-4_lrc1e-3/bb8285001221c2ec88d34c7e342a921234d5c761_ligand_9.pdbqt
 14 15 0 0 0
SMALL
GASTEIGER

@<TRIPOS>ATOM
      1  C          7.0210   -1.3760   -0.8850 C.3     1  UNL1        0.0800
      2  C          7.5600   -1.6990    0.4650 C.2     1  UNL1        0.1300
      3  C          6.6970   -1.6800    1.6760 C.3     1  UNL1        0.0870
      4  O          8.7350   -1.9920    0.6170 O.2     1  UNL1       -0.3000
      5  C          7.5360   -0.0380   -1.3770 C.3     1  UNL1        0.0430
      6  C          6.9950    1.0810   -0.5840 C.2     1  UNL1       -0.0440
      7  C          5.6220    1.3500   -0.5370 C.2     1  UNL1        0.0080
      8  C          7.8510    1.8850    0.1330 C.2     1  UNL1        0.0540
      9  C          5.1720    2.4120    0.2250 C.2     1  UNL1        0.0510
     10  C          7.3910    2.9580    0.9020 C.2     1  UNL1        0.1660
     11  C          6.0410    3.2240    0.9480 C.2     1  UNL1        0.1650
     12  O          8.0300    3.8910    1.6910 O.2     1  UNL1       -0.4540
     13  O          5.8770    4.3250    1.7740 O.2     1  UNL1       -0.4540
     14  C          7.1030    4.7240    2.3390 C.3     1  UNL1        0.4680
@<TRIPOS>BOND
     1     5     1    1
     2     5     6    1
     3     1     2    1
     4     6     7    2
     5     6     8    1
     6     7     9    1
     7     8    10    2
     8     9    11    2
     9     2     4    2
    10     2     3    1
    11    10    11    1
    12    10    12    1
    13    11    13    1
    14    12    14    1
    15    13    14    1
