@<TRIPOS>MOLECULE
/home/cewinharhar/GITHUB/reincatalyze/data/processed/docking_pred/2023-May-22-1902_sub9_nm5_bs15_s42_ex16_mel10_mts1000_k50_ec02_g099_lra9e-4_lrc1e-3/bb8285001221c2ec88d34c7e342a921234d5c761_ligand_9.pdbqt
 14 15 0 0 0
SMALL
GASTEIGER

@<TRIPOS>ATOM
      1  C          5.5460    3.0740    0.2350 C.3     1  UNL1        0.0800
      2  C          6.4330    3.7500    1.2210 C.2     1  UNL1        0.1300
      3  C          7.8980    3.4980    1.2560 C.3     1  UNL1        0.0870
      4  O          5.9780    4.5370    2.0360 O.2     1  UNL1       -0.3000
      5  C          5.0970    1.7160    0.7380 C.3     1  UNL1        0.0430
      6  C          5.9400    0.6300    0.2080 C.2     1  UNL1       -0.0440
      7  C          6.3440    0.6040   -1.1320 C.2     1  UNL1        0.0080
      8  C          6.3470   -0.3870    1.0410 C.2     1  UNL1        0.0540
      9  C          7.1360   -0.4410   -1.5730 C.2     1  UNL1        0.0510
     10  C          7.1480   -1.4400    0.5910 C.2     1  UNL1        0.1660
     11  C          7.5460   -1.4670   -0.7280 C.2     1  UNL1        0.1650
     12  O          7.6760   -2.5520    1.2120 O.2     1  UNL1       -0.4540
     13  O          8.3190   -2.6060   -0.8900 O.2     1  UNL1       -0.4540
     14  C          8.5020   -3.2750    0.3360 C.3     1  UNL1        0.4680
@<TRIPOS>BOND
     1     9     7    1
     2     9    11    2
     3     7     6    2
     4    13    11    1
     5    13    14    1
     6    11    10    1
     7     6     5    1
     8     6     8    1
     9     1     5    1
    10     1     2    1
    11    14    12    1
    12    10     8    2
    13    10    12    1
    14     2     3    1
    15     2     4    2
