@<TRIPOS>MOLECULE
/home/cewinharhar/GITHUB/reincatalyze/data/processed/docking_pred/2023-May-22-1902_sub9_nm5_bs15_s42_ex16_mel10_mts1000_k50_ec02_g099_lra9e-4_lrc1e-3/bde4f716ac8ce10fa2b7126593b1b8cc9fcb83f2_ligand_9.pdbqt
 14 15 0 0 0
SMALL
GASTEIGER

@<TRIPOS>ATOM
      1  C          5.5040    1.9250    1.2570 C.3     1  UNL1        0.0800
      2  C          5.0620    0.7090    1.9950 C.2     1  UNL1        0.1300
      3  C          5.9470   -0.4760    2.1490 C.3     1  UNL1        0.0870
      4  O          3.9510    0.6510    2.4980 O.2     1  UNL1       -0.3000
      5  C          5.3820    1.7330   -0.2420 C.3     1  UNL1        0.0430
      6  C          6.5540    1.0350   -0.8000 C.2     1  UNL1       -0.0440
      7  C          7.8590    1.4720   -0.5440 C.2     1  UNL1        0.0080
      8  C          6.3720   -0.0770   -1.5910 C.2     1  UNL1        0.0540
      9  C          8.9190    0.7750   -1.0950 C.2     1  UNL1        0.0510
     10  C          7.4480   -0.7770   -2.1450 C.2     1  UNL1        0.1660
     11  C          8.7320   -0.3470   -1.8950 C.2     1  UNL1        0.1650
     12  O          7.5280   -1.8920   -2.9520 O.2     1  UNL1       -0.4540
     13  O          9.5820   -1.2170   -2.5590 O.2     1  UNL1       -0.4540
     14  C          8.8650   -2.2640   -3.1670 C.3     1  UNL1        0.4680
@<TRIPOS>BOND
     1    14    12    1
     2    14    13    1
     3    12    10    1
     4    13    11    1
     5    10    11    2
     6    10     8    1
     7    11     9    1
     8     8     6    2
     9     9     7    2
    10     6     7    1
    11     6     5    1
    12     5     1    1
    13     1     2    1
    14     2     3    1
    15     2     4    2
