@<TRIPOS>MOLECULE
/home/cewinharhar/GITHUB/reincatalyze/data/processed/docking_pred/2023-May-22-1902_sub9_nm5_bs15_s42_ex16_mel10_mts1000_k50_ec02_g099_lra9e-4_lrc1e-3/bde4f716ac8ce10fa2b7126593b1b8cc9fcb83f2_ligand_9.pdbqt
 14 15 0 0 0
SMALL
GASTEIGER

@<TRIPOS>ATOM
      1  C          5.4020    2.9360    0.1150 C.3     1  UNL1        0.0800
      2  C          6.3040    3.7750    0.9530 C.2     1  UNL1        0.1300
      3  C          7.2260    4.7740    0.3490 C.3     1  UNL1        0.0870
      4  O          6.3120    3.6650    2.1690 O.2     1  UNL1       -0.3000
      5  C          5.0830    1.6200    0.7970 C.3     1  UNL1        0.0430
      6  C          5.9440    0.5290    0.3090 C.2     1  UNL1       -0.0440
      7  C          6.3330   -0.5270    1.1420 C.2     1  UNL1        0.0080
      8  C          6.3810    0.5360   -0.9960 C.2     1  UNL1        0.0540
      9  C          7.1420   -1.5240    0.6280 C.2     1  UNL1        0.0510
     10  C          7.1980   -0.4750   -1.5110 C.2     1  UNL1        0.1660
     11  C          7.5820   -1.5130   -0.6920 C.2     1  UNL1        0.1650
     12  O          7.7560   -0.6910   -2.7530 O.2     1  UNL1       -0.4540
     13  O          8.3750   -2.3550   -1.4560 O.2     1  UNL1       -0.4540
     14  C          8.4370   -1.9190   -2.7930 C.3     1  UNL1        0.4680
@<TRIPOS>BOND
     1    14    12    1
     2    14    13    1
     3    12    10    1
     4    10     8    1
     5    10    11    2
     6    13    11    1
     7     8     6    2
     8    11     9    1
     9     1     5    1
    10     1     2    1
    11     6     5    1
    12     6     7    1
    13     3     2    1
    14     9     7    2
    15     2     4    2
