@<TRIPOS>MOLECULE
/home/cewinharhar/GITHUB/reincatalyze/data/processed/docking_pred/2023-May-22-1902_sub9_nm5_bs15_s42_ex16_mel10_mts1000_k50_ec02_g099_lra9e-4_lrc1e-3/bde4f716ac8ce10fa2b7126593b1b8cc9fcb83f2_ligand_9.pdbqt
 14 15 0 0 0
SMALL
GASTEIGER

@<TRIPOS>ATOM
      1  C          5.7400    1.3300   -0.3120 C.3     1  UNL1        0.0800
      2  C          5.1700    1.2920    1.0640 C.2     1  UNL1        0.1300
      3  C          5.3210    0.0990    1.9390 C.3     1  UNL1        0.0870
      4  O          4.5580    2.2470    1.5160 O.2     1  UNL1       -0.3000
      5  C          7.2400    1.1160   -0.2930 C.3     1  UNL1        0.0430
      6  C          7.6150   -0.1780   -0.8910 C.2     1  UNL1       -0.0440
      7  C          7.6960   -0.3480   -2.2780 C.2     1  UNL1        0.0080
      8  C          7.8960   -1.2500   -0.0760 C.2     1  UNL1        0.0540
      9  C          8.0540   -1.5850   -2.7820 C.2     1  UNL1        0.0510
     10  C          8.2580   -2.4990   -0.5910 C.2     1  UNL1        0.1660
     11  C          8.3370   -2.6670   -1.9550 C.2     1  UNL1        0.1650
     12  O          8.5800   -3.7020    0.0010 O.2     1  UNL1       -0.4540
     13  O          8.7110   -3.9840   -2.1750 O.2     1  UNL1       -0.4540
     14  C          8.9640   -4.6500   -0.9610 C.3     1  UNL1        0.4680
@<TRIPOS>BOND
     1     9     7    1
     2     9    11    2
     3     7     6    2
     4    13    11    1
     5    13    14    1
     6    11    10    1
     7    14    12    1
     8     6     5    1
     9     6     8    1
    10    10     8    2
    11    10    12    1
    12     1     5    1
    13     1     2    1
    14     2     4    2
    15     2     3    1
