@<TRIPOS>MOLECULE
/home/cewinharhar/GITHUB/reincatalyze/data/processed/docking_pred/2023-May-22-1902_sub9_nm5_bs15_s42_ex16_mel10_mts1000_k50_ec02_g099_lra9e-4_lrc1e-3/bdfc35a41e3d78d3bf59a6b88613069133e00868_ligand_9.pdbqt
 14 15 0 0 0
SMALL
GASTEIGER

@<TRIPOS>ATOM
      1  C          5.4030    2.9720    0.1550 C.3     1  UNL1        0.0800
      2  C          6.2280    3.9130    0.9620 C.2     1  UNL1        0.1300
      3  C          7.2670    4.7750    0.3360 C.3     1  UNL1        0.0870
      4  O          6.0750    4.0040    2.1690 O.2     1  UNL1       -0.3000
      5  C          5.1930    1.6590    0.8840 C.3     1  UNL1        0.0430
      6  C          6.0040    0.5750    0.3020 C.2     1  UNL1       -0.0440
      7  C          6.3290    0.5520   -1.0590 C.2     1  UNL1        0.0080
      8  C          6.4610   -0.4430    1.1080 C.2     1  UNL1        0.0540
      9  C          7.0940   -0.4910   -1.5490 C.2     1  UNL1        0.0510
     10  C          7.2350   -1.4940    0.6080 C.2     1  UNL1        0.1660
     11  C          7.5540   -1.5190   -0.7310 C.2     1  UNL1        0.1650
     12  O          7.8000   -2.6070    1.1950 O.2     1  UNL1       -0.4540
     13  O          8.3160   -2.6570   -0.9410 O.2     1  UNL1       -0.4540
     14  C          8.5730   -3.3270    0.2700 C.3     1  UNL1        0.4680
@<TRIPOS>BOND
     1     9     7    1
     2     9    11    2
     3     7     6    2
     4    13    11    1
     5    13    14    1
     6    11    10    1
     7     1     5    1
     8     1     2    1
     9    14    12    1
    10     6     5    1
    11     6     8    1
    12     3     2    1
    13    10     8    2
    14    10    12    1
    15     2     4    2
