@<TRIPOS>MOLECULE
/home/cewinharhar/GITHUB/reincatalyze/data/processed/docking_pred/2023-May-22-1902_sub9_nm5_bs15_s42_ex16_mel10_mts1000_k50_ec02_g099_lra9e-4_lrc1e-3/bdfc35a41e3d78d3bf59a6b88613069133e00868_ligand_9.pdbqt
 14 15 0 0 0
SMALL
GASTEIGER

@<TRIPOS>ATOM
      1  C          5.9660    1.6040    1.1300 C.3     1  UNL1        0.0800
      2  C          5.4460    0.4880    1.9680 C.2     1  UNL1        0.1300
      3  C          6.2680   -0.7170    2.2610 C.3     1  UNL1        0.0870
      4  O          4.3220    0.5300    2.4400 O.2     1  UNL1       -0.3000
      5  C          5.7010    1.3580   -0.3420 C.3     1  UNL1        0.0430
      6  C          6.8040    0.6170   -0.9790 C.2     1  UNL1       -0.0440
      7  C          8.1360    1.0240   -0.8420 C.2     1  UNL1        0.0080
      8  C          6.5290   -0.5050   -1.7280 C.2     1  UNL1        0.0540
      9  C          9.1290    0.2880   -1.4630 C.2     1  UNL1        0.0510
     10  C          7.5370   -1.2450   -2.3530 C.2     1  UNL1        0.1660
     11  C          8.8480   -0.8450   -2.2190 C.2     1  UNL1        0.1650
     12  O          7.5210   -2.3780   -3.1380 O.2     1  UNL1       -0.4540
     13  O          9.6180   -1.7510   -2.9320 O.2     1  UNL1       -0.4540
     14  C          8.8260   -2.7900   -3.4550 C.3     1  UNL1        0.4680
@<TRIPOS>BOND
     1    14    12    1
     2    14    13    1
     3    12    10    1
     4    13    11    1
     5    10    11    2
     6    10     8    1
     7    11     9    1
     8     8     6    2
     9     9     7    2
    10     6     7    1
    11     6     5    1
    12     5     1    1
    13     1     2    1
    14     2     3    1
    15     2     4    2
