@<TRIPOS>MOLECULE
/home/cewinharhar/GITHUB/reincatalyze/data/processed/docking_pred/2023-May-22-1902_sub9_nm5_bs15_s42_ex16_mel10_mts1000_k50_ec02_g099_lra9e-4_lrc1e-3/bdfc35a41e3d78d3bf59a6b88613069133e00868_ligand_9.pdbqt
 14 15 0 0 0
SMALL
GASTEIGER

@<TRIPOS>ATOM
      1  C          5.5930    2.8100    0.1360 C.3     1  UNL1        0.0800
      2  C          6.4150    3.6880    1.0150 C.2     1  UNL1        0.1300
      3  C          7.2640    4.7750    0.4590 C.3     1  UNL1        0.0870
      4  O          6.4150    3.5390    2.2260 O.2     1  UNL1       -0.3000
      5  C          5.2970    1.4830    0.8060 C.3     1  UNL1        0.0430
      6  C          6.1360    0.3990    0.2650 C.2     1  UNL1       -0.0440
      7  C          6.5630   -0.6670    1.0660 C.2     1  UNL1        0.0080
      8  C          6.5130    0.4240   -1.0580 C.2     1  UNL1        0.0540
      9  C          7.3480   -1.6560    0.5030 C.2     1  UNL1        0.0510
     10  C          7.3070   -0.5800   -1.6230 C.2     1  UNL1        0.1660
     11  C          7.7280   -1.6280   -0.8350 C.2     1  UNL1        0.1650
     12  O          7.8080   -0.7790   -2.8910 O.2     1  UNL1       -0.4540
     13  O          8.4860   -2.4580   -1.6450 O.2     1  UNL1       -0.4540
     14  C          8.4880   -2.0050   -2.9780 C.3     1  UNL1        0.4680
@<TRIPOS>BOND
     1    14    12    1
     2    14    13    1
     3    12    10    1
     4    13    11    1
     5    10     8    1
     6    10    11    2
     7     8     6    2
     8    11     9    1
     9     1     5    1
    10     1     2    1
    11     6     5    1
    12     6     7    1
    13     3     2    1
    14     9     7    2
    15     2     4    2
