@<TRIPOS>MOLECULE
/home/cewinharhar/GITHUB/reincatalyze/data/processed/docking_pred/2023-May-22-1902_sub9_nm5_bs15_s42_ex16_mel10_mts1000_k50_ec02_g099_lra9e-4_lrc1e-3/bdfc35a41e3d78d3bf59a6b88613069133e00868_ligand_9.pdbqt
 14 15 0 0 0
SMALL
GASTEIGER

@<TRIPOS>ATOM
      1  C          5.5200    2.5780   -0.2380 C.3     1  UNL1        0.0800
      2  C          6.1390    3.4950    0.7590 C.2     1  UNL1        0.1300
      3  C          7.0370    4.6070    0.3460 C.3     1  UNL1        0.0870
      4  O          5.9260    3.3590    1.9530 O.2     1  UNL1       -0.3000
      5  C          5.7110    1.1270    0.1570 C.3     1  UNL1        0.0430
      6  C          6.7980    0.4900   -0.6080 C.2     1  UNL1       -0.0440
      7  C          8.0880    1.0330   -0.6380 C.2     1  UNL1        0.0080
      8  C          6.5510   -0.6660   -1.3120 C.2     1  UNL1        0.0540
      9  C          9.0690    0.3910   -1.3730 C.2     1  UNL1        0.0510
     10  C          7.5460   -1.3110   -2.0530 C.2     1  UNL1        0.1660
     11  C          8.8150   -0.7780   -2.0840 C.2     1  UNL1        0.1650
     12  O          7.5510   -2.4530   -2.8250 O.2     1  UNL1       -0.4540
     13  O          9.5810   -1.6130   -2.8820 O.2     1  UNL1       -0.4540
     14  C          8.8430   -2.7360   -3.2990 C.3     1  UNL1        0.4680
@<TRIPOS>BOND
     1    14    13    1
     2    14    12    1
     3    13    11    1
     4    12    10    1
     5    11    10    2
     6    11     9    1
     7    10     8    1
     8     9     7    2
     9     8     6    2
    10     7     6    1
    11     6     5    1
    12     1     5    1
    13     1     2    1
    14     3     2    1
    15     2     4    2
