MODEL 1
REMARK VINA RESULT:      -8.1      0.000      0.000
REMARK SMILES CC(=O)CCc1ccc2c(c1)OCO2
REMARK SMILES IDX 4 1 2 2 1 3 3 4 5 5 6 6 7 7 11 8 8 9 10 10 9 11 12 12 14 13
REMARK SMILES IDX 13 14
REMARK H PARENT
REMARK Flexibility Score: inf
ROOT
ATOM      1  C   UNL     1       5.966   1.604   1.130  1.00  0.00     0.080 C 
ENDROOT
BRANCH   1   2
ATOM      2  C   UNL     1       5.446   0.488   1.968  1.00  0.00     0.130 C 
ATOM      3  C   UNL     1       6.268  -0.717   2.261  1.00  0.00     0.087 C 
ATOM      4  O   UNL     1       4.322   0.530   2.440  1.00  0.00    -0.300 OA
ENDBRANCH   1   2
BRANCH   1   5
ATOM      5  C   UNL     1       5.701   1.358  -0.342  1.00  0.00     0.043 C 
BRANCH   5   6
ATOM      6  C   UNL     1       6.804   0.617  -0.979  1.00  0.00    -0.044 A 
ATOM      7  C   UNL     1       8.136   1.024  -0.842  1.00  0.00     0.008 A 
ATOM      8  C   UNL     1       6.529  -0.505  -1.728  1.00  0.00     0.054 A 
ATOM      9  C   UNL     1       9.129   0.288  -1.463  1.00  0.00     0.051 A 
ATOM     10  C   UNL     1       7.537  -1.245  -2.353  1.00  0.00     0.166 A 
ATOM     11  C   UNL     1       8.848  -0.845  -2.219  1.00  0.00     0.165 A 
ATOM     12  O   UNL     1       7.521  -2.378  -3.138  1.00  0.00    -0.454 OA
ATOM     13  O   UNL     1       9.618  -1.751  -2.932  1.00  0.00    -0.454 OA
ATOM     14  C   UNL     1       8.826  -2.790  -3.455  1.00  0.00     0.468 C 
ENDBRANCH   5   6
ENDBRANCH   1   5
TORSDOF 3
ENDMDL
MODEL 2
REMARK VINA RESULT:      -7.7      1.411      2.043
REMARK SMILES CC(=O)CCc1ccc2c(c1)OCO2
REMARK SMILES IDX 4 1 2 2 1 3 3 4 5 5 6 6 7 7 11 8 8 9 10 10 9 11 12 12 14 13
REMARK SMILES IDX 13 14
REMARK H PARENT
REMARK Flexibility Score: inf
ROOT
ATOM      1  C   UNL     1       5.520   2.578  -0.238  1.00  0.00     0.080 C 
ENDROOT
BRANCH   1   2
ATOM      2  C   UNL     1       6.139   3.495   0.759  1.00  0.00     0.130 C 
ATOM      3  C   UNL     1       7.037   4.607   0.346  1.00  0.00     0.087 C 
ATOM      4  O   UNL     1       5.926   3.359   1.953  1.00  0.00    -0.300 OA
ENDBRANCH   1   2
BRANCH   1   5
ATOM      5  C   UNL     1       5.711   1.127   0.157  1.00  0.00     0.043 C 
BRANCH   5   6
ATOM      6  C   UNL     1       6.798   0.490  -0.608  1.00  0.00    -0.044 A 
ATOM      7  C   UNL     1       8.088   1.033  -0.638  1.00  0.00     0.008 A 
ATOM      8  C   UNL     1       6.551  -0.666  -1.312  1.00  0.00     0.054 A 
ATOM      9  C   UNL     1       9.069   0.391  -1.373  1.00  0.00     0.051 A 
ATOM     10  C   UNL     1       7.546  -1.311  -2.053  1.00  0.00     0.166 A 
ATOM     11  C   UNL     1       8.815  -0.778  -2.084  1.00  0.00     0.165 A 
ATOM     12  O   UNL     1       7.551  -2.453  -2.825  1.00  0.00    -0.454 OA
ATOM     13  O   UNL     1       9.581  -1.613  -2.882  1.00  0.00    -0.454 OA
ATOM     14  C   UNL     1       8.843  -2.736  -3.299  1.00  0.00     0.468 C 
ENDBRANCH   5   6
ENDBRANCH   1   5
TORSDOF 3
ENDMDL
MODEL 3
REMARK VINA RESULT:      -7.6      2.442      3.161
REMARK SMILES CC(=O)CCc1ccc2c(c1)OCO2
REMARK SMILES IDX 4 1 2 2 1 3 3 4 5 5 6 6 7 7 11 8 8 9 10 10 9 11 12 12 14 13
REMARK SMILES IDX 13 14
REMARK H PARENT
REMARK Flexibility Score: inf
ROOT
ATOM      1  C   UNL     1       5.403   2.972   0.155  1.00  0.00     0.080 C 
ENDROOT
BRANCH   1   2
ATOM      2  C   UNL     1       6.228   3.913   0.962  1.00  0.00     0.130 C 
ATOM      3  C   UNL     1       7.267   4.775   0.336  1.00  0.00     0.087 C 
ATOM      4  O   UNL     1       6.075   4.004   2.169  1.00  0.00    -0.300 OA
ENDBRANCH   1   2
BRANCH   1   5
ATOM      5  C   UNL     1       5.193   1.659   0.884  1.00  0.00     0.043 C 
BRANCH   5   6
ATOM      6  C   UNL     1       6.004   0.575   0.302  1.00  0.00    -0.044 A 
ATOM      7  C   UNL     1       6.329   0.552  -1.059  1.00  0.00     0.008 A 
ATOM      8  C   UNL     1       6.461  -0.443   1.108  1.00  0.00     0.054 A 
ATOM      9  C   UNL     1       7.094  -0.491  -1.549  1.00  0.00     0.051 A 
ATOM     10  C   UNL     1       7.235  -1.494   0.608  1.00  0.00     0.166 A 
ATOM     11  C   UNL     1       7.554  -1.519  -0.731  1.00  0.00     0.165 A 
ATOM     12  O   UNL     1       7.800  -2.607   1.195  1.00  0.00    -0.454 OA
ATOM     13  O   UNL     1       8.316  -2.657  -0.941  1.00  0.00    -0.454 OA
ATOM     14  C   UNL     1       8.573  -3.327   0.270  1.00  0.00     0.468 C 
ENDBRANCH   5   6
ENDBRANCH   1   5
TORSDOF 3
ENDMDL
MODEL 4
REMARK VINA RESULT:      -7.6      1.915      2.661
REMARK SMILES CC(=O)CCc1ccc2c(c1)OCO2
REMARK SMILES IDX 4 1 2 2 1 3 3 4 5 5 6 6 7 7 11 8 8 9 10 10 9 11 12 12 14 13
REMARK SMILES IDX 13 14
REMARK H PARENT
REMARK Flexibility Score: inf
ROOT
ATOM      1  C   UNL     1       5.593   2.810   0.136  1.00  0.00     0.080 C 
ENDROOT
BRANCH   1   2
ATOM      2  C   UNL     1       6.415   3.688   1.015  1.00  0.00     0.130 C 
ATOM      3  C   UNL     1       7.264   4.775   0.459  1.00  0.00     0.087 C 
ATOM      4  O   UNL     1       6.415   3.539   2.226  1.00  0.00    -0.300 OA
ENDBRANCH   1   2
BRANCH   1   5
ATOM      5  C   UNL     1       5.297   1.483   0.806  1.00  0.00     0.043 C 
BRANCH   5   6
ATOM      6  C   UNL     1       6.136   0.399   0.265  1.00  0.00    -0.044 A 
ATOM      7  C   UNL     1       6.563  -0.667   1.066  1.00  0.00     0.008 A 
ATOM      8  C   UNL     1       6.513   0.424  -1.058  1.00  0.00     0.054 A 
ATOM      9  C   UNL     1       7.348  -1.656   0.503  1.00  0.00     0.051 A 
ATOM     10  C   UNL     1       7.307  -0.580  -1.623  1.00  0.00     0.166 A 
ATOM     11  C   UNL     1       7.728  -1.628  -0.835  1.00  0.00     0.165 A 
ATOM     12  O   UNL     1       7.808  -0.779  -2.891  1.00  0.00    -0.454 OA
ATOM     13  O   UNL     1       8.486  -2.458  -1.645  1.00  0.00    -0.454 OA
ATOM     14  C   UNL     1       8.488  -2.005  -2.978  1.00  0.00     0.468 C 
ENDBRANCH   5   6
ENDBRANCH   1   5
TORSDOF 3
ENDMDL
MODEL 5
REMARK VINA RESULT:      -7.3      1.352      1.829
REMARK SMILES CC(=O)CCc1ccc2c(c1)OCO2
REMARK SMILES IDX 4 1 2 2 1 3 3 4 5 5 6 6 7 7 11 8 8 9 10 10 9 11 12 12 14 13
REMARK SMILES IDX 13 14
REMARK H PARENT
REMARK Flexibility Score: inf
ROOT
ATOM      1  C   UNL     1       5.714   0.204   1.003  1.00  0.00     0.080 C 
ENDROOT
BRANCH   1   2
ATOM      2  C   UNL     1       4.946   1.480   0.967  1.00  0.00     0.130 C 
ATOM      3  C   UNL     1       5.139   2.476  -0.121  1.00  0.00     0.087 C 
ATOM      4  O   UNL     1       4.132   1.746   1.835  1.00  0.00    -0.300 OA
ENDBRANCH   1   2
BRANCH   1   5
ATOM      5  C   UNL     1       7.185   0.438   0.718  1.00  0.00     0.043 C 
BRANCH   5   6
ATOM      6  C   UNL     1       7.611  -0.220  -0.529  1.00  0.00    -0.044 A 
ATOM      7  C   UNL     1       7.827   0.508  -1.705  1.00  0.00     0.008 A 
ATOM      8  C   UNL     1       7.807  -1.582  -0.550  1.00  0.00     0.054 A 
ATOM      9  C   UNL     1       8.228  -0.163  -2.846  1.00  0.00     0.051 A 
ATOM     10  C   UNL     1       8.213  -2.256  -1.706  1.00  0.00     0.166 A 
ATOM     11  C   UNL     1       8.424  -1.540  -2.863  1.00  0.00     0.165 A 
ATOM     12  O   UNL     1       8.471  -3.582  -1.978  1.00  0.00    -0.454 OA
ATOM     13  O   UNL     1       8.813  -2.452  -3.832  1.00  0.00    -0.454 OA
ATOM     14  C   UNL     1       8.944  -3.745  -3.291  1.00  0.00     0.468 C 
ENDBRANCH   5   6
ENDBRANCH   1   5
TORSDOF 3
ENDMDL
