@<TRIPOS>MOLECULE
/home/cewinharhar/GITHUB/reincatalyze/data/processed/docking_pred/2023-May-22-1902_sub9_nm5_bs15_s42_ex16_mel10_mts1000_k50_ec02_g099_lra9e-4_lrc1e-3/bdfc35a41e3d78d3bf59a6b88613069133e00868_ligand_9.pdbqt
 14 15 0 0 0
SMALL
GASTEIGER

@<TRIPOS>ATOM
      1  C          5.7140    0.2040    1.0030 C.3     1  UNL1        0.0800
      2  C          4.9460    1.4800    0.9670 C.2     1  UNL1        0.1300
      3  C          5.1390    2.4760   -0.1210 C.3     1  UNL1        0.0870
      4  O          4.1320    1.7460    1.8350 O.2     1  UNL1       -0.3000
      5  C          7.1850    0.4380    0.7180 C.3     1  UNL1        0.0430
      6  C          7.6110   -0.2200   -0.5290 C.2     1  UNL1       -0.0440
      7  C          7.8270    0.5080   -1.7050 C.2     1  UNL1        0.0080
      8  C          7.8070   -1.5820   -0.5500 C.2     1  UNL1        0.0540
      9  C          8.2280   -0.1630   -2.8460 C.2     1  UNL1        0.0510
     10  C          8.2130   -2.2560   -1.7060 C.2     1  UNL1        0.1660
     11  C          8.4240   -1.5400   -2.8630 C.2     1  UNL1        0.1650
     12  O          8.4710   -3.5820   -1.9780 O.2     1  UNL1       -0.4540
     13  O          8.8130   -2.4520   -3.8320 O.2     1  UNL1       -0.4540
     14  C          8.9440   -3.7450   -3.2910 C.3     1  UNL1        0.4680
@<TRIPOS>BOND
     1    13    14    1
     2    13    11    1
     3    14    12    1
     4    11     9    2
     5    11    10    1
     6     9     7    1
     7    12    10    1
     8    10     8    2
     9     7     6    2
    10     8     6    1
    11     6     5    1
    12     3     2    1
    13     5     1    1
    14     2     1    1
    15     2     4    2
