@<TRIPOS>MOLECULE
/home/cewinharhar/GITHUB/reincatalyze/data/processed/docking_pred/2023-May-22-1902_sub9_nm5_bs15_s42_ex16_mel10_mts1000_k50_ec02_g099_lra9e-4_lrc1e-3/be159ddb300952c005bf82764a5ce22912cca304_ligand_9.pdbqt
 14 15 0 0 0
SMALL
GASTEIGER

@<TRIPOS>ATOM
      1  C          6.3980    1.0980    1.2200 C.3     1  UNL1        0.0800
      2  C          5.1090    1.8030    0.9750 C.2     1  UNL1        0.1300
      3  C          4.8580    2.5560   -0.2830 C.3     1  UNL1        0.0870
      4  O          4.2160    1.7830    1.8060 O.2     1  UNL1       -0.3000
      5  C          7.3480    1.2650    0.0510 C.3     1  UNL1        0.0430
      6  C          7.6420   -0.0220   -0.6030 C.2     1  UNL1       -0.0440
      7  C          7.5700   -0.1720   -1.9930 C.2     1  UNL1        0.0080
      8  C          7.9990   -1.1100    0.1610 C.2     1  UNL1        0.0540
      9  C          7.8570   -1.4050   -2.5510 C.2     1  UNL1        0.0510
     10  C          8.2900   -2.3540   -0.4070 C.2     1  UNL1        0.1660
     11  C          8.2170   -2.5020   -1.7750 C.2     1  UNL1        0.1650
     12  O          8.6620   -3.5680    0.1290 O.2     1  UNL1       -0.4540
     13  O          8.5510   -3.8180   -2.0530 O.2     1  UNL1       -0.4540
     14  C          8.9280   -4.5050   -0.8830 C.3     1  UNL1        0.4680
@<TRIPOS>BOND
     1     9     7    1
     2     9    11    2
     3    13    11    1
     4    13    14    1
     5     7     6    2
     6    11    10    1
     7    14    12    1
     8     6     5    1
     9     6     8    1
    10    10    12    1
    11    10     8    2
    12     3     2    1
    13     5     1    1
    14     2     1    1
    15     2     4    2
