MODEL 1
REMARK VINA RESULT:      -8.0      0.000      0.000
REMARK SMILES CC(=O)CCc1ccc2c(c1)OCO2
REMARK SMILES IDX 4 1 2 2 1 3 3 4 5 5 6 6 7 7 11 8 8 9 10 10 9 11 12 12 14 13
REMARK SMILES IDX 13 14
REMARK H PARENT
REMARK Flexibility Score: inf
ROOT
ATOM      1  C   UNL     1       5.429   2.935   0.069  1.00  0.00     0.080 C 
ENDROOT
BRANCH   1   2
ATOM      2  C   UNL     1       6.295   3.789   0.929  1.00  0.00     0.130 C 
ATOM      3  C   UNL     1       7.247   4.773   0.347  1.00  0.00     0.087 C 
ATOM      4  O   UNL     1       6.249   3.704   2.145  1.00  0.00    -0.300 OA
ENDBRANCH   1   2
BRANCH   1   5
ATOM      5  C   UNL     1       5.106   1.619   0.747  1.00  0.00     0.043 C 
BRANCH   5   6
ATOM      6  C   UNL     1       5.960   0.525   0.251  1.00  0.00    -0.044 A 
ATOM      7  C   UNL     1       6.313  -0.557   1.067  1.00  0.00     0.008 A 
ATOM      8  C   UNL     1       6.425   0.555  -1.044  1.00  0.00     0.054 A 
ATOM      9  C   UNL     1       7.116  -1.555   0.547  1.00  0.00     0.051 A 
ATOM     10  C   UNL     1       7.236  -0.457  -1.565  1.00  0.00     0.166 A 
ATOM     11  C   UNL     1       7.585  -1.521  -0.763  1.00  0.00     0.165 A 
ATOM     12  O   UNL     1       7.817  -0.653  -2.800  1.00  0.00    -0.454 OA
ATOM     13  O   UNL     1       8.380  -2.357  -1.530  1.00  0.00    -0.454 OA
ATOM     14  C   UNL     1       8.479  -1.891  -2.855  1.00  0.00     0.468 C 
ENDBRANCH   5   6
ENDBRANCH   1   5
TORSDOF 3
ENDMDL
MODEL 2
REMARK VINA RESULT:      -7.8      0.978      1.962
REMARK SMILES CC(=O)CCc1ccc2c(c1)OCO2
REMARK SMILES IDX 4 1 2 2 1 3 3 4 5 5 6 6 7 7 11 8 8 9 10 10 9 11 12 12 14 13
REMARK SMILES IDX 13 14
REMARK H PARENT
REMARK Flexibility Score: inf
ROOT
ATOM      1  C   UNL     1       5.482   2.894   0.210  1.00  0.00     0.080 C 
ENDROOT
BRANCH   1   2
ATOM      2  C   UNL     1       6.290   3.872   0.991  1.00  0.00     0.130 C 
ATOM      3  C   UNL     1       7.272   4.775   0.334  1.00  0.00     0.087 C 
ATOM      4  O   UNL     1       6.168   3.959   2.203  1.00  0.00    -0.300 OA
ENDBRANCH   1   2
BRANCH   1   5
ATOM      5  C   UNL     1       5.334   1.582   0.956  1.00  0.00     0.043 C 
BRANCH   5   6
ATOM      6  C   UNL     1       6.112   0.503   0.322  1.00  0.00    -0.044 A 
ATOM      7  C   UNL     1       6.401   0.514  -1.047  1.00  0.00     0.008 A 
ATOM      8  C   UNL     1       6.572  -0.545   1.086  1.00  0.00     0.054 A 
ATOM      9  C   UNL     1       7.136  -0.526  -1.587  1.00  0.00     0.051 A 
ATOM     10  C   UNL     1       7.315  -1.594   0.536  1.00  0.00     0.166 A 
ATOM     11  C   UNL     1       7.599  -1.584  -0.811  1.00  0.00     0.165 A 
ATOM     12  O   UNL     1       7.876  -2.732   1.076  1.00  0.00    -0.454 OA
ATOM     13  O   UNL     1       8.337  -2.728  -1.073  1.00  0.00    -0.454 OA
ATOM     14  C   UNL     1       8.613  -3.437   0.111  1.00  0.00     0.468 C 
ENDBRANCH   5   6
ENDBRANCH   1   5
TORSDOF 3
ENDMDL
MODEL 3
REMARK VINA RESULT:      -7.6      1.877      2.616
REMARK SMILES CC(=O)CCc1ccc2c(c1)OCO2
REMARK SMILES IDX 4 1 2 2 1 3 3 4 5 5 6 6 7 7 11 8 8 9 10 10 9 11 12 12 14 13
REMARK SMILES IDX 13 14
REMARK H PARENT
REMARK Flexibility Score: inf
ROOT
ATOM      1  C   UNL     1       5.531   1.927   1.255  1.00  0.00     0.080 C 
ENDROOT
BRANCH   1   2
ATOM      2  C   UNL     1       5.105   0.711   2.003  1.00  0.00     0.130 C 
ATOM      3  C   UNL     1       6.013  -0.453   2.181  1.00  0.00     0.087 C 
ATOM      4  O   UNL     1       3.990   0.635   2.493  1.00  0.00    -0.300 OA
ENDBRANCH   1   2
BRANCH   1   5
ATOM      5  C   UNL     1       5.398   1.728  -0.241  1.00  0.00     0.043 C 
BRANCH   5   6
ATOM      6  C   UNL     1       6.566   1.029  -0.806  1.00  0.00    -0.044 A 
ATOM      7  C   UNL     1       7.873   1.464  -0.554  1.00  0.00     0.008 A 
ATOM      8  C   UNL     1       6.380  -0.081  -1.598  1.00  0.00     0.054 A 
ATOM      9  C   UNL     1       8.930   0.768  -1.110  1.00  0.00     0.051 A 
ATOM     10  C   UNL     1       7.453  -0.781  -2.157  1.00  0.00     0.166 A 
ATOM     11  C   UNL     1       8.739  -0.353  -1.911  1.00  0.00     0.165 A 
ATOM     12  O   UNL     1       7.529  -1.895  -2.967  1.00  0.00    -0.454 OA
ATOM     13  O   UNL     1       9.586  -1.223  -2.581  1.00  0.00    -0.454 OA
ATOM     14  C   UNL     1       8.864  -2.268  -3.188  1.00  0.00     0.468 C 
ENDBRANCH   5   6
ENDBRANCH   1   5
TORSDOF 3
ENDMDL
MODEL 4
REMARK VINA RESULT:      -7.5      1.951      3.026
REMARK SMILES CC(=O)CCc1ccc2c(c1)OCO2
REMARK SMILES IDX 4 1 2 2 1 3 3 4 5 5 6 6 7 7 11 8 8 9 10 10 9 11 12 12 14 13
REMARK SMILES IDX 13 14
REMARK H PARENT
REMARK Flexibility Score: inf
ROOT
ATOM      1  C   UNL     1       5.742   1.313  -0.374  1.00  0.00     0.080 C 
ENDROOT
BRANCH   1   2
ATOM      2  C   UNL     1       5.165   1.317   1.000  1.00  0.00     0.130 C 
ATOM      3  C   UNL     1       5.368   0.178   1.935  1.00  0.00     0.087 C 
ATOM      4  O   UNL     1       4.504   2.261   1.400  1.00  0.00    -0.300 OA
ENDBRANCH   1   2
BRANCH   1   5
ATOM      5  C   UNL     1       7.242   1.100  -0.340  1.00  0.00     0.043 C 
BRANCH   5   6
ATOM      6  C   UNL     1       7.623  -0.200  -0.920  1.00  0.00    -0.044 A 
ATOM      7  C   UNL     1       7.710  -0.387  -2.305  1.00  0.00     0.008 A 
ATOM      8  C   UNL     1       7.903  -1.261  -0.090  1.00  0.00     0.054 A 
ATOM      9  C   UNL     1       8.073  -1.630  -2.792  1.00  0.00     0.051 A 
ATOM     10  C   UNL     1       8.270  -2.515  -0.588  1.00  0.00     0.166 A 
ATOM     11  C   UNL     1       8.355  -2.701  -1.950  1.00  0.00     0.165 A 
ATOM     12  O   UNL     1       8.592  -3.710   0.020  1.00  0.00    -0.454 OA
ATOM     13  O   UNL     1       8.733  -4.019  -2.152  1.00  0.00    -0.454 OA
ATOM     14  C   UNL     1       8.982  -4.670  -0.928  1.00  0.00     0.468 C 
ENDBRANCH   5   6
ENDBRANCH   1   5
TORSDOF 3
ENDMDL
MODEL 5
REMARK VINA RESULT:      -7.4      1.849      2.764
REMARK SMILES CC(=O)CCc1ccc2c(c1)OCO2
REMARK SMILES IDX 4 1 2 2 1 3 3 4 5 5 6 6 7 7 11 8 8 9 10 10 9 11 12 12 14 13
REMARK SMILES IDX 13 14
REMARK H PARENT
REMARK Flexibility Score: inf
ROOT
ATOM      1  C   UNL     1       6.398   1.098   1.220  1.00  0.00     0.080 C 
ENDROOT
BRANCH   1   2
ATOM      2  C   UNL     1       5.109   1.803   0.975  1.00  0.00     0.130 C 
ATOM      3  C   UNL     1       4.858   2.556  -0.283  1.00  0.00     0.087 C 
ATOM      4  O   UNL     1       4.216   1.783   1.806  1.00  0.00    -0.300 OA
ENDBRANCH   1   2
BRANCH   1   5
ATOM      5  C   UNL     1       7.348   1.265   0.051  1.00  0.00     0.043 C 
BRANCH   5   6
ATOM      6  C   UNL     1       7.642  -0.022  -0.603  1.00  0.00    -0.044 A 
ATOM      7  C   UNL     1       7.570  -0.172  -1.993  1.00  0.00     0.008 A 
ATOM      8  C   UNL     1       7.999  -1.110   0.161  1.00  0.00     0.054 A 
ATOM      9  C   UNL     1       7.857  -1.405  -2.551  1.00  0.00     0.051 A 
ATOM     10  C   UNL     1       8.290  -2.354  -0.407  1.00  0.00     0.166 A 
ATOM     11  C   UNL     1       8.217  -2.502  -1.775  1.00  0.00     0.165 A 
ATOM     12  O   UNL     1       8.662  -3.568   0.129  1.00  0.00    -0.454 OA
ATOM     13  O   UNL     1       8.551  -3.818  -2.053  1.00  0.00    -0.454 OA
ATOM     14  C   UNL     1       8.928  -4.505  -0.883  1.00  0.00     0.468 C 
ENDBRANCH   5   6
ENDBRANCH   1   5
TORSDOF 3
ENDMDL
