@<TRIPOS>MOLECULE
/home/cewinharhar/GITHUB/reincatalyze/data/processed/docking_pred/2023-May-22-1902_sub9_nm5_bs15_s42_ex16_mel10_mts1000_k50_ec02_g099_lra9e-4_lrc1e-3/bef029ec7f2d3d0301694813bb63cef4e6663bb8_ligand_9.pdbqt
 14 15 0 0 0
SMALL
GASTEIGER

@<TRIPOS>ATOM
      1  C          5.5160    1.9430    1.2540 C.3     1  UNL1        0.0800
      2  C          5.0950    0.7260    2.0030 C.2     1  UNL1        0.1300
      3  C          6.0070   -0.4350    2.1820 C.3     1  UNL1        0.0870
      4  O          3.9800    0.6460    2.4930 O.2     1  UNL1       -0.3000
      5  C          5.3890    1.7400   -0.2430 C.3     1  UNL1        0.0430
      6  C          6.5580    1.0370   -0.8000 C.2     1  UNL1       -0.0440
      7  C          7.8650    1.4680   -0.5420 C.2     1  UNL1        0.0080
      8  C          6.3730   -0.0740   -1.5920 C.2     1  UNL1        0.0540
      9  C          8.9230    0.7680   -1.0910 C.2     1  UNL1        0.0510
     10  C          7.4460   -0.7790   -2.1440 C.2     1  UNL1        0.1660
     11  C          8.7320   -0.3540   -1.8920 C.2     1  UNL1        0.1650
     12  O          7.5230   -1.8930   -2.9510 O.2     1  UNL1       -0.4540
     13  O          9.5800   -1.2270   -2.5550 O.2     1  UNL1       -0.4540
     14  C          8.8590   -2.2710   -3.1650 C.3     1  UNL1        0.4680
@<TRIPOS>BOND
     1    14    12    1
     2    14    13    1
     3    12    10    1
     4    13    11    1
     5    10    11    2
     6    10     8    1
     7    11     9    1
     8     8     6    2
     9     9     7    2
    10     6     7    1
    11     6     5    1
    12     5     1    1
    13     1     2    1
    14     2     3    1
    15     2     4    2
