@<TRIPOS>MOLECULE
/home/cewinharhar/GITHUB/reincatalyze/data/processed/docking_pred/2023-May-22-1902_sub9_nm5_bs15_s42_ex16_mel10_mts1000_k50_ec02_g099_lra9e-4_lrc1e-3/bef029ec7f2d3d0301694813bb63cef4e6663bb8_ligand_9.pdbqt
 14 15 0 0 0
SMALL
GASTEIGER

@<TRIPOS>ATOM
      1  C          5.7290    1.2990   -0.3190 C.3     1  UNL1        0.0800
      2  C          5.1760    1.2910    1.0640 C.2     1  UNL1        0.1300
      3  C          5.3220    0.1100    1.9570 C.3     1  UNL1        0.0870
      4  O          4.5820    2.2610    1.5070 O.2     1  UNL1       -0.3000
      5  C          7.2320    1.0970   -0.3110 C.3     1  UNL1        0.0430
      6  C          7.6120   -0.1980   -0.9040 C.2     1  UNL1       -0.0440
      7  C          7.6980   -0.3720   -2.2900 C.2     1  UNL1        0.0080
      8  C          7.8930   -1.2670   -0.0850 C.2     1  UNL1        0.0540
      9  C          8.0600   -1.6100   -2.7900 C.2     1  UNL1        0.0510
     10  C          8.2590   -2.5160   -0.5940 C.2     1  UNL1        0.1660
     11  C          8.3430   -2.6890   -1.9580 C.2     1  UNL1        0.1650
     12  O          8.5820   -3.7170    0.0020 O.2     1  UNL1       -0.4540
     13  O          8.7210   -4.0050   -2.1730 O.2     1  UNL1       -0.4540
     14  C          8.9720   -4.6670   -0.9560 C.3     1  UNL1        0.4680
@<TRIPOS>BOND
     1     9     7    1
     2     9    11    2
     3     7     6    2
     4    13    11    1
     5    13    14    1
     6    11    10    1
     7    14    12    1
     8     6     5    1
     9     6     8    1
    10    10     8    2
    11    10    12    1
    12     1     5    1
    13     1     2    1
    14     2     4    2
    15     2     3    1
