@<TRIPOS>MOLECULE
/home/cewinharhar/GITHUB/reincatalyze/data/processed/docking_pred/2023-May-22-1902_sub9_nm5_bs15_s42_ex16_mel10_mts1000_k50_ec02_g099_lra9e-4_lrc1e-3/bef029ec7f2d3d0301694813bb63cef4e6663bb8_ligand_9.pdbqt
 14 15 0 0 0
SMALL
GASTEIGER

@<TRIPOS>ATOM
      1  C          5.4230    2.9480    0.1190 C.3     1  UNL1        0.0800
      2  C          6.3000    3.8130    0.9570 C.2     1  UNL1        0.1300
      3  C          7.2600    4.7720    0.3490 C.3     1  UNL1        0.0870
      4  O          6.2550    3.7570    2.1750 O.2     1  UNL1       -0.3000
      5  C          5.1270    1.6310    0.8100 C.3     1  UNL1        0.0430
      6  C          5.9680    0.5390    0.2880 C.2     1  UNL1       -0.0440
      7  C          6.3000   -0.5700    1.0750 C.2     1  UNL1        0.0080
      8  C          6.4420    0.5990   -1.0030 C.2     1  UNL1        0.0540
      9  C          7.0920   -1.5650    0.5320 C.2     1  UNL1        0.0510
     10  C          7.2420   -0.4100   -1.5470 C.2     1  UNL1        0.1660
     11  C          7.5700   -1.5000   -0.7740 C.2     1  UNL1        0.1650
     12  O          7.8280   -0.5790   -2.7830 O.2     1  UNL1       -0.4540
     13  O          8.3590   -2.3260   -1.5590 O.2     1  UNL1       -0.4540
     14  C          8.4720   -1.8240   -2.8690 C.3     1  UNL1        0.4680
@<TRIPOS>BOND
     1    14    12    1
     2    14    13    1
     3    12    10    1
     4    13    11    1
     5    10     8    1
     6    10    11    2
     7     8     6    2
     8    11     9    1
     9     1     5    1
    10     1     2    1
    11     6     5    1
    12     6     7    1
    13     3     2    1
    14     9     7    2
    15     2     4    2
