@<TRIPOS>MOLECULE
/home/cewinharhar/GITHUB/reincatalyze/data/processed/docking_pred/2023-May-22-1902_sub9_nm5_bs15_s42_ex16_mel10_mts1000_k50_ec02_g099_lra9e-4_lrc1e-3/bf1bd72bf83e0bbc7f208f1f88a3802cf16c22f1_ligand_9.pdbqt
 14 15 0 0 0
SMALL
GASTEIGER

@<TRIPOS>ATOM
      1  C          5.4430    2.9400    0.0710 C.3     1  UNL1        0.0800
      2  C          6.1770    3.9230    0.9170 C.2     1  UNL1        0.1300
      3  C          7.2620    4.7750    0.3610 C.3     1  UNL1        0.0870
      4  O          5.9060    4.0580    2.0990 O.2     1  UNL1       -0.3000
      5  C          5.7020    1.5190    0.5300 C.3     1  UNL1        0.0430
      6  C          6.7580    0.8710   -0.2690 C.2     1  UNL1       -0.0440
      7  C          8.0450    1.4120   -0.3600 C.2     1  UNL1        0.0080
      8  C          6.4830   -0.2970   -0.9440 C.2     1  UNL1        0.0540
      9  C          8.9950    0.7600   -1.1240 C.2     1  UNL1        0.0510
     10  C          7.4470   -0.9530   -1.7140 C.2     1  UNL1        0.1660
     11  C          8.7140   -0.4200   -1.8050 C.2     1  UNL1        0.1650
     12  O          7.4220   -2.1070   -2.4690 O.2     1  UNL1       -0.4540
     13  O          9.4480   -1.2680   -2.6210 O.2     1  UNL1       -0.4540
     14  C          8.6930   -2.3970   -2.9900 C.3     1  UNL1        0.4680
@<TRIPOS>BOND
     1    14    13    1
     2    14    12    1
     3    13    11    1
     4    12    10    1
     5    11    10    2
     6    11     9    1
     7    10     8    1
     8     9     7    2
     9     8     6    2
    10     7     6    1
    11     6     5    1
    12     1     5    1
    13     1     2    1
    14     3     2    1
    15     2     4    2
