@<TRIPOS>MOLECULE
/home/cewinharhar/GITHUB/reincatalyze/data/processed/docking_pred/2023-May-22-1902_sub9_nm5_bs15_s42_ex16_mel10_mts1000_k50_ec02_g099_lra9e-4_lrc1e-3/bfaa3bc067c86e8b5ef89a85d12e30cfe25fe09e_ligand_9.pdbqt
 14 15 0 0 0
SMALL
GASTEIGER

@<TRIPOS>ATOM
      1  C          5.5390    1.8980    1.2820 C.3     1  UNL1        0.0800
      2  C          5.0990    0.6760    2.0110 C.2     1  UNL1        0.1300
      3  C          5.9950   -0.5000    2.1770 C.3     1  UNL1        0.0870
      4  O          3.9810    0.6040    2.4950 O.2     1  UNL1       -0.3000
      5  C          5.4110    1.7210   -0.2180 C.3     1  UNL1        0.0430
      6  C          6.5760    1.0200   -0.7870 C.2     1  UNL1       -0.0440
      7  C          7.8840    1.4530   -0.5420 C.2     1  UNL1        0.0080
      8  C          6.3840   -0.0900   -1.5780 C.2     1  UNL1        0.0540
      9  C          8.9380    0.7540   -1.1020 C.2     1  UNL1        0.0510
     10  C          7.4530   -0.7930   -2.1420 C.2     1  UNL1        0.1660
     11  C          8.7410   -0.3670   -1.9020 C.2     1  UNL1        0.1650
     12  O          7.5230   -1.9070   -2.9510 O.2     1  UNL1       -0.4540
     13  O          9.5830   -1.2380   -2.5740 O.2     1  UNL1       -0.4540
     14  C          8.8570   -2.2830   -3.1780 C.3     1  UNL1        0.4680
@<TRIPOS>BOND
     1    14    12    1
     2    14    13    1
     3    12    10    1
     4    13    11    1
     5    10    11    2
     6    10     8    1
     7    11     9    1
     8     8     6    2
     9     9     7    2
    10     6     7    1
    11     6     5    1
    12     5     1    1
    13     1     2    1
    14     2     3    1
    15     2     4    2
