@<TRIPOS>MOLECULE
/home/cewinharhar/GITHUB/reincatalyze/data/processed/docking_pred/2023-May-22-1902_sub9_nm5_bs15_s42_ex16_mel10_mts1000_k50_ec02_g099_lra9e-4_lrc1e-3/bfaa3bc067c86e8b5ef89a85d12e30cfe25fe09e_ligand_9.pdbqt
 14 15 0 0 0
SMALL
GASTEIGER

@<TRIPOS>ATOM
      1  C          5.7650    1.2540   -0.3960 C.3     1  UNL1        0.0800
      2  C          5.3500    2.3560    0.5150 C.2     1  UNL1        0.1300
      3  C          6.1490    3.6050    0.6440 C.3     1  UNL1        0.0870
      4  O          4.3360    2.2660    1.1880 O.2     1  UNL1       -0.3000
      5  C          7.2640    1.0370   -0.3520 C.3     1  UNL1        0.0430
      6  C          7.6460   -0.2620   -0.9350 C.2     1  UNL1       -0.0440
      7  C          7.7570   -0.4400   -2.3180 C.2     1  UNL1        0.0080
      8  C          7.9050   -1.3310   -0.1070 C.2     1  UNL1        0.0540
      9  C          8.1200   -1.6820   -2.8080 C.2     1  UNL1        0.0510
     10  C          8.2730   -2.5840   -0.6070 C.2     1  UNL1        0.1660
     11  C          8.3810   -2.7610   -1.9690 C.2     1  UNL1        0.1650
     12  O          8.5770   -3.7850   -0.0020 O.2     1  UNL1       -0.4540
     13  O          8.7540   -4.0800   -2.1730 O.2     1  UNL1       -0.4540
     14  C          8.9770   -4.7400   -0.9500 C.3     1  UNL1        0.4680
@<TRIPOS>BOND
     1     9     7    1
     2     9    11    2
     3     7     6    2
     4    13    11    1
     5    13    14    1
     6    11    10    1
     7    14    12    1
     8     6     5    1
     9     6     8    1
    10    10     8    2
    11    10    12    1
    12     1     5    1
    13     1     2    1
    14     2     3    1
    15     2     4    2
