MODEL 1
REMARK VINA RESULT:      -8.0      0.000      0.000
REMARK SMILES CC(=O)CCc1ccc2c(c1)OCO2
REMARK SMILES IDX 4 1 2 2 1 3 3 4 5 5 6 6 7 7 11 8 8 9 10 10 9 11 12 12 14 13
REMARK SMILES IDX 13 14
REMARK H PARENT
REMARK Flexibility Score: inf
ROOT
ATOM      1  C   UNL     1       5.440   2.930   0.067  1.00  0.00     0.080 C 
ENDROOT
BRANCH   1   2
ATOM      2  C   UNL     1       6.300   3.792   0.925  1.00  0.00     0.130 C 
ATOM      3  C   UNL     1       7.254   4.771   0.340  1.00  0.00     0.087 C 
ATOM      4  O   UNL     1       6.245   3.718   2.142  1.00  0.00    -0.300 OA
ENDBRANCH   1   2
BRANCH   1   5
ATOM      5  C   UNL     1       5.117   1.617   0.753  1.00  0.00     0.043 C 
BRANCH   5   6
ATOM      6  C   UNL     1       5.967   0.519   0.259  1.00  0.00    -0.044 A 
ATOM      7  C   UNL     1       6.309  -0.567   1.074  1.00  0.00     0.008 A 
ATOM      8  C   UNL     1       6.439   0.550  -1.033  1.00  0.00     0.054 A 
ATOM      9  C   UNL     1       7.109  -1.569   0.555  1.00  0.00     0.051 A 
ATOM     10  C   UNL     1       7.246  -0.466  -1.553  1.00  0.00     0.166 A 
ATOM     11  C   UNL     1       7.585  -1.533  -0.752  1.00  0.00     0.165 A 
ATOM     12  O   UNL     1       7.833  -0.662  -2.785  1.00  0.00    -0.454 OA
ATOM     13  O   UNL     1       8.379  -2.373  -1.518  1.00  0.00    -0.454 OA
ATOM     14  C   UNL     1       8.487  -1.904  -2.840  1.00  0.00     0.468 C 
ENDBRANCH   5   6
ENDBRANCH   1   5
TORSDOF 3
ENDMDL
MODEL 2
REMARK VINA RESULT:      -7.8      0.985      1.974
REMARK SMILES CC(=O)CCc1ccc2c(c1)OCO2
REMARK SMILES IDX 4 1 2 2 1 3 3 4 5 5 6 6 7 7 11 8 8 9 10 10 9 11 12 12 14 13
REMARK SMILES IDX 13 14
REMARK H PARENT
REMARK Flexibility Score: inf
ROOT
ATOM      1  C   UNL     1       5.355   2.984   0.196  1.00  0.00     0.080 C 
ENDROOT
BRANCH   1   2
ATOM      2  C   UNL     1       6.260   3.853   1.000  1.00  0.00     0.130 C 
ATOM      3  C   UNL     1       7.234   4.773   0.355  1.00  0.00     0.087 C 
ATOM      4  O   UNL     1       6.228   3.833   2.219  1.00  0.00    -0.300 OA
ENDBRANCH   1   2
BRANCH   1   5
ATOM      5  C   UNL     1       5.122   1.651   0.880  1.00  0.00     0.043 C 
BRANCH   5   6
ATOM      6  C   UNL     1       5.965   0.588   0.305  1.00  0.00    -0.044 A 
ATOM      7  C   UNL     1       6.363   0.612  -1.036  1.00  0.00     0.008 A 
ATOM      8  C   UNL     1       6.380  -0.458   1.099  1.00  0.00     0.054 A 
ATOM      9  C   UNL     1       7.156  -0.413  -1.520  1.00  0.00     0.051 A 
ATOM     10  C   UNL     1       7.181  -1.491   0.605  1.00  0.00     0.166 A 
ATOM     11  C   UNL     1       7.572  -1.469  -0.715  1.00  0.00     0.165 A 
ATOM     12  O   UNL     1       7.715  -2.624   1.183  1.00  0.00    -0.454 OA
ATOM     13  O   UNL     1       8.347  -2.599  -0.923  1.00  0.00    -0.454 OA
ATOM     14  C   UNL     1       8.539  -3.311   0.276  1.00  0.00     0.468 C 
ENDBRANCH   5   6
ENDBRANCH   1   5
TORSDOF 3
ENDMDL
MODEL 3
REMARK VINA RESULT:      -7.6      1.886      2.634
REMARK SMILES CC(=O)CCc1ccc2c(c1)OCO2
REMARK SMILES IDX 4 1 2 2 1 3 3 4 5 5 6 6 7 7 11 8 8 9 10 10 9 11 12 12 14 13
REMARK SMILES IDX 13 14
REMARK H PARENT
REMARK Flexibility Score: inf
ROOT
ATOM      1  C   UNL     1       5.539   1.898   1.282  1.00  0.00     0.080 C 
ENDROOT
BRANCH   1   2
ATOM      2  C   UNL     1       5.099   0.676   2.011  1.00  0.00     0.130 C 
ATOM      3  C   UNL     1       5.995  -0.500   2.177  1.00  0.00     0.087 C 
ATOM      4  O   UNL     1       3.981   0.604   2.495  1.00  0.00    -0.300 OA
ENDBRANCH   1   2
BRANCH   1   5
ATOM      5  C   UNL     1       5.411   1.721  -0.218  1.00  0.00     0.043 C 
BRANCH   5   6
ATOM      6  C   UNL     1       6.576   1.020  -0.787  1.00  0.00    -0.044 A 
ATOM      7  C   UNL     1       7.884   1.453  -0.542  1.00  0.00     0.008 A 
ATOM      8  C   UNL     1       6.384  -0.090  -1.578  1.00  0.00     0.054 A 
ATOM      9  C   UNL     1       8.938   0.754  -1.102  1.00  0.00     0.051 A 
ATOM     10  C   UNL     1       7.453  -0.793  -2.142  1.00  0.00     0.166 A 
ATOM     11  C   UNL     1       8.741  -0.367  -1.902  1.00  0.00     0.165 A 
ATOM     12  O   UNL     1       7.523  -1.907  -2.951  1.00  0.00    -0.454 OA
ATOM     13  O   UNL     1       9.583  -1.238  -2.574  1.00  0.00    -0.454 OA
ATOM     14  C   UNL     1       8.857  -2.283  -3.178  1.00  0.00     0.468 C 
ENDBRANCH   5   6
ENDBRANCH   1   5
TORSDOF 3
ENDMDL
MODEL 4
REMARK VINA RESULT:      -7.5      1.956      3.017
REMARK SMILES CC(=O)CCc1ccc2c(c1)OCO2
REMARK SMILES IDX 4 1 2 2 1 3 3 4 5 5 6 6 7 7 11 8 8 9 10 10 9 11 12 12 14 13
REMARK SMILES IDX 13 14
REMARK H PARENT
REMARK Flexibility Score: inf
ROOT
ATOM      1  C   UNL     1       5.749   1.344  -0.358  1.00  0.00     0.080 C 
ENDROOT
BRANCH   1   2
ATOM      2  C   UNL     1       5.134   1.305   0.998  1.00  0.00     0.130 C 
ATOM      3  C   UNL     1       5.393   0.184   1.941  1.00  0.00     0.087 C 
ATOM      4  O   UNL     1       4.394   2.199   1.376  1.00  0.00    -0.300 OA
ENDBRANCH   1   2
BRANCH   1   5
ATOM      5  C   UNL     1       7.245   1.106  -0.291  1.00  0.00     0.043 C 
BRANCH   5   6
ATOM      6  C   UNL     1       7.620  -0.189  -0.885  1.00  0.00    -0.044 A 
ATOM      7  C   UNL     1       7.706  -0.363  -2.271  1.00  0.00     0.008 A 
ATOM      8  C   UNL     1       7.896  -1.261  -0.066  1.00  0.00     0.054 A 
ATOM      9  C   UNL     1       8.063  -1.602  -2.771  1.00  0.00     0.051 A 
ATOM     10  C   UNL     1       8.258  -2.511  -0.577  1.00  0.00     0.166 A 
ATOM     11  C   UNL     1       8.341  -2.683  -1.940  1.00  0.00     0.165 A 
ATOM     12  O   UNL     1       8.576  -3.713   0.019  1.00  0.00    -0.454 OA
ATOM     13  O   UNL     1       8.714  -4.001  -2.156  1.00  0.00    -0.454 OA
ATOM     14  C   UNL     1       8.961  -4.664  -0.939  1.00  0.00     0.468 C 
ENDBRANCH   5   6
ENDBRANCH   1   5
TORSDOF 3
ENDMDL
MODEL 5
REMARK VINA RESULT:      -7.4      1.613      2.707
REMARK SMILES CC(=O)CCc1ccc2c(c1)OCO2
REMARK SMILES IDX 4 1 2 2 1 3 3 4 5 5 6 6 7 7 11 8 8 9 10 10 9 11 12 12 14 13
REMARK SMILES IDX 13 14
REMARK H PARENT
REMARK Flexibility Score: inf
ROOT
ATOM      1  C   UNL     1       5.765   1.254  -0.396  1.00  0.00     0.080 C 
ENDROOT
BRANCH   1   2
ATOM      2  C   UNL     1       5.350   2.356   0.515  1.00  0.00     0.130 C 
ATOM      3  C   UNL     1       6.149   3.605   0.644  1.00  0.00     0.087 C 
ATOM      4  O   UNL     1       4.336   2.266   1.188  1.00  0.00    -0.300 OA
ENDBRANCH   1   2
BRANCH   1   5
ATOM      5  C   UNL     1       7.264   1.037  -0.352  1.00  0.00     0.043 C 
BRANCH   5   6
ATOM      6  C   UNL     1       7.646  -0.262  -0.935  1.00  0.00    -0.044 A 
ATOM      7  C   UNL     1       7.757  -0.440  -2.318  1.00  0.00     0.008 A 
ATOM      8  C   UNL     1       7.905  -1.331  -0.107  1.00  0.00     0.054 A 
ATOM      9  C   UNL     1       8.120  -1.682  -2.808  1.00  0.00     0.051 A 
ATOM     10  C   UNL     1       8.273  -2.584  -0.607  1.00  0.00     0.166 A 
ATOM     11  C   UNL     1       8.381  -2.761  -1.969  1.00  0.00     0.165 A 
ATOM     12  O   UNL     1       8.577  -3.785  -0.002  1.00  0.00    -0.454 OA
ATOM     13  O   UNL     1       8.754  -4.080  -2.173  1.00  0.00    -0.454 OA
ATOM     14  C   UNL     1       8.977  -4.740  -0.950  1.00  0.00     0.468 C 
ENDBRANCH   5   6
ENDBRANCH   1   5
TORSDOF 3
ENDMDL
