@<TRIPOS>MOLECULE
/home/cewinharhar/GITHUB/reincatalyze/data/processed/docking_pred/2023-May-22-1902_sub9_nm5_bs15_s42_ex16_mel10_mts1000_k50_ec02_g099_lra9e-4_lrc1e-3/bfaa3bc067c86e8b5ef89a85d12e30cfe25fe09e_ligand_9.pdbqt
 14 15 0 0 0
SMALL
GASTEIGER

@<TRIPOS>ATOM
      1  C          5.4400    2.9300    0.0670 C.3     1  UNL1        0.0800
      2  C          6.3000    3.7920    0.9250 C.2     1  UNL1        0.1300
      3  C          7.2540    4.7710    0.3400 C.3     1  UNL1        0.0870
      4  O          6.2450    3.7180    2.1420 O.2     1  UNL1       -0.3000
      5  C          5.1170    1.6170    0.7530 C.3     1  UNL1        0.0430
      6  C          5.9670    0.5190    0.2590 C.2     1  UNL1       -0.0440
      7  C          6.3090   -0.5670    1.0740 C.2     1  UNL1        0.0080
      8  C          6.4390    0.5500   -1.0330 C.2     1  UNL1        0.0540
      9  C          7.1090   -1.5690    0.5550 C.2     1  UNL1        0.0510
     10  C          7.2460   -0.4660   -1.5530 C.2     1  UNL1        0.1660
     11  C          7.5850   -1.5330   -0.7520 C.2     1  UNL1        0.1650
     12  O          7.8330   -0.6620   -2.7850 O.2     1  UNL1       -0.4540
     13  O          8.3790   -2.3730   -1.5180 O.2     1  UNL1       -0.4540
     14  C          8.4870   -1.9040   -2.8400 C.3     1  UNL1        0.4680
@<TRIPOS>BOND
     1    14    12    1
     2    14    13    1
     3    12    10    1
     4    10     8    1
     5    10    11    2
     6    13    11    1
     7     8     6    2
     8    11     9    1
     9     1     5    1
    10     1     2    1
    11     6     5    1
    12     6     7    1
    13     3     2    1
    14     9     7    2
    15     2     4    2
