MODEL 1
REMARK VINA RESULT:      -7.8      0.000      0.000
REMARK SMILES CC(=O)CCc1ccc2c(c1)OCO2
REMARK SMILES IDX 4 1 2 2 1 3 3 4 5 5 6 6 7 7 11 8 8 9 10 10 9 11 12 12 14 13
REMARK SMILES IDX 13 14
REMARK H PARENT
REMARK Flexibility Score: inf
ROOT
ATOM      1  C   UNL     1       5.438   2.905   0.298  1.00  0.00     0.080 C 
ENDROOT
BRANCH   1   2
ATOM      2  C   UNL     1       6.354   3.795   1.064  1.00  0.00     0.130 C 
ATOM      3  C   UNL     1       7.242   4.774   0.383  1.00  0.00     0.087 C 
ATOM      4  O   UNL     1       6.403   3.744   2.282  1.00  0.00    -0.300 OA
ENDBRANCH   1   2
BRANCH   1   5
ATOM      5  C   UNL     1       5.217   1.590   1.018  1.00  0.00     0.043 C 
BRANCH   5   6
ATOM      6  C   UNL     1       6.047   0.511   0.452  1.00  0.00    -0.044 A 
ATOM      7  C   UNL     1       6.411  -0.608   1.209  1.00  0.00     0.008 A 
ATOM      8  C   UNL     1       6.479   0.596  -0.852  1.00  0.00     0.054 A 
ATOM      9  C   UNL     1       7.191  -1.589   0.624  1.00  0.00     0.051 A 
ATOM     10  C   UNL     1       7.266  -0.399  -1.439  1.00  0.00     0.166 A 
ATOM     11  C   UNL     1       7.625  -1.501  -0.695  1.00  0.00     0.165 A 
ATOM     12  O   UNL     1       7.814  -0.545  -2.696  1.00  0.00    -0.454 OA
ATOM     13  O   UNL     1       8.393  -2.309  -1.519  1.00  0.00    -0.454 OA
ATOM     14  C   UNL     1       8.461  -1.785  -2.823  1.00  0.00     0.468 C 
ENDBRANCH   5   6
ENDBRANCH   1   5
TORSDOF 3
ENDMDL
MODEL 2
REMARK VINA RESULT:      -7.7      0.972      1.958
REMARK SMILES CC(=O)CCc1ccc2c(c1)OCO2
REMARK SMILES IDX 4 1 2 2 1 3 3 4 5 5 6 6 7 7 11 8 8 9 10 10 9 11 12 12 14 13
REMARK SMILES IDX 13 14
REMARK H PARENT
REMARK Flexibility Score: inf
ROOT
ATOM      1  C   UNL     1       5.447   2.912   0.267  1.00  0.00     0.080 C 
ENDROOT
BRANCH   1   2
ATOM      2  C   UNL     1       6.284   3.884   1.025  1.00  0.00     0.130 C 
ATOM      3  C   UNL     1       7.259   4.775   0.341  1.00  0.00     0.087 C 
ATOM      4  O   UNL     1       6.192   3.977   2.238  1.00  0.00    -0.300 OA
ENDBRANCH   1   2
BRANCH   1   5
ATOM      5  C   UNL     1       5.315   1.600   1.013  1.00  0.00     0.043 C 
BRANCH   5   6
ATOM      6  C   UNL     1       6.091   0.525   0.370  1.00  0.00    -0.044 A 
ATOM      7  C   UNL     1       6.374   0.544  -1.001  1.00  0.00     0.008 A 
ATOM      8  C   UNL     1       6.555  -0.528   1.126  1.00  0.00     0.054 A 
ATOM      9  C   UNL     1       7.107  -0.492  -1.549  1.00  0.00     0.051 A 
ATOM     10  C   UNL     1       7.297  -1.573   0.567  1.00  0.00     0.166 A 
ATOM     11  C   UNL     1       7.575  -1.555  -0.782  1.00  0.00     0.165 A 
ATOM     12  O   UNL     1       7.861  -2.713   1.097  1.00  0.00    -0.454 OA
ATOM     13  O   UNL     1       8.313  -2.696  -1.054  1.00  0.00    -0.454 OA
ATOM     14  C   UNL     1       8.595  -3.412   0.124  1.00  0.00     0.468 C 
ENDBRANCH   5   6
ENDBRANCH   1   5
TORSDOF 3
ENDMDL
MODEL 3
REMARK VINA RESULT:      -7.7      1.907      2.648
REMARK SMILES CC(=O)CCc1ccc2c(c1)OCO2
REMARK SMILES IDX 4 1 2 2 1 3 3 4 5 5 6 6 7 7 11 8 8 9 10 10 9 11 12 12 14 13
REMARK SMILES IDX 13 14
REMARK H PARENT
REMARK Flexibility Score: inf
ROOT
ATOM      1  C   UNL     1       5.497   1.935   1.254  1.00  0.00     0.080 C 
ENDROOT
BRANCH   1   2
ATOM      2  C   UNL     1       5.060   0.719   1.994  1.00  0.00     0.130 C 
ATOM      3  C   UNL     1       5.950  -0.463   2.148  1.00  0.00     0.087 C 
ATOM      4  O   UNL     1       3.951   0.657   2.500  1.00  0.00    -0.300 OA
ENDBRANCH   1   2
BRANCH   1   5
ATOM      5  C   UNL     1       5.376   1.740  -0.245  1.00  0.00     0.043 C 
BRANCH   5   6
ATOM      6  C   UNL     1       6.547   1.038  -0.800  1.00  0.00    -0.044 A 
ATOM      7  C   UNL     1       7.853   1.473  -0.543  1.00  0.00     0.008 A 
ATOM      8  C   UNL     1       6.365  -0.074  -1.591  1.00  0.00     0.054 A 
ATOM      9  C   UNL     1       8.913   0.775  -1.090  1.00  0.00     0.051 A 
ATOM     10  C   UNL     1       7.441  -0.777  -2.142  1.00  0.00     0.166 A 
ATOM     11  C   UNL     1       8.725  -0.349  -1.890  1.00  0.00     0.165 A 
ATOM     12  O   UNL     1       7.520  -1.893  -2.947  1.00  0.00    -0.454 OA
ATOM     13  O   UNL     1       9.575  -1.221  -2.552  1.00  0.00    -0.454 OA
ATOM     14  C   UNL     1       8.857  -2.267  -3.160  1.00  0.00     0.468 C 
ENDBRANCH   5   6
ENDBRANCH   1   5
TORSDOF 3
ENDMDL
MODEL 4
REMARK VINA RESULT:      -7.5      1.998      3.060
REMARK SMILES CC(=O)CCc1ccc2c(c1)OCO2
REMARK SMILES IDX 4 1 2 2 1 3 3 4 5 5 6 6 7 7 11 8 8 9 10 10 9 11 12 12 14 13
REMARK SMILES IDX 13 14
REMARK H PARENT
REMARK Flexibility Score: inf
ROOT
ATOM      1  C   UNL     1       5.758   1.341  -0.362  1.00  0.00     0.080 C 
ENDROOT
BRANCH   1   2
ATOM      2  C   UNL     1       5.138   1.313   0.992  1.00  0.00     0.130 C 
ATOM      3  C   UNL     1       5.405   0.208   1.951  1.00  0.00     0.087 C 
ATOM      4  O   UNL     1       4.386   2.204   1.356  1.00  0.00    -0.300 OA
ENDBRANCH   1   2
BRANCH   1   5
ATOM      5  C   UNL     1       7.248   1.073  -0.290  1.00  0.00     0.043 C 
BRANCH   5   6
ATOM      6  C   UNL     1       7.599  -0.224  -0.896  1.00  0.00    -0.044 A 
ATOM      7  C   UNL     1       7.627  -0.401  -2.284  1.00  0.00     0.008 A 
ATOM      8  C   UNL     1       7.912  -1.292  -0.086  1.00  0.00     0.054 A 
ATOM      9  C   UNL     1       7.964  -1.641  -2.795  1.00  0.00     0.051 A 
ATOM     10  C   UNL     1       8.254  -2.543  -0.608  1.00  0.00     0.166 A 
ATOM     11  C   UNL     1       8.280  -2.719  -1.974  1.00  0.00     0.165 A 
ATOM     12  O   UNL     1       8.599  -3.743  -0.023  1.00  0.00    -0.454 OA
ATOM     13  O   UNL     1       8.645  -4.037  -2.202  1.00  0.00    -0.454 OA
ATOM     14  C   UNL     1       8.945  -4.697  -0.995  1.00  0.00     0.468 C 
ENDBRANCH   5   6
ENDBRANCH   1   5
TORSDOF 3
ENDMDL
MODEL 5
REMARK VINA RESULT:      -7.4      1.849      2.858
REMARK SMILES CC(=O)CCc1ccc2c(c1)OCO2
REMARK SMILES IDX 4 1 2 2 1 3 3 4 5 5 6 6 7 7 11 8 8 9 10 10 9 11 12 12 14 13
REMARK SMILES IDX 13 14
REMARK H PARENT
REMARK Flexibility Score: inf
ROOT
ATOM      1  C   UNL     1       6.338   0.908   1.025  1.00  0.00     0.080 C 
ENDROOT
BRANCH   1   2
ATOM      2  C   UNL     1       5.108   1.744   0.936  1.00  0.00     0.130 C 
ATOM      3  C   UNL     1       4.866   2.656  -0.213  1.00  0.00     0.087 C 
ATOM      4  O   UNL     1       4.259   1.704   1.812  1.00  0.00    -0.300 OA
ENDBRANCH   1   2
BRANCH   1   5
ATOM      5  C   UNL     1       7.223   1.100  -0.191  1.00  0.00     0.043 C 
BRANCH   5   6
ATOM      6  C   UNL     1       7.574  -0.186  -0.819  1.00  0.00    -0.044 A 
ATOM      7  C   UNL     1       7.600  -0.339  -2.210  1.00  0.00     0.008 A 
ATOM      8  C   UNL     1       7.889  -1.268  -0.029  1.00  0.00     0.054 A 
ATOM      9  C   UNL     1       7.938  -1.570  -2.744  1.00  0.00     0.051 A 
ATOM     10  C   UNL     1       8.231  -2.510  -0.573  1.00  0.00     0.166 A 
ATOM     11  C   UNL     1       8.255  -2.662  -1.942  1.00  0.00     0.165 A 
ATOM     12  O   UNL     1       8.578  -3.719  -0.010  1.00  0.00    -0.454 OA
ATOM     13  O   UNL     1       8.621  -3.975  -2.193  1.00  0.00    -0.454 OA
ATOM     14  C   UNL     1       8.923  -4.655  -0.998  1.00  0.00     0.468 C 
ENDBRANCH   5   6
ENDBRANCH   1   5
TORSDOF 3
ENDMDL
