@<TRIPOS>MOLECULE
/home/cewinharhar/GITHUB/reincatalyze/data/processed/docking_pred/2023-May-22-1902_sub9_nm5_bs15_s42_ex16_mel10_mts1000_k50_ec02_g099_lra9e-4_lrc1e-3/c054a7f490e8e5c171bc57af56a9ae5cb4d717f8_ligand_9.pdbqt
 14 15 0 0 0
SMALL
GASTEIGER

@<TRIPOS>ATOM
      1  C          5.4380    2.9050    0.2980 C.3     1  UNL1        0.0800
      2  C          6.3540    3.7950    1.0640 C.2     1  UNL1        0.1300
      3  C          7.2420    4.7740    0.3830 C.3     1  UNL1        0.0870
      4  O          6.4030    3.7440    2.2820 O.2     1  UNL1       -0.3000
      5  C          5.2170    1.5900    1.0180 C.3     1  UNL1        0.0430
      6  C          6.0470    0.5110    0.4520 C.2     1  UNL1       -0.0440
      7  C          6.4110   -0.6080    1.2090 C.2     1  UNL1        0.0080
      8  C          6.4790    0.5960   -0.8520 C.2     1  UNL1        0.0540
      9  C          7.1910   -1.5890    0.6240 C.2     1  UNL1        0.0510
     10  C          7.2660   -0.3990   -1.4390 C.2     1  UNL1        0.1660
     11  C          7.6250   -1.5010   -0.6950 C.2     1  UNL1        0.1650
     12  O          7.8140   -0.5450   -2.6960 O.2     1  UNL1       -0.4540
     13  O          8.3930   -2.3090   -1.5190 O.2     1  UNL1       -0.4540
     14  C          8.4610   -1.7850   -2.8230 C.3     1  UNL1        0.4680
@<TRIPOS>BOND
     1    14    12    1
     2    14    13    1
     3    12    10    1
     4    13    11    1
     5    10     8    1
     6    10    11    2
     7     8     6    2
     8    11     9    1
     9     1     5    1
    10     1     2    1
    11     3     2    1
    12     6     5    1
    13     6     7    1
    14     9     7    2
    15     2     4    2
