@<TRIPOS>MOLECULE
/home/cewinharhar/GITHUB/reincatalyze/data/processed/docking_pred/2023-May-22-1902_sub9_nm5_bs15_s42_ex16_mel10_mts1000_k50_ec02_g099_lra9e-4_lrc1e-3/c054a7f490e8e5c171bc57af56a9ae5cb4d717f8_ligand_9.pdbqt
 14 15 0 0 0
SMALL
GASTEIGER

@<TRIPOS>ATOM
      1  C          5.7580    1.3410   -0.3620 C.3     1  UNL1        0.0800
      2  C          5.1380    1.3130    0.9920 C.2     1  UNL1        0.1300
      3  C          5.4050    0.2080    1.9510 C.3     1  UNL1        0.0870
      4  O          4.3860    2.2040    1.3560 O.2     1  UNL1       -0.3000
      5  C          7.2480    1.0730   -0.2900 C.3     1  UNL1        0.0430
      6  C          7.5990   -0.2240   -0.8960 C.2     1  UNL1       -0.0440
      7  C          7.6270   -0.4010   -2.2840 C.2     1  UNL1        0.0080
      8  C          7.9120   -1.2920   -0.0860 C.2     1  UNL1        0.0540
      9  C          7.9640   -1.6410   -2.7950 C.2     1  UNL1        0.0510
     10  C          8.2540   -2.5430   -0.6080 C.2     1  UNL1        0.1660
     11  C          8.2800   -2.7190   -1.9740 C.2     1  UNL1        0.1650
     12  O          8.5990   -3.7430   -0.0230 O.2     1  UNL1       -0.4540
     13  O          8.6450   -4.0370   -2.2020 O.2     1  UNL1       -0.4540
     14  C          8.9450   -4.6970   -0.9950 C.3     1  UNL1        0.4680
@<TRIPOS>BOND
     1     9     7    1
     2     9    11    2
     3     7     6    2
     4    13    11    1
     5    13    14    1
     6    11    10    1
     7    14    12    1
     8     6     5    1
     9     6     8    1
    10    10     8    2
    11    10    12    1
    12     1     5    1
    13     1     2    1
    14     2     4    2
    15     2     3    1
