@<TRIPOS>MOLECULE
/home/cewinharhar/GITHUB/reincatalyze/data/processed/docking_pred/2023-May-22-1902_sub9_nm5_bs15_s42_ex16_mel10_mts1000_k50_ec02_g099_lra9e-4_lrc1e-3/c2bbe2b0b698b4c34a14c6b9d782c5d04fb4e97c_ligand_9.pdbqt
 14 15 0 0 0
SMALL
GASTEIGER

@<TRIPOS>ATOM
      1  C          5.4290    2.9440    0.0590 C.3     1  UNL1        0.0800
      2  C          6.2790    3.7950    0.9380 C.2     1  UNL1        0.1300
      3  C          7.2510    4.7710    0.3770 C.3     1  UNL1        0.0870
      4  O          6.2010    3.7140    2.1540 O.2     1  UNL1       -0.3000
      5  C          5.0890    1.6280    0.7300 C.3     1  UNL1        0.0430
      6  C          5.9330    0.5270    0.2310 C.2     1  UNL1       -0.0440
      7  C          6.2500   -0.5750    1.0340 C.2     1  UNL1        0.0080
      8  C          6.4260    0.5730   -1.0530 C.2     1  UNL1        0.0540
      9  C          7.0460   -1.5790    0.5120 C.2     1  UNL1        0.0510
     10  C          7.2300   -0.4440   -1.5760 C.2     1  UNL1        0.1660
     11  C          7.5430   -1.5290   -0.7870 C.2     1  UNL1        0.1650
     12  O          7.8340   -0.6280   -2.8020 O.2     1  UNL1       -0.4540
     13  O          8.3390   -2.3650   -1.5530 O.2     1  UNL1       -0.4540
     14  C          8.4740   -1.8770   -2.8660 C.3     1  UNL1        0.4680
@<TRIPOS>BOND
     1    14    12    1
     2    14    13    1
     3    12    10    1
     4    10     8    1
     5    10    11    2
     6    13    11    1
     7     8     6    2
     8    11     9    1
     9     1     5    1
    10     1     2    1
    11     6     5    1
    12     6     7    1
    13     3     2    1
    14     9     7    2
    15     2     4    2
