@<TRIPOS>MOLECULE
/home/cewinharhar/GITHUB/reincatalyze/data/processed/docking_pred/2023-May-22-1902_sub9_nm5_bs15_s42_ex16_mel10_mts1000_k50_ec02_g099_lra9e-4_lrc1e-3/c2bbe2b0b698b4c34a14c6b9d782c5d04fb4e97c_ligand_9.pdbqt
 14 15 0 0 0
SMALL
GASTEIGER

@<TRIPOS>ATOM
      1  C          5.5210    1.9290    1.2580 C.3     1  UNL1        0.0800
      2  C          5.0960    0.7130    2.0040 C.2     1  UNL1        0.1300
      3  C          6.0040   -0.4520    2.1820 C.3     1  UNL1        0.0870
      4  O          3.9810    0.6360    2.4940 O.2     1  UNL1       -0.3000
      5  C          5.3890    1.7310   -0.2390 C.3     1  UNL1        0.0430
      6  C          6.5590    1.0330   -0.8030 C.2     1  UNL1       -0.0440
      7  C          7.8640    1.4760   -0.5600 C.2     1  UNL1        0.0080
      8  C          6.3750   -0.0830   -1.5870 C.2     1  UNL1        0.0540
      9  C          8.9230    0.7810   -1.1150 C.2     1  UNL1        0.0510
     10  C          7.4490   -0.7830   -2.1450 C.2     1  UNL1        0.1660
     11  C          8.7330   -0.3470   -1.9080 C.2     1  UNL1        0.1650
     12  O          7.5260   -1.9020   -2.9470 O.2     1  UNL1       -0.4540
     13  O          9.5810   -1.2170   -2.5740 O.2     1  UNL1       -0.4540
     14  C          8.8630   -2.2700   -3.1710 C.3     1  UNL1        0.4680
@<TRIPOS>BOND
     1    14    12    1
     2    14    13    1
     3    12    10    1
     4    13    11    1
     5    10    11    2
     6    10     8    1
     7    11     9    1
     8     8     6    2
     9     9     7    2
    10     6     7    1
    11     6     5    1
    12     5     1    1
    13     1     2    1
    14     2     3    1
    15     2     4    2
