@<TRIPOS>MOLECULE
/home/cewinharhar/GITHUB/reincatalyze/data/processed/docking_pred/2023-May-22-1902_sub9_nm5_bs15_s42_ex16_mel10_mts1000_k50_ec02_g099_lra9e-4_lrc1e-3/c2bbe2b0b698b4c34a14c6b9d782c5d04fb4e97c_ligand_9.pdbqt
 14 15 0 0 0
SMALL
GASTEIGER

@<TRIPOS>ATOM
      1  C          5.7810    1.3750   -0.3800 C.3     1  UNL1        0.0800
      2  C          5.1340    1.3390    0.9620 C.2     1  UNL1        0.1300
      3  C          5.3940    0.2350    1.9250 C.3     1  UNL1        0.0870
      4  O          4.3670    2.2210    1.3110 O.2     1  UNL1       -0.3000
      5  C          7.2710    1.1110   -0.2800 C.3     1  UNL1        0.0430
      6  C          7.6370   -0.1850   -0.8780 C.2     1  UNL1       -0.0440
      7  C          7.7170   -0.3560   -2.2650 C.2     1  UNL1        0.0080
      8  C          7.9130   -1.2590   -0.0620 C.2     1  UNL1        0.0540
      9  C          8.0670   -1.5950   -2.7690 C.2     1  UNL1        0.0510
     10  C          8.2670   -2.5100   -0.5770 C.2     1  UNL1        0.1660
     11  C          8.3440   -2.6790   -1.9410 C.2     1  UNL1        0.1650
     12  O          8.5820   -3.7140    0.0150 O.2     1  UNL1       -0.4540
     13  O          8.7100   -3.9980   -2.1610 O.2     1  UNL1       -0.4540
     14  C          8.9600   -4.6650   -0.9470 C.3     1  UNL1        0.4680
@<TRIPOS>BOND
     1     9     7    1
     2     9    11    2
     3     7     6    2
     4    13    11    1
     5    13    14    1
     6    11    10    1
     7    14    12    1
     8     6     5    1
     9     6     8    1
    10    10     8    2
    11    10    12    1
    12     1     5    1
    13     1     2    1
    14     2     4    2
    15     2     3    1
