@<TRIPOS>MOLECULE
/home/cewinharhar/GITHUB/reincatalyze/data/processed/docking_pred/2023-May-22-1902_sub9_nm5_bs15_s42_ex16_mel10_mts1000_k50_ec02_g099_lra9e-4_lrc1e-3/c2bbe2b0b698b4c34a14c6b9d782c5d04fb4e97c_ligand_9.pdbqt
 14 15 0 0 0
SMALL
GASTEIGER

@<TRIPOS>ATOM
      1  C          6.3430    0.9060    1.0480 C.3     1  UNL1        0.0800
      2  C          5.1210    1.7490    0.9330 C.2     1  UNL1        0.1300
      3  C          4.8930    2.6380   -0.2370 C.3     1  UNL1        0.0870
      4  O          4.2640    1.7330    1.8020 O.2     1  UNL1       -0.3000
      5  C          7.2530    1.0880   -0.1500 C.3     1  UNL1        0.0430
      6  C          7.5880   -0.2000   -0.7830 C.2     1  UNL1       -0.0440
      7  C          7.5730   -0.3590   -2.1740 C.2     1  UNL1        0.0080
      8  C          7.9260   -1.2780    0.0020 C.2     1  UNL1        0.0540
      9  C          7.8970   -1.5920   -2.7110 C.2     1  UNL1        0.0510
     10  C          8.2530   -2.5220   -0.5460 C.2     1  UNL1        0.1660
     11  C          8.2380   -2.6800   -1.9140 C.2     1  UNL1        0.1650
     12  O          8.6170   -3.7290    0.0120 O.2     1  UNL1       -0.4540
     13  O          8.5980   -3.9940   -2.1700 O.2     1  UNL1       -0.4540
     14  C          8.9350   -4.6690   -0.9820 C.3     1  UNL1        0.4680
@<TRIPOS>BOND
     1     9     7    1
     2     9    11    2
     3     7     6    2
     4    13    11    1
     5    13    14    1
     6    11    10    1
     7    14    12    1
     8     6     5    1
     9     6     8    1
    10    10     8    2
    11    10    12    1
    12     3     2    1
    13     5     1    1
    14     2     1    1
    15     2     4    2
