@<TRIPOS>MOLECULE
/home/cewinharhar/GITHUB/reincatalyze/data/processed/docking_pred/2023-May-22-1902_sub9_nm5_bs15_s42_ex16_mel10_mts1000_k50_ec02_g099_lra9e-4_lrc1e-3/c2bbe2b0b698b4c34a14c6b9d782c5d04fb4e97c_ligand_9.pdbqt
 14 15 0 0 0
SMALL
GASTEIGER

@<TRIPOS>ATOM
      1  C          5.3860    2.8360    0.0820 C.3     1  UNL1        0.0800
      2  C          6.2430    3.6760    0.9640 C.2     1  UNL1        0.1300
      3  C          7.1060    4.7560    0.4140 C.3     1  UNL1        0.0870
      4  O          6.2630    3.5000    2.1710 O.2     1  UNL1       -0.3000
      5  C          5.5470    1.3620    0.3990 C.3     1  UNL1        0.0430
      6  C          6.6580    0.7590   -0.3580 C.2     1  UNL1       -0.0440
      7  C          7.9260    1.3510   -0.3970 C.2     1  UNL1        0.0080
      8  C          6.4560   -0.4170   -1.0450 C.2     1  UNL1        0.0540
      9  C          8.9300    0.7390   -1.1240 C.2     1  UNL1        0.0510
     10  C          7.4760   -1.0320   -1.7780 C.2     1  UNL1        0.1660
     11  C          8.7230   -0.4500   -1.8180 C.2     1  UNL1        0.1650
     12  O          7.5250   -2.1840   -2.5340 O.2     1  UNL1       -0.4540
     13  O          9.5210   -1.2650   -2.6050 O.2     1  UNL1       -0.4540
     14  C          8.8270   -2.4220   -3.0050 C.3     1  UNL1        0.4680
@<TRIPOS>BOND
     1    14    13    1
     2    14    12    1
     3    13    11    1
     4    12    10    1
     5    11    10    2
     6    11     9    1
     7    10     8    1
     8     9     7    2
     9     8     6    2
    10     7     6    1
    11     6     5    1
    12     1     5    1
    13     1     2    1
    14     3     2    1
    15     2     4    2
