MODEL 1
REMARK VINA RESULT:      -7.9      0.000      0.000
REMARK SMILES CC(=O)CCc1ccc2c(c1)OCO2
REMARK SMILES IDX 4 1 2 2 1 3 3 4 5 5 6 6 7 7 11 8 8 9 10 10 9 11 12 12 14 13
REMARK SMILES IDX 13 14
REMARK H PARENT
REMARK Flexibility Score: inf
ROOT
ATOM      1  C   UNL     1       5.429   2.944   0.059  1.00  0.00     0.080 C 
ENDROOT
BRANCH   1   2
ATOM      2  C   UNL     1       6.279   3.795   0.938  1.00  0.00     0.130 C 
ATOM      3  C   UNL     1       7.251   4.771   0.377  1.00  0.00     0.087 C 
ATOM      4  O   UNL     1       6.201   3.714   2.154  1.00  0.00    -0.300 OA
ENDBRANCH   1   2
BRANCH   1   5
ATOM      5  C   UNL     1       5.089   1.628   0.730  1.00  0.00     0.043 C 
BRANCH   5   6
ATOM      6  C   UNL     1       5.933   0.527   0.231  1.00  0.00    -0.044 A 
ATOM      7  C   UNL     1       6.250  -0.575   1.034  1.00  0.00     0.008 A 
ATOM      8  C   UNL     1       6.426   0.573  -1.053  1.00  0.00     0.054 A 
ATOM      9  C   UNL     1       7.046  -1.579   0.512  1.00  0.00     0.051 A 
ATOM     10  C   UNL     1       7.230  -0.444  -1.576  1.00  0.00     0.166 A 
ATOM     11  C   UNL     1       7.543  -1.529  -0.787  1.00  0.00     0.165 A 
ATOM     12  O   UNL     1       7.834  -0.628  -2.802  1.00  0.00    -0.454 OA
ATOM     13  O   UNL     1       8.339  -2.365  -1.553  1.00  0.00    -0.454 OA
ATOM     14  C   UNL     1       8.474  -1.877  -2.866  1.00  0.00     0.468 C 
ENDBRANCH   5   6
ENDBRANCH   1   5
TORSDOF 3
ENDMDL
MODEL 2
REMARK VINA RESULT:      -7.6      1.872      2.622
REMARK SMILES CC(=O)CCc1ccc2c(c1)OCO2
REMARK SMILES IDX 4 1 2 2 1 3 3 4 5 5 6 6 7 7 11 8 8 9 10 10 9 11 12 12 14 13
REMARK SMILES IDX 13 14
REMARK H PARENT
REMARK Flexibility Score: inf
ROOT
ATOM      1  C   UNL     1       5.521   1.929   1.258  1.00  0.00     0.080 C 
ENDROOT
BRANCH   1   2
ATOM      2  C   UNL     1       5.096   0.713   2.004  1.00  0.00     0.130 C 
ATOM      3  C   UNL     1       6.004  -0.452   2.182  1.00  0.00     0.087 C 
ATOM      4  O   UNL     1       3.981   0.636   2.494  1.00  0.00    -0.300 OA
ENDBRANCH   1   2
BRANCH   1   5
ATOM      5  C   UNL     1       5.389   1.731  -0.239  1.00  0.00     0.043 C 
BRANCH   5   6
ATOM      6  C   UNL     1       6.559   1.033  -0.803  1.00  0.00    -0.044 A 
ATOM      7  C   UNL     1       7.864   1.476  -0.560  1.00  0.00     0.008 A 
ATOM      8  C   UNL     1       6.375  -0.083  -1.587  1.00  0.00     0.054 A 
ATOM      9  C   UNL     1       8.923   0.781  -1.115  1.00  0.00     0.051 A 
ATOM     10  C   UNL     1       7.449  -0.783  -2.145  1.00  0.00     0.166 A 
ATOM     11  C   UNL     1       8.733  -0.347  -1.908  1.00  0.00     0.165 A 
ATOM     12  O   UNL     1       7.526  -1.902  -2.947  1.00  0.00    -0.454 OA
ATOM     13  O   UNL     1       9.581  -1.217  -2.574  1.00  0.00    -0.454 OA
ATOM     14  C   UNL     1       8.863  -2.270  -3.171  1.00  0.00     0.468 C 
ENDBRANCH   5   6
ENDBRANCH   1   5
TORSDOF 3
ENDMDL
MODEL 3
REMARK VINA RESULT:      -7.6      1.129      1.544
REMARK SMILES CC(=O)CCc1ccc2c(c1)OCO2
REMARK SMILES IDX 4 1 2 2 1 3 3 4 5 5 6 6 7 7 11 8 8 9 10 10 9 11 12 12 14 13
REMARK SMILES IDX 13 14
REMARK H PARENT
REMARK Flexibility Score: inf
ROOT
ATOM      1  C   UNL     1       5.386   2.836   0.082  1.00  0.00     0.080 C 
ENDROOT
BRANCH   1   2
ATOM      2  C   UNL     1       6.243   3.676   0.964  1.00  0.00     0.130 C 
ATOM      3  C   UNL     1       7.106   4.756   0.414  1.00  0.00     0.087 C 
ATOM      4  O   UNL     1       6.263   3.500   2.171  1.00  0.00    -0.300 OA
ENDBRANCH   1   2
BRANCH   1   5
ATOM      5  C   UNL     1       5.547   1.362   0.399  1.00  0.00     0.043 C 
BRANCH   5   6
ATOM      6  C   UNL     1       6.658   0.759  -0.358  1.00  0.00    -0.044 A 
ATOM      7  C   UNL     1       7.926   1.351  -0.397  1.00  0.00     0.008 A 
ATOM      8  C   UNL     1       6.456  -0.417  -1.045  1.00  0.00     0.054 A 
ATOM      9  C   UNL     1       8.930   0.739  -1.124  1.00  0.00     0.051 A 
ATOM     10  C   UNL     1       7.476  -1.032  -1.778  1.00  0.00     0.166 A 
ATOM     11  C   UNL     1       8.723  -0.450  -1.818  1.00  0.00     0.165 A 
ATOM     12  O   UNL     1       7.525  -2.184  -2.534  1.00  0.00    -0.454 OA
ATOM     13  O   UNL     1       9.521  -1.265  -2.605  1.00  0.00    -0.454 OA
ATOM     14  C   UNL     1       8.827  -2.422  -3.005  1.00  0.00     0.468 C 
ENDBRANCH   5   6
ENDBRANCH   1   5
TORSDOF 3
ENDMDL
MODEL 4
REMARK VINA RESULT:      -7.5      1.960      3.018
REMARK SMILES CC(=O)CCc1ccc2c(c1)OCO2
REMARK SMILES IDX 4 1 2 2 1 3 3 4 5 5 6 6 7 7 11 8 8 9 10 10 9 11 12 12 14 13
REMARK SMILES IDX 13 14
REMARK H PARENT
REMARK Flexibility Score: inf
ROOT
ATOM      1  C   UNL     1       5.781   1.375  -0.380  1.00  0.00     0.080 C 
ENDROOT
BRANCH   1   2
ATOM      2  C   UNL     1       5.134   1.339   0.962  1.00  0.00     0.130 C 
ATOM      3  C   UNL     1       5.394   0.235   1.925  1.00  0.00     0.087 C 
ATOM      4  O   UNL     1       4.367   2.221   1.311  1.00  0.00    -0.300 OA
ENDBRANCH   1   2
BRANCH   1   5
ATOM      5  C   UNL     1       7.271   1.111  -0.280  1.00  0.00     0.043 C 
BRANCH   5   6
ATOM      6  C   UNL     1       7.637  -0.185  -0.878  1.00  0.00    -0.044 A 
ATOM      7  C   UNL     1       7.717  -0.356  -2.265  1.00  0.00     0.008 A 
ATOM      8  C   UNL     1       7.913  -1.259  -0.062  1.00  0.00     0.054 A 
ATOM      9  C   UNL     1       8.067  -1.595  -2.769  1.00  0.00     0.051 A 
ATOM     10  C   UNL     1       8.267  -2.510  -0.577  1.00  0.00     0.166 A 
ATOM     11  C   UNL     1       8.344  -2.679  -1.941  1.00  0.00     0.165 A 
ATOM     12  O   UNL     1       8.582  -3.714   0.015  1.00  0.00    -0.454 OA
ATOM     13  O   UNL     1       8.710  -3.998  -2.161  1.00  0.00    -0.454 OA
ATOM     14  C   UNL     1       8.960  -4.665  -0.947  1.00  0.00     0.468 C 
ENDBRANCH   5   6
ENDBRANCH   1   5
TORSDOF 3
ENDMDL
MODEL 5
REMARK VINA RESULT:      -7.5      1.826      2.830
REMARK SMILES CC(=O)CCc1ccc2c(c1)OCO2
REMARK SMILES IDX 4 1 2 2 1 3 3 4 5 5 6 6 7 7 11 8 8 9 10 10 9 11 12 12 14 13
REMARK SMILES IDX 13 14
REMARK H PARENT
REMARK Flexibility Score: inf
ROOT
ATOM      1  C   UNL     1       6.343   0.906   1.048  1.00  0.00     0.080 C 
ENDROOT
BRANCH   1   2
ATOM      2  C   UNL     1       5.121   1.749   0.933  1.00  0.00     0.130 C 
ATOM      3  C   UNL     1       4.893   2.638  -0.237  1.00  0.00     0.087 C 
ATOM      4  O   UNL     1       4.264   1.733   1.802  1.00  0.00    -0.300 OA
ENDBRANCH   1   2
BRANCH   1   5
ATOM      5  C   UNL     1       7.253   1.088  -0.150  1.00  0.00     0.043 C 
BRANCH   5   6
ATOM      6  C   UNL     1       7.588  -0.200  -0.783  1.00  0.00    -0.044 A 
ATOM      7  C   UNL     1       7.573  -0.359  -2.174  1.00  0.00     0.008 A 
ATOM      8  C   UNL     1       7.926  -1.278   0.002  1.00  0.00     0.054 A 
ATOM      9  C   UNL     1       7.897  -1.592  -2.711  1.00  0.00     0.051 A 
ATOM     10  C   UNL     1       8.253  -2.522  -0.546  1.00  0.00     0.166 A 
ATOM     11  C   UNL     1       8.238  -2.680  -1.914  1.00  0.00     0.165 A 
ATOM     12  O   UNL     1       8.617  -3.729   0.012  1.00  0.00    -0.454 OA
ATOM     13  O   UNL     1       8.598  -3.994  -2.170  1.00  0.00    -0.454 OA
ATOM     14  C   UNL     1       8.935  -4.669  -0.982  1.00  0.00     0.468 C 
ENDBRANCH   5   6
ENDBRANCH   1   5
TORSDOF 3
ENDMDL
