MODEL 1
REMARK VINA RESULT:      -7.8      0.000      0.000
REMARK SMILES CC(=O)CCc1ccc2c(c1)OCO2
REMARK SMILES IDX 4 1 2 2 1 3 3 4 5 5 6 6 7 7 11 8 8 9 10 10 9 11 12 12 14 13
REMARK SMILES IDX 13 14
REMARK H PARENT
REMARK Flexibility Score: inf
ROOT
ATOM      1  C   UNL     1       5.349   2.973   0.191  1.00  0.00     0.080 C 
ENDROOT
BRANCH   1   2
ATOM      2  C   UNL     1       6.259   3.850   0.980  1.00  0.00     0.130 C 
ATOM      3  C   UNL     1       7.220   4.774   0.320  1.00  0.00     0.087 C 
ATOM      4  O   UNL     1       6.242   3.834   2.200  1.00  0.00    -0.300 OA
ENDBRANCH   1   2
BRANCH   1   5
ATOM      5  C   UNL     1       5.132   1.642   0.882  1.00  0.00     0.043 C 
BRANCH   5   6
ATOM      6  C   UNL     1       5.977   0.582   0.303  1.00  0.00    -0.044 A 
ATOM      7  C   UNL     1       6.362   0.604  -1.042  1.00  0.00     0.008 A 
ATOM      8  C   UNL     1       6.404  -0.459   1.096  1.00  0.00     0.054 A 
ATOM      9  C   UNL     1       7.156  -0.418  -1.530  1.00  0.00     0.051 A 
ATOM     10  C   UNL     1       7.207  -1.490   0.598  1.00  0.00     0.166 A 
ATOM     11  C   UNL     1       7.586  -1.469  -0.726  1.00  0.00     0.165 A 
ATOM     12  O   UNL     1       7.753  -2.617   1.174  1.00  0.00    -0.454 OA
ATOM     13  O   UNL     1       8.366  -2.595  -0.937  1.00  0.00    -0.454 OA
ATOM     14  C   UNL     1       8.572  -3.303   0.262  1.00  0.00     0.468 C 
ENDBRANCH   5   6
ENDBRANCH   1   5
TORSDOF 3
ENDMDL
MODEL 2
REMARK VINA RESULT:      -7.7      0.991      1.983
REMARK SMILES CC(=O)CCc1ccc2c(c1)OCO2
REMARK SMILES IDX 4 1 2 2 1 3 3 4 5 5 6 6 7 7 11 8 8 9 10 10 9 11 12 12 14 13
REMARK SMILES IDX 13 14
REMARK H PARENT
REMARK Flexibility Score: inf
ROOT
ATOM      1  C   UNL     1       5.455   2.904   0.347  1.00  0.00     0.080 C 
ENDROOT
BRANCH   1   2
ATOM      2  C   UNL     1       6.283   3.917   1.059  1.00  0.00     0.130 C 
ATOM      3  C   UNL     1       7.259   4.775   0.336  1.00  0.00     0.087 C 
ATOM      4  O   UNL     1       6.182   4.073   2.265  1.00  0.00    -0.300 OA
ENDBRANCH   1   2
BRANCH   1   5
ATOM      5  C   UNL     1       5.348   1.620   1.147  1.00  0.00     0.043 C 
BRANCH   5   6
ATOM      6  C   UNL     1       6.130   0.530   0.537  1.00  0.00    -0.044 A 
ATOM      7  C   UNL     1       6.510  -0.599   1.271  1.00  0.00     0.008 A 
ATOM      8  C   UNL     1       6.500   0.613  -0.786  1.00  0.00     0.054 A 
ATOM      9  C   UNL     1       7.242  -1.592   0.646  1.00  0.00     0.051 A 
ATOM     10  C   UNL     1       7.240  -0.393  -1.415  1.00  0.00     0.166 A 
ATOM     11  C   UNL     1       7.614  -1.504  -0.692  1.00  0.00     0.165 A 
ATOM     12  O   UNL     1       7.723  -0.543  -2.697  1.00  0.00    -0.454 OA
ATOM     13  O   UNL     1       8.326  -2.322  -1.556  1.00  0.00    -0.454 OA
ATOM     14  C   UNL     1       8.341  -1.794  -2.860  1.00  0.00     0.468 C 
ENDBRANCH   5   6
ENDBRANCH   1   5
TORSDOF 3
ENDMDL
MODEL 3
REMARK VINA RESULT:      -7.6      2.404      3.038
REMARK SMILES CC(=O)CCc1ccc2c(c1)OCO2
REMARK SMILES IDX 4 1 2 2 1 3 3 4 5 5 6 6 7 7 11 8 8 9 10 10 9 11 12 12 14 13
REMARK SMILES IDX 13 14
REMARK H PARENT
REMARK Flexibility Score: inf
ROOT
ATOM      1  C   UNL     1       5.536   1.934   1.278  1.00  0.00     0.080 C 
ENDROOT
BRANCH   1   2
ATOM      2  C   UNL     1       5.104   0.714   2.016  1.00  0.00     0.130 C 
ATOM      3  C   UNL     1       6.009  -0.452   2.194  1.00  0.00     0.087 C 
ATOM      4  O   UNL     1       3.985   0.637   2.498  1.00  0.00    -0.300 OA
ENDBRANCH   1   2
BRANCH   1   5
ATOM      5  C   UNL     1       5.406   1.746  -0.221  1.00  0.00     0.043 C 
BRANCH   5   6
ATOM      6  C   UNL     1       6.571   1.043  -0.786  1.00  0.00    -0.044 A 
ATOM      7  C   UNL     1       7.879   1.474  -0.537  1.00  0.00     0.008 A 
ATOM      8  C   UNL     1       6.380  -0.067  -1.577  1.00  0.00     0.054 A 
ATOM      9  C   UNL     1       8.934   0.774  -1.094  1.00  0.00     0.051 A 
ATOM     10  C   UNL     1       7.450  -0.772  -2.138  1.00  0.00     0.166 A 
ATOM     11  C   UNL     1       8.737  -0.348  -1.894  1.00  0.00     0.165 A 
ATOM     12  O   UNL     1       7.520  -1.887  -2.946  1.00  0.00    -0.454 OA
ATOM     13  O   UNL     1       9.580  -1.220  -2.564  1.00  0.00    -0.454 OA
ATOM     14  C   UNL     1       8.855  -2.264  -3.169  1.00  0.00     0.468 C 
ENDBRANCH   5   6
ENDBRANCH   1   5
TORSDOF 3
ENDMDL
MODEL 4
REMARK VINA RESULT:      -7.5      1.775      2.461
REMARK SMILES CC(=O)CCc1ccc2c(c1)OCO2
REMARK SMILES IDX 4 1 2 2 1 3 3 4 5 5 6 6 7 7 11 8 8 9 10 10 9 11 12 12 14 13
REMARK SMILES IDX 13 14
REMARK H PARENT
REMARK Flexibility Score: inf
ROOT
ATOM      1  C   UNL     1       5.724   1.302  -0.321  1.00  0.00     0.080 C 
ENDROOT
BRANCH   1   2
ATOM      2  C   UNL     1       5.189   1.297   1.069  1.00  0.00     0.130 C 
ATOM      3  C   UNL     1       5.359   0.124   1.968  1.00  0.00     0.087 C 
ATOM      4  O   UNL     1       4.590   2.264   1.513  1.00  0.00    -0.300 OA
ENDBRANCH   1   2
BRANCH   1   5
ATOM      5  C   UNL     1       7.228   1.111  -0.332  1.00  0.00     0.043 C 
BRANCH   5   6
ATOM      6  C   UNL     1       7.611  -0.188  -0.912  1.00  0.00    -0.044 A 
ATOM      7  C   UNL     1       7.707  -0.372  -2.297  1.00  0.00     0.008 A 
ATOM      8  C   UNL     1       7.884  -1.252  -0.083  1.00  0.00     0.054 A 
ATOM      9  C   UNL     1       8.071  -1.614  -2.784  1.00  0.00     0.051 A 
ATOM     10  C   UNL     1       8.252  -2.506  -0.581  1.00  0.00     0.166 A 
ATOM     11  C   UNL     1       8.346  -2.688  -1.943  1.00  0.00     0.165 A 
ATOM     12  O   UNL     1       8.568  -3.702   0.026  1.00  0.00    -0.454 OA
ATOM     13  O   UNL     1       8.724  -4.006  -2.145  1.00  0.00    -0.454 OA
ATOM     14  C   UNL     1       8.964  -4.660  -0.922  1.00  0.00     0.468 C 
ENDBRANCH   5   6
ENDBRANCH   1   5
TORSDOF 3
ENDMDL
MODEL 5
REMARK VINA RESULT:      -7.4      1.475      2.025
REMARK SMILES CC(=O)CCc1ccc2c(c1)OCO2
REMARK SMILES IDX 4 1 2 2 1 3 3 4 5 5 6 6 7 7 11 8 8 9 10 10 9 11 12 12 14 13
REMARK SMILES IDX 13 14
REMARK H PARENT
REMARK Flexibility Score: inf
ROOT
ATOM      1  C   UNL     1       5.758   1.321  -0.403  1.00  0.00     0.080 C 
ENDROOT
BRANCH   1   2
ATOM      2  C   UNL     1       5.357   2.379   0.566  1.00  0.00     0.130 C 
ATOM      3  C   UNL     1       6.124   3.646   0.699  1.00  0.00     0.087 C 
ATOM      4  O   UNL     1       4.381   2.234   1.284  1.00  0.00    -0.300 OA
ENDBRANCH   1   2
BRANCH   1   5
ATOM      5  C   UNL     1       7.259   1.111  -0.400  1.00  0.00     0.043 C 
BRANCH   5   6
ATOM      6  C   UNL     1       7.628  -0.203  -0.956  1.00  0.00    -0.044 A 
ATOM      7  C   UNL     1       7.719  -0.416  -2.337  1.00  0.00     0.008 A 
ATOM      8  C   UNL     1       7.895  -1.253  -0.107  1.00  0.00     0.054 A 
ATOM      9  C   UNL     1       8.070  -1.670  -2.801  1.00  0.00     0.051 A 
ATOM     10  C   UNL     1       8.251  -2.519  -0.581  1.00  0.00     0.166 A 
ATOM     11  C   UNL     1       8.339  -2.729  -1.940  1.00  0.00     0.165 A 
ATOM     12  O   UNL     1       8.559  -3.706   0.049  1.00  0.00    -0.454 OA
ATOM     13  O   UNL     1       8.705  -4.054  -2.117  1.00  0.00    -0.454 OA
ATOM     14  C   UNL     1       8.943  -4.686  -0.882  1.00  0.00     0.468 C 
ENDBRANCH   5   6
ENDBRANCH   1   5
TORSDOF 3
ENDMDL
