@<TRIPOS>MOLECULE
/home/cewinharhar/GITHUB/reincatalyze/data/processed/docking_pred/2023-May-22-1902_sub9_nm5_bs15_s42_ex16_mel10_mts1000_k50_ec02_g099_lra9e-4_lrc1e-3/c584487daa348165e33ca71579c90fd99cb4babd_ligand_9.pdbqt
 14 15 0 0 0
SMALL
GASTEIGER

@<TRIPOS>ATOM
      1  C          5.5360    1.9340    1.2780 C.3     1  UNL1        0.0800
      2  C          5.1040    0.7140    2.0160 C.2     1  UNL1        0.1300
      3  C          6.0090   -0.4520    2.1940 C.3     1  UNL1        0.0870
      4  O          3.9850    0.6370    2.4980 O.2     1  UNL1       -0.3000
      5  C          5.4060    1.7460   -0.2210 C.3     1  UNL1        0.0430
      6  C          6.5710    1.0430   -0.7860 C.2     1  UNL1       -0.0440
      7  C          7.8790    1.4740   -0.5370 C.2     1  UNL1        0.0080
      8  C          6.3800   -0.0670   -1.5770 C.2     1  UNL1        0.0540
      9  C          8.9340    0.7740   -1.0940 C.2     1  UNL1        0.0510
     10  C          7.4500   -0.7720   -2.1380 C.2     1  UNL1        0.1660
     11  C          8.7370   -0.3480   -1.8940 C.2     1  UNL1        0.1650
     12  O          7.5200   -1.8870   -2.9460 O.2     1  UNL1       -0.4540
     13  O          9.5800   -1.2200   -2.5640 O.2     1  UNL1       -0.4540
     14  C          8.8550   -2.2640   -3.1690 C.3     1  UNL1        0.4680
@<TRIPOS>BOND
     1    14    12    1
     2    14    13    1
     3    12    10    1
     4    13    11    1
     5    10    11    2
     6    10     8    1
     7    11     9    1
     8     8     6    2
     9     9     7    2
    10     6     7    1
    11     6     5    1
    12     5     1    1
    13     1     2    1
    14     2     3    1
    15     2     4    2
