@<TRIPOS>MOLECULE
/home/cewinharhar/GITHUB/reincatalyze/data/processed/docking_pred/2023-May-22-1902_sub9_nm5_bs15_s42_ex16_mel10_mts1000_k50_ec02_g099_lra9e-4_lrc1e-3/c584487daa348165e33ca71579c90fd99cb4babd_ligand_9.pdbqt
 14 15 0 0 0
SMALL
GASTEIGER

@<TRIPOS>ATOM
      1  C          5.4550    2.9040    0.3470 C.3     1  UNL1        0.0800
      2  C          6.2830    3.9170    1.0590 C.2     1  UNL1        0.1300
      3  C          7.2590    4.7750    0.3360 C.3     1  UNL1        0.0870
      4  O          6.1820    4.0730    2.2650 O.2     1  UNL1       -0.3000
      5  C          5.3480    1.6200    1.1470 C.3     1  UNL1        0.0430
      6  C          6.1300    0.5300    0.5370 C.2     1  UNL1       -0.0440
      7  C          6.5100   -0.5990    1.2710 C.2     1  UNL1        0.0080
      8  C          6.5000    0.6130   -0.7860 C.2     1  UNL1        0.0540
      9  C          7.2420   -1.5920    0.6460 C.2     1  UNL1        0.0510
     10  C          7.2400   -0.3930   -1.4150 C.2     1  UNL1        0.1660
     11  C          7.6140   -1.5040   -0.6920 C.2     1  UNL1        0.1650
     12  O          7.7230   -0.5430   -2.6970 O.2     1  UNL1       -0.4540
     13  O          8.3260   -2.3220   -1.5560 O.2     1  UNL1       -0.4540
     14  C          8.3410   -1.7940   -2.8600 C.3     1  UNL1        0.4680
@<TRIPOS>BOND
     1    14    12    1
     2    14    13    1
     3    12    10    1
     4    13    11    1
     5    10     8    1
     6    10    11    2
     7     8     6    2
     8    11     9    1
     9     3     2    1
    10     1     2    1
    11     1     5    1
    12     6     5    1
    13     6     7    1
    14     9     7    2
    15     2     4    2
