@<TRIPOS>MOLECULE
/home/cewinharhar/GITHUB/reincatalyze/data/processed/docking_pred/2023-May-22-1902_sub9_nm5_bs15_s42_ex16_mel10_mts1000_k50_ec02_g099_lra9e-4_lrc1e-3/c584487daa348165e33ca71579c90fd99cb4babd_ligand_9.pdbqt
 14 15 0 0 0
SMALL
GASTEIGER

@<TRIPOS>ATOM
      1  C          5.7580    1.3210   -0.4030 C.3     1  UNL1        0.0800
      2  C          5.3570    2.3790    0.5660 C.2     1  UNL1        0.1300
      3  C          6.1240    3.6460    0.6990 C.3     1  UNL1        0.0870
      4  O          4.3810    2.2340    1.2840 O.2     1  UNL1       -0.3000
      5  C          7.2590    1.1110   -0.4000 C.3     1  UNL1        0.0430
      6  C          7.6280   -0.2030   -0.9560 C.2     1  UNL1       -0.0440
      7  C          7.7190   -0.4160   -2.3370 C.2     1  UNL1        0.0080
      8  C          7.8950   -1.2530   -0.1070 C.2     1  UNL1        0.0540
      9  C          8.0700   -1.6700   -2.8010 C.2     1  UNL1        0.0510
     10  C          8.2510   -2.5190   -0.5810 C.2     1  UNL1        0.1660
     11  C          8.3390   -2.7290   -1.9400 C.2     1  UNL1        0.1650
     12  O          8.5590   -3.7060    0.0490 O.2     1  UNL1       -0.4540
     13  O          8.7050   -4.0540   -2.1170 O.2     1  UNL1       -0.4540
     14  C          8.9430   -4.6860   -0.8820 C.3     1  UNL1        0.4680
@<TRIPOS>BOND
     1     9     7    1
     2     9    11    2
     3     7     6    2
     4    13    11    1
     5    13    14    1
     6    11    10    1
     7     6     5    1
     8     6     8    1
     9    14    12    1
    10    10     8    2
    11    10    12    1
    12     1     5    1
    13     1     2    1
    14     2     3    1
    15     2     4    2
