@<TRIPOS>MOLECULE
/home/cewinharhar/GITHUB/reincatalyze/data/processed/docking_pred/2023-May-22-1902_sub9_nm5_bs15_s42_ex16_mel10_mts1000_k50_ec02_g099_lra9e-4_lrc1e-3/c5f7f675b3df69e676e62d17e40489667b0e6a6f_ligand_9.pdbqt
 14 15 0 0 0
SMALL
GASTEIGER

@<TRIPOS>ATOM
      1  C          5.4380    2.8810    0.1770 C.3     1  UNL1        0.0800
      2  C          6.2600    3.7890    1.0250 C.2     1  UNL1        0.1300
      3  C          7.2010    4.7750    0.4300 C.3     1  UNL1        0.0870
      4  O          6.1830    3.7480    2.2430 O.2     1  UNL1       -0.3000
      5  C          5.1790    1.5610    0.8740 C.3     1  UNL1        0.0430
      6  C          6.0410    0.4870    0.3500 C.2     1  UNL1       -0.0440
      7  C          6.4750   -0.5670    1.1620 C.2     1  UNL1        0.0080
      8  C          6.4330    0.5090   -0.9690 C.2     1  UNL1        0.0540
      9  C          7.2830   -1.5470    0.6150 C.2     1  UNL1        0.0510
     10  C          7.2490   -0.4840   -1.5180 C.2     1  UNL1        0.1660
     11  C          7.6780   -1.5210   -0.7190 C.2     1  UNL1        0.1650
     12  O          7.7680   -0.6830   -2.7800 O.2     1  UNL1       -0.4540
     13  O          8.4590   -2.3440   -1.5160 O.2     1  UNL1       -0.4540
     14  C          8.4680   -1.8990   -2.8510 C.3     1  UNL1        0.4680
@<TRIPOS>BOND
     1    14    12    1
     2    14    13    1
     3    12    10    1
     4    10     8    1
     5    10    11    2
     6    13    11    1
     7     8     6    2
     8    11     9    1
     9     1     5    1
    10     1     2    1
    11     6     5    1
    12     6     7    1
    13     3     2    1
    14     9     7    2
    15     2     4    2
