@<TRIPOS>MOLECULE
/home/cewinharhar/GITHUB/reincatalyze/data/processed/docking_pred/2023-May-22-1902_sub9_nm5_bs15_s42_ex16_mel10_mts1000_k50_ec02_g099_lra9e-4_lrc1e-3/c61eb663c2c3330cf201d691d278f59eb7eebd68_ligand_9.pdbqt
 14 15 0 0 0
SMALL
GASTEIGER

@<TRIPOS>ATOM
      1  C          5.6180    1.2890   -0.5160 C.3     1  UNL1        0.0800
      2  C          5.3480    2.2510    0.5890 C.2     1  UNL1        0.1300
      3  C          6.1250    3.5100    0.7360 C.3     1  UNL1        0.0870
      4  O          4.4740    2.0300    1.4120 O.2     1  UNL1       -0.3000
      5  C          7.1070    1.1110   -0.7380 C.3     1  UNL1        0.0430
      6  C          7.5450   -0.2620   -0.4330 C.2     1  UNL1       -0.0440
      7  C          7.6770   -0.7130    0.8860 C.2     1  UNL1        0.0080
      8  C          7.8300   -1.1320   -1.4610 C.2     1  UNL1        0.0540
      9  C          8.0910   -2.0130    1.1120 C.2     1  UNL1        0.0510
     10  C          8.2480   -2.4460   -1.2270 C.2     1  UNL1        0.1660
     11  C          8.3800   -2.8900    0.0700 C.2     1  UNL1        0.1650
     12  O          8.5880   -3.4870   -2.0640 O.2     1  UNL1       -0.4540
     13  O          8.8010   -4.2080    0.0010 O.2     1  UNL1       -0.4540
     14  C          8.8590   -4.6550   -1.3330 C.3     1  UNL1        0.4680
@<TRIPOS>BOND
     1    12    14    1
     2    12    10    1
     3     8    10    1
     4     8     6    2
     5    14    13    1
     6    10    11    2
     7     5     1    1
     8     5     6    1
     9     1     2    1
    10     6     7    1
    11    13    11    1
    12    11     9    1
    13     2     3    1
    14     2     4    2
    15     7     9    2
