@<TRIPOS>MOLECULE
/home/cewinharhar/GITHUB/reincatalyze/data/processed/docking_pred/2023-May-22-1902_sub9_nm5_bs15_s42_ex16_mel10_mts1000_k50_ec02_g099_lra9e-4_lrc1e-3/c8a10dea28a77dd5a54e6b3bff917c6d12aef46d_ligand_9.pdbqt
 14 15 0 0 0
SMALL
GASTEIGER

@<TRIPOS>ATOM
      1  C          5.5210    1.9130    1.2550 C.3     1  UNL1        0.0800
      2  C          5.0640    0.7050    1.9980 C.2     1  UNL1        0.1300
      3  C          5.9320   -0.4940    2.1480 C.3     1  UNL1        0.0870
      4  O          3.9560    0.6640    2.5080 O.2     1  UNL1       -0.3000
      5  C          5.3950    1.7180   -0.2430 C.3     1  UNL1        0.0430
      6  C          6.5660    1.0220   -0.8040 C.2     1  UNL1       -0.0440
      7  C          7.8700    1.4690   -0.5610 C.2     1  UNL1        0.0080
      8  C          6.3860   -0.0970   -1.5840 C.2     1  UNL1        0.0540
      9  C          8.9310    0.7750   -1.1140 C.2     1  UNL1        0.0510
     10  C          7.4620   -0.7960   -2.1400 C.2     1  UNL1        0.1660
     11  C          8.7450   -0.3560   -1.9030 C.2     1  UNL1        0.1650
     12  O          7.5420   -1.9180   -2.9380 O.2     1  UNL1       -0.4540
     13  O          9.5960   -1.2260   -2.5660 O.2     1  UNL1       -0.4540
     14  C          8.8800   -2.2830   -3.1600 C.3     1  UNL1        0.4680
@<TRIPOS>BOND
     1    14    12    1
     2    14    13    1
     3    12    10    1
     4    13    11    1
     5    10    11    2
     6    10     8    1
     7    11     9    1
     8     8     6    2
     9     9     7    2
    10     6     7    1
    11     6     5    1
    12     5     1    1
    13     1     2    1
    14     2     3    1
    15     2     4    2
