@<TRIPOS>MOLECULE
/home/cewinharhar/GITHUB/reincatalyze/data/processed/docking_pred/2023-May-22-1902_sub9_nm5_bs15_s42_ex16_mel10_mts1000_k50_ec02_g099_lra9e-4_lrc1e-3/c8a10dea28a77dd5a54e6b3bff917c6d12aef46d_ligand_9.pdbqt
 14 15 0 0 0
SMALL
GASTEIGER

@<TRIPOS>ATOM
      1  C          5.7500    1.3010   -0.3950 C.3     1  UNL1        0.0800
      2  C          5.1450    1.3210    0.9660 C.2     1  UNL1        0.1300
      3  C          5.3310    0.1950    1.9200 C.3     1  UNL1        0.0870
      4  O          4.4730    2.2690    1.3400 O.2     1  UNL1       -0.3000
      5  C          7.2460    1.0690   -0.3290 C.3     1  UNL1        0.0430
      6  C          7.6230   -0.2320   -0.9110 C.2     1  UNL1       -0.0440
      7  C          7.6970   -0.4210   -2.2960 C.2     1  UNL1        0.0080
      8  C          7.9150   -1.2910   -0.0830 C.2     1  UNL1        0.0540
      9  C          8.0570   -1.6630   -2.7860 C.2     1  UNL1        0.0510
     10  C          8.2790   -2.5450   -0.5830 C.2     1  UNL1        0.1660
     11  C          8.3510   -2.7330   -1.9450 C.2     1  UNL1        0.1650
     12  O          8.6110   -3.7380    0.0240 O.2     1  UNL1       -0.4540
     13  O          8.7300   -4.0500   -2.1490 O.2     1  UNL1       -0.4540
     14  C          8.9930   -4.6980   -0.9280 C.3     1  UNL1        0.4680
@<TRIPOS>BOND
     1     9     7    1
     2     9    11    2
     3     7     6    2
     4    13    11    1
     5    13    14    1
     6    11    10    1
     7    14    12    1
     8     6     5    1
     9     6     8    1
    10    10     8    2
    11    10    12    1
    12     1     5    1
    13     1     2    1
    14     2     4    2
    15     2     3    1
