@<TRIPOS>MOLECULE
/home/cewinharhar/GITHUB/reincatalyze/data/processed/docking_pred/2023-May-22-1902_sub9_nm5_bs15_s42_ex16_mel10_mts1000_k50_ec02_g099_lra9e-4_lrc1e-3/c8a10dea28a77dd5a54e6b3bff917c6d12aef46d_ligand_9.pdbqt
 14 15 0 0 0
SMALL
GASTEIGER

@<TRIPOS>ATOM
      1  C          5.4510    2.8900    0.2420 C.3     1  UNL1        0.0800
      2  C          6.2890    3.8170    1.0520 C.2     1  UNL1        0.1300
      3  C          7.2320    4.7750    0.4150 C.3     1  UNL1        0.0870
      4  O          6.2260    3.8180    2.2700 O.2     1  UNL1       -0.3000
      5  C          5.2030    1.5880    0.9780 C.3     1  UNL1        0.0430
      6  C          6.0190    0.4880    0.4330 C.2     1  UNL1       -0.0440
      7  C          6.4150   -0.5940    1.2270 C.2     1  UNL1        0.0080
      8  C          6.4040    0.5140   -0.8880 C.2     1  UNL1        0.0540
      9  C          7.1790   -1.5980    0.6610 C.2     1  UNL1        0.0510
     10  C          7.1760   -0.5040   -1.4560 C.2     1  UNL1        0.1660
     11  C          7.5670   -1.5680   -0.6750 C.2     1  UNL1        0.1650
     12  O          7.6800   -0.7050   -2.7240 O.2     1  UNL1       -0.4540
     13  O          8.3100   -2.4100   -1.4880 O.2     1  UNL1       -0.4540
     14  C          8.3300   -1.9460   -2.8170 C.3     1  UNL1        0.4680
@<TRIPOS>BOND
     1    14    12    1
     2    14    13    1
     3    12    10    1
     4    13    11    1
     5    10     8    1
     6    10    11    2
     7     8     6    2
     8    11     9    1
     9     1     5    1
    10     1     2    1
    11     3     2    1
    12     6     5    1
    13     6     7    1
    14     9     7    2
    15     2     4    2
