MODEL 1
REMARK VINA RESULT:      -7.8      0.000      0.000
REMARK SMILES CC(=O)CCc1ccc2c(c1)OCO2
REMARK SMILES IDX 4 1 2 2 1 3 3 4 5 5 6 6 7 7 11 8 8 9 10 10 9 11 12 12 14 13
REMARK SMILES IDX 13 14
REMARK H PARENT
REMARK Flexibility Score: inf
ROOT
ATOM      1  C   UNL     1       5.451   2.890   0.242  1.00  0.00     0.080 C 
ENDROOT
BRANCH   1   2
ATOM      2  C   UNL     1       6.289   3.817   1.052  1.00  0.00     0.130 C 
ATOM      3  C   UNL     1       7.232   4.775   0.415  1.00  0.00     0.087 C 
ATOM      4  O   UNL     1       6.226   3.818   2.270  1.00  0.00    -0.300 OA
ENDBRANCH   1   2
BRANCH   1   5
ATOM      5  C   UNL     1       5.203   1.588   0.978  1.00  0.00     0.043 C 
BRANCH   5   6
ATOM      6  C   UNL     1       6.019   0.488   0.433  1.00  0.00    -0.044 A 
ATOM      7  C   UNL     1       6.415  -0.594   1.227  1.00  0.00     0.008 A 
ATOM      8  C   UNL     1       6.404   0.514  -0.888  1.00  0.00     0.054 A 
ATOM      9  C   UNL     1       7.179  -1.598   0.661  1.00  0.00     0.051 A 
ATOM     10  C   UNL     1       7.176  -0.504  -1.456  1.00  0.00     0.166 A 
ATOM     11  C   UNL     1       7.567  -1.568  -0.675  1.00  0.00     0.165 A 
ATOM     12  O   UNL     1       7.680  -0.705  -2.724  1.00  0.00    -0.454 OA
ATOM     13  O   UNL     1       8.310  -2.410  -1.488  1.00  0.00    -0.454 OA
ATOM     14  C   UNL     1       8.330  -1.946  -2.817  1.00  0.00     0.468 C 
ENDBRANCH   5   6
ENDBRANCH   1   5
TORSDOF 3
ENDMDL
MODEL 2
REMARK VINA RESULT:      -7.8      0.948      1.940
REMARK SMILES CC(=O)CCc1ccc2c(c1)OCO2
REMARK SMILES IDX 4 1 2 2 1 3 3 4 5 5 6 6 7 7 11 8 8 9 10 10 9 11 12 12 14 13
REMARK SMILES IDX 13 14
REMARK H PARENT
REMARK Flexibility Score: inf
ROOT
ATOM      1  C   UNL     1       5.482   2.894   0.210  1.00  0.00     0.080 C 
ENDROOT
BRANCH   1   2
ATOM      2  C   UNL     1       6.290   3.872   0.991  1.00  0.00     0.130 C 
ATOM      3  C   UNL     1       7.272   4.775   0.334  1.00  0.00     0.087 C 
ATOM      4  O   UNL     1       6.168   3.959   2.203  1.00  0.00    -0.300 OA
ENDBRANCH   1   2
BRANCH   1   5
ATOM      5  C   UNL     1       5.334   1.582   0.956  1.00  0.00     0.043 C 
BRANCH   5   6
ATOM      6  C   UNL     1       6.112   0.503   0.322  1.00  0.00    -0.044 A 
ATOM      7  C   UNL     1       6.401   0.514  -1.047  1.00  0.00     0.008 A 
ATOM      8  C   UNL     1       6.572  -0.545   1.086  1.00  0.00     0.054 A 
ATOM      9  C   UNL     1       7.136  -0.526  -1.587  1.00  0.00     0.051 A 
ATOM     10  C   UNL     1       7.315  -1.594   0.536  1.00  0.00     0.166 A 
ATOM     11  C   UNL     1       7.599  -1.584  -0.811  1.00  0.00     0.165 A 
ATOM     12  O   UNL     1       7.876  -2.732   1.076  1.00  0.00    -0.454 OA
ATOM     13  O   UNL     1       8.337  -2.728  -1.073  1.00  0.00    -0.454 OA
ATOM     14  C   UNL     1       8.613  -3.437   0.111  1.00  0.00     0.468 C 
ENDBRANCH   5   6
ENDBRANCH   1   5
TORSDOF 3
ENDMDL
MODEL 3
REMARK VINA RESULT:      -7.7      1.890      2.658
REMARK SMILES CC(=O)CCc1ccc2c(c1)OCO2
REMARK SMILES IDX 4 1 2 2 1 3 3 4 5 5 6 6 7 7 11 8 8 9 10 10 9 11 12 12 14 13
REMARK SMILES IDX 13 14
REMARK H PARENT
REMARK Flexibility Score: inf
ROOT
ATOM      1  C   UNL     1       5.521   1.913   1.255  1.00  0.00     0.080 C 
ENDROOT
BRANCH   1   2
ATOM      2  C   UNL     1       5.064   0.705   1.998  1.00  0.00     0.130 C 
ATOM      3  C   UNL     1       5.932  -0.494   2.148  1.00  0.00     0.087 C 
ATOM      4  O   UNL     1       3.956   0.664   2.508  1.00  0.00    -0.300 OA
ENDBRANCH   1   2
BRANCH   1   5
ATOM      5  C   UNL     1       5.395   1.718  -0.243  1.00  0.00     0.043 C 
BRANCH   5   6
ATOM      6  C   UNL     1       6.566   1.022  -0.804  1.00  0.00    -0.044 A 
ATOM      7  C   UNL     1       7.870   1.469  -0.561  1.00  0.00     0.008 A 
ATOM      8  C   UNL     1       6.386  -0.097  -1.584  1.00  0.00     0.054 A 
ATOM      9  C   UNL     1       8.931   0.775  -1.114  1.00  0.00     0.051 A 
ATOM     10  C   UNL     1       7.462  -0.796  -2.140  1.00  0.00     0.166 A 
ATOM     11  C   UNL     1       8.745  -0.356  -1.903  1.00  0.00     0.165 A 
ATOM     12  O   UNL     1       7.542  -1.918  -2.938  1.00  0.00    -0.454 OA
ATOM     13  O   UNL     1       9.596  -1.226  -2.566  1.00  0.00    -0.454 OA
ATOM     14  C   UNL     1       8.880  -2.283  -3.160  1.00  0.00     0.468 C 
ENDBRANCH   5   6
ENDBRANCH   1   5
TORSDOF 3
ENDMDL
MODEL 4
REMARK VINA RESULT:      -7.5      1.164      1.588
REMARK SMILES CC(=O)CCc1ccc2c(c1)OCO2
REMARK SMILES IDX 4 1 2 2 1 3 3 4 5 5 6 6 7 7 11 8 8 9 10 10 9 11 12 12 14 13
REMARK SMILES IDX 13 14
REMARK H PARENT
REMARK Flexibility Score: inf
ROOT
ATOM      1  C   UNL     1       5.445   2.794   0.187  1.00  0.00     0.080 C 
ENDROOT
BRANCH   1   2
ATOM      2  C   UNL     1       6.355   3.599   1.050  1.00  0.00     0.130 C 
ATOM      3  C   UNL     1       7.096   4.774   0.519  1.00  0.00     0.087 C 
ATOM      4  O   UNL     1       6.520   3.313   2.225  1.00  0.00    -0.300 OA
ENDBRANCH   1   2
BRANCH   1   5
ATOM      5  C   UNL     1       5.601   1.310   0.457  1.00  0.00     0.043 C 
BRANCH   5   6
ATOM      6  C   UNL     1       6.691   0.721  -0.342  1.00  0.00    -0.044 A 
ATOM      7  C   UNL     1       7.948   1.331  -0.430  1.00  0.00     0.008 A 
ATOM      8  C   UNL     1       6.479  -0.458  -1.020  1.00  0.00     0.054 A 
ATOM      9  C   UNL     1       8.932   0.732  -1.194  1.00  0.00     0.051 A 
ATOM     10  C   UNL     1       7.478  -1.060  -1.791  1.00  0.00     0.166 A 
ATOM     11  C   UNL     1       8.715  -0.460  -1.879  1.00  0.00     0.165 A 
ATOM     12  O   UNL     1       7.515  -2.212  -2.547  1.00  0.00    -0.454 OA
ATOM     13  O   UNL     1       9.493  -1.265  -2.695  1.00  0.00    -0.454 OA
ATOM     14  C   UNL     1       8.801  -2.433  -3.068  1.00  0.00     0.468 C 
ENDBRANCH   5   6
ENDBRANCH   1   5
TORSDOF 3
ENDMDL
MODEL 5
REMARK VINA RESULT:      -7.5      1.976      3.047
REMARK SMILES CC(=O)CCc1ccc2c(c1)OCO2
REMARK SMILES IDX 4 1 2 2 1 3 3 4 5 5 6 6 7 7 11 8 8 9 10 10 9 11 12 12 14 13
REMARK SMILES IDX 13 14
REMARK H PARENT
REMARK Flexibility Score: inf
ROOT
ATOM      1  C   UNL     1       5.750   1.301  -0.395  1.00  0.00     0.080 C 
ENDROOT
BRANCH   1   2
ATOM      2  C   UNL     1       5.145   1.321   0.966  1.00  0.00     0.130 C 
ATOM      3  C   UNL     1       5.331   0.195   1.920  1.00  0.00     0.087 C 
ATOM      4  O   UNL     1       4.473   2.269   1.340  1.00  0.00    -0.300 OA
ENDBRANCH   1   2
BRANCH   1   5
ATOM      5  C   UNL     1       7.246   1.069  -0.329  1.00  0.00     0.043 C 
BRANCH   5   6
ATOM      6  C   UNL     1       7.623  -0.232  -0.911  1.00  0.00    -0.044 A 
ATOM      7  C   UNL     1       7.697  -0.421  -2.296  1.00  0.00     0.008 A 
ATOM      8  C   UNL     1       7.915  -1.291  -0.083  1.00  0.00     0.054 A 
ATOM      9  C   UNL     1       8.057  -1.663  -2.786  1.00  0.00     0.051 A 
ATOM     10  C   UNL     1       8.279  -2.545  -0.583  1.00  0.00     0.166 A 
ATOM     11  C   UNL     1       8.351  -2.733  -1.945  1.00  0.00     0.165 A 
ATOM     12  O   UNL     1       8.611  -3.738   0.024  1.00  0.00    -0.454 OA
ATOM     13  O   UNL     1       8.730  -4.050  -2.149  1.00  0.00    -0.454 OA
ATOM     14  C   UNL     1       8.993  -4.698  -0.928  1.00  0.00     0.468 C 
ENDBRANCH   5   6
ENDBRANCH   1   5
TORSDOF 3
ENDMDL
