@<TRIPOS>MOLECULE
/home/cewinharhar/GITHUB/reincatalyze/data/processed/docking_pred/2023-May-22-1902_sub9_nm5_bs15_s42_ex16_mel10_mts1000_k50_ec02_g099_lra9e-4_lrc1e-3/ca2511eb0ea692a115cf18c67ef7ccdfaa736476_ligand_9.pdbqt
 14 15 0 0 0
SMALL
GASTEIGER

@<TRIPOS>ATOM
      1  C          5.4740    2.8860    0.2950 C.3     1  UNL1        0.0800
      2  C          6.2840    3.8930    1.0360 C.2     1  UNL1        0.1300
      3  C          7.2600    4.7740    0.3420 C.3     1  UNL1        0.0870
      4  O          6.1680    4.0230    2.2440 O.2     1  UNL1       -0.3000
      5  C          5.3380    1.5990    1.0840 C.3     1  UNL1        0.0430
      6  C          6.1250    0.5060    0.4860 C.2     1  UNL1       -0.0440
      7  C          6.4760   -0.6320    1.2220 C.2     1  UNL1        0.0080
      8  C          6.5260    0.5930   -0.8270 C.2     1  UNL1        0.0540
      9  C          7.2150   -1.6270    0.6080 C.2     1  UNL1        0.0510
     10  C          7.2720   -0.4160   -1.4440 C.2     1  UNL1        0.1660
     11  C          7.6200   -1.5350   -0.7200 C.2     1  UNL1        0.1650
     12  O          7.7850   -0.5620   -2.7160 O.2     1  UNL1       -0.4540
     13  O          8.3450   -2.3530   -1.5720 O.2     1  UNL1       -0.4540
     14  C          8.3960   -1.8170   -2.8720 C.3     1  UNL1        0.4680
@<TRIPOS>BOND
     1    14    12    1
     2    14    13    1
     3    12    10    1
     4    13    11    1
     5    10     8    1
     6    10    11    2
     7     8     6    2
     8    11     9    1
     9     1     2    1
    10     1     5    1
    11     3     2    1
    12     6     5    1
    13     6     7    1
    14     9     7    2
    15     2     4    2
