@<TRIPOS>MOLECULE
/home/cewinharhar/GITHUB/reincatalyze/data/processed/docking_pred/2023-May-22-1902_sub9_nm5_bs15_s42_ex16_mel10_mts1000_k50_ec02_g099_lra9e-4_lrc1e-3/ca2511eb0ea692a115cf18c67ef7ccdfaa736476_ligand_9.pdbqt
 14 15 0 0 0
SMALL
GASTEIGER

@<TRIPOS>ATOM
      1  C          5.3950    2.9950    0.0830 C.3     1  UNL1        0.0800
      2  C          6.3290    3.7540    0.9610 C.2     1  UNL1        0.1300
      3  C          7.2630    4.7730    0.4110 C.3     1  UNL1        0.0870
      4  O          6.3550    3.5600    2.1650 O.2     1  UNL1       -0.3000
      5  C          5.0390    1.6520    0.6900 C.3     1  UNL1        0.0430
      6  C          5.9120    0.5770    0.1850 C.2     1  UNL1       -0.0440
      7  C          6.3270    0.5360   -1.1510 C.2     1  UNL1        0.0080
      8  C          6.3370   -0.4150    1.0390 C.2     1  UNL1        0.0540
      9  C          7.1460   -0.4980   -1.5680 C.2     1  UNL1        0.0510
     10  C          7.1660   -1.4570    0.6130 C.2     1  UNL1        0.1660
     11  C          7.5730   -1.4990   -0.7010 C.2     1  UNL1        0.1650
     12  O          7.7150   -2.5450    1.2580 O.2     1  UNL1       -0.4540
     13  O          8.3740   -2.6220   -0.8370 O.2     1  UNL1       -0.4540
     14  C          8.5640   -3.2630    0.4010 C.3     1  UNL1        0.4680
@<TRIPOS>BOND
     1     9     7    1
     2     9    11    2
     3     7     6    2
     4    13    11    1
     5    13    14    1
     6    11    10    1
     7     1     5    1
     8     1     2    1
     9     6     5    1
    10     6     8    1
    11    14    12    1
    12     3     2    1
    13    10     8    2
    14    10    12    1
    15     2     4    2
