@<TRIPOS>MOLECULE
/home/cewinharhar/GITHUB/reincatalyze/data/processed/docking_pred/2023-May-22-1902_sub9_nm5_bs15_s42_ex16_mel10_mts1000_k50_ec02_g099_lra9e-4_lrc1e-3/ca2511eb0ea692a115cf18c67ef7ccdfaa736476_ligand_9.pdbqt
 14 15 0 0 0
SMALL
GASTEIGER

@<TRIPOS>ATOM
      1  C          5.8130    1.3590   -0.3780 C.3     1  UNL1        0.0800
      2  C          5.2620    1.4150    1.0050 C.2     1  UNL1        0.1300
      3  C          5.2490    0.2200    1.8890 C.3     1  UNL1        0.0870
      4  O          4.8010    2.4520    1.4540 O.2     1  UNL1       -0.3000
      5  C          7.3100    1.1230   -0.3650 C.3     1  UNL1        0.0430
      6  C          7.6610   -0.1920   -0.9300 C.2     1  UNL1       -0.0440
      7  C          7.7250   -0.4020   -2.3130 C.2     1  UNL1        0.0080
      8  C          7.9370   -1.2450   -0.0890 C.2     1  UNL1        0.0540
      9  C          8.0610   -1.6570   -2.7860 C.2     1  UNL1        0.0510
     10  C          8.2760   -2.5120   -0.5720 C.2     1  UNL1        0.1660
     11  C          8.3380   -2.7200   -1.9320 C.2     1  UNL1        0.1650
     12  O          8.5890   -3.7020    0.0500 O.2     1  UNL1       -0.4540
     13  O          8.6930   -4.0470   -2.1190 O.2     1  UNL1       -0.4540
     14  C          8.9500   -4.6820   -0.8900 C.3     1  UNL1        0.4680
@<TRIPOS>BOND
     1     9     7    1
     2     9    11    2
     3     7     6    2
     4    13    11    1
     5    13    14    1
     6    11    10    1
     7     6     5    1
     8     6     8    1
     9    14    12    1
    10    10     8    2
    11    10    12    1
    12     1     5    1
    13     1     2    1
    14     2     4    2
    15     2     3    1
