MODEL 1
REMARK VINA RESULT:      -7.8      0.000      0.000
REMARK SMILES CC(=O)CCc1ccc2c(c1)OCO2
REMARK SMILES IDX 4 1 2 2 1 3 3 4 5 5 6 6 7 7 11 8 8 9 10 10 9 11 12 12 14 13
REMARK SMILES IDX 13 14
REMARK H PARENT
REMARK Flexibility Score: inf
ROOT
ATOM      1  C   UNL     1       5.395   2.995   0.083  1.00  0.00     0.080 C 
ENDROOT
BRANCH   1   2
ATOM      2  C   UNL     1       6.329   3.754   0.961  1.00  0.00     0.130 C 
ATOM      3  C   UNL     1       7.263   4.773   0.411  1.00  0.00     0.087 C 
ATOM      4  O   UNL     1       6.355   3.560   2.165  1.00  0.00    -0.300 OA
ENDBRANCH   1   2
BRANCH   1   5
ATOM      5  C   UNL     1       5.039   1.652   0.690  1.00  0.00     0.043 C 
BRANCH   5   6
ATOM      6  C   UNL     1       5.912   0.577   0.185  1.00  0.00    -0.044 A 
ATOM      7  C   UNL     1       6.327   0.536  -1.151  1.00  0.00     0.008 A 
ATOM      8  C   UNL     1       6.337  -0.415   1.039  1.00  0.00     0.054 A 
ATOM      9  C   UNL     1       7.146  -0.498  -1.568  1.00  0.00     0.051 A 
ATOM     10  C   UNL     1       7.166  -1.457   0.613  1.00  0.00     0.166 A 
ATOM     11  C   UNL     1       7.573  -1.499  -0.701  1.00  0.00     0.165 A 
ATOM     12  O   UNL     1       7.715  -2.545   1.258  1.00  0.00    -0.454 OA
ATOM     13  O   UNL     1       8.374  -2.622  -0.837  1.00  0.00    -0.454 OA
ATOM     14  C   UNL     1       8.564  -3.263   0.401  1.00  0.00     0.468 C 
ENDBRANCH   5   6
ENDBRANCH   1   5
TORSDOF 3
ENDMDL
MODEL 2
REMARK VINA RESULT:      -7.7      1.028      2.015
REMARK SMILES CC(=O)CCc1ccc2c(c1)OCO2
REMARK SMILES IDX 4 1 2 2 1 3 3 4 5 5 6 6 7 7 11 8 8 9 10 10 9 11 12 12 14 13
REMARK SMILES IDX 13 14
REMARK H PARENT
REMARK Flexibility Score: inf
ROOT
ATOM      1  C   UNL     1       5.474   2.886   0.295  1.00  0.00     0.080 C 
ENDROOT
BRANCH   1   2
ATOM      2  C   UNL     1       6.284   3.893   1.036  1.00  0.00     0.130 C 
ATOM      3  C   UNL     1       7.260   4.774   0.342  1.00  0.00     0.087 C 
ATOM      4  O   UNL     1       6.168   4.023   2.244  1.00  0.00    -0.300 OA
ENDBRANCH   1   2
BRANCH   1   5
ATOM      5  C   UNL     1       5.338   1.599   1.084  1.00  0.00     0.043 C 
BRANCH   5   6
ATOM      6  C   UNL     1       6.125   0.506   0.486  1.00  0.00    -0.044 A 
ATOM      7  C   UNL     1       6.476  -0.632   1.222  1.00  0.00     0.008 A 
ATOM      8  C   UNL     1       6.526   0.593  -0.827  1.00  0.00     0.054 A 
ATOM      9  C   UNL     1       7.215  -1.627   0.608  1.00  0.00     0.051 A 
ATOM     10  C   UNL     1       7.272  -0.416  -1.444  1.00  0.00     0.166 A 
ATOM     11  C   UNL     1       7.620  -1.535  -0.720  1.00  0.00     0.165 A 
ATOM     12  O   UNL     1       7.785  -0.562  -2.716  1.00  0.00    -0.454 OA
ATOM     13  O   UNL     1       8.345  -2.353  -1.572  1.00  0.00    -0.454 OA
ATOM     14  C   UNL     1       8.396  -1.817  -2.872  1.00  0.00     0.468 C 
ENDBRANCH   5   6
ENDBRANCH   1   5
TORSDOF 3
ENDMDL
MODEL 3
REMARK VINA RESULT:      -7.6      2.403      3.035
REMARK SMILES CC(=O)CCc1ccc2c(c1)OCO2
REMARK SMILES IDX 4 1 2 2 1 3 3 4 5 5 6 6 7 7 11 8 8 9 10 10 9 11 12 12 14 13
REMARK SMILES IDX 13 14
REMARK H PARENT
REMARK Flexibility Score: inf
ROOT
ATOM      1  C   UNL     1       5.511   1.937   1.261  1.00  0.00     0.080 C 
ENDROOT
BRANCH   1   2
ATOM      2  C   UNL     1       5.075   0.720   2.001  1.00  0.00     0.130 C 
ATOM      3  C   UNL     1       5.970  -0.458   2.163  1.00  0.00     0.087 C 
ATOM      4  O   UNL     1       3.963   0.653   2.498  1.00  0.00    -0.300 OA
ENDBRANCH   1   2
BRANCH   1   5
ATOM      5  C   UNL     1       5.385   1.745  -0.237  1.00  0.00     0.043 C 
BRANCH   5   6
ATOM      6  C   UNL     1       6.554   1.045  -0.798  1.00  0.00    -0.044 A 
ATOM      7  C   UNL     1       7.859   1.493  -0.564  1.00  0.00     0.008 A 
ATOM      8  C   UNL     1       6.370  -0.079  -1.571  1.00  0.00     0.054 A 
ATOM      9  C   UNL     1       8.918   0.795  -1.116  1.00  0.00     0.051 A 
ATOM     10  C   UNL     1       7.444  -0.782  -2.127  1.00  0.00     0.166 A 
ATOM     11  C   UNL     1       8.728  -0.341  -1.897  1.00  0.00     0.165 A 
ATOM     12  O   UNL     1       7.521  -1.908  -2.918  1.00  0.00    -0.454 OA
ATOM     13  O   UNL     1       9.576  -1.215  -2.559  1.00  0.00    -0.454 OA
ATOM     14  C   UNL     1       8.858  -2.275  -3.143  1.00  0.00     0.468 C 
ENDBRANCH   5   6
ENDBRANCH   1   5
TORSDOF 3
ENDMDL
MODEL 4
REMARK VINA RESULT:      -7.6      1.669      1.994
REMARK SMILES CC(=O)CCc1ccc2c(c1)OCO2
REMARK SMILES IDX 4 1 2 2 1 3 3 4 5 5 6 6 7 7 11 8 8 9 10 10 9 11 12 12 14 13
REMARK SMILES IDX 13 14
REMARK H PARENT
REMARK Flexibility Score: inf
ROOT
ATOM      1  C   UNL     1       5.456   2.850   0.062  1.00  0.00     0.080 C 
ENDROOT
BRANCH   1   2
ATOM      2  C   UNL     1       6.246   3.755   0.942  1.00  0.00     0.130 C 
ATOM      3  C   UNL     1       7.175   4.773   0.382  1.00  0.00     0.087 C 
ATOM      4  O   UNL     1       6.154   3.686   2.157  1.00  0.00    -0.300 OA
ENDBRANCH   1   2
BRANCH   1   5
ATOM      5  C   UNL     1       5.654   1.397   0.446  1.00  0.00     0.043 C 
BRANCH   5   6
ATOM      6  C   UNL     1       6.736   0.768  -0.332  1.00  0.00    -0.044 A 
ATOM      7  C   UNL     1       7.999   1.361  -0.443  1.00  0.00     0.008 A 
ATOM      8  C   UNL     1       6.510  -0.432  -0.967  1.00  0.00     0.054 A 
ATOM      9  C   UNL     1       8.976   0.724  -1.187  1.00  0.00     0.051 A 
ATOM     10  C   UNL     1       7.501  -1.072  -1.717  1.00  0.00     0.166 A 
ATOM     11  C   UNL     1       8.744  -0.489  -1.828  1.00  0.00     0.165 A 
ATOM     12  O   UNL     1       7.525  -2.251  -2.432  1.00  0.00    -0.454 OA
ATOM     13  O   UNL     1       9.513  -1.331  -2.616  1.00  0.00    -0.454 OA
ATOM     14  C   UNL     1       8.807  -2.504  -2.946  1.00  0.00     0.468 C 
ENDBRANCH   5   6
ENDBRANCH   1   5
TORSDOF 3
ENDMDL
MODEL 5
REMARK VINA RESULT:      -7.5      1.740      2.437
REMARK SMILES CC(=O)CCc1ccc2c(c1)OCO2
REMARK SMILES IDX 4 1 2 2 1 3 3 4 5 5 6 6 7 7 11 8 8 9 10 10 9 11 12 12 14 13
REMARK SMILES IDX 13 14
REMARK H PARENT
REMARK Flexibility Score: inf
ROOT
ATOM      1  C   UNL     1       5.813   1.359  -0.378  1.00  0.00     0.080 C 
ENDROOT
BRANCH   1   2
ATOM      2  C   UNL     1       5.262   1.415   1.005  1.00  0.00     0.130 C 
ATOM      3  C   UNL     1       5.249   0.220   1.889  1.00  0.00     0.087 C 
ATOM      4  O   UNL     1       4.801   2.452   1.454  1.00  0.00    -0.300 OA
ENDBRANCH   1   2
BRANCH   1   5
ATOM      5  C   UNL     1       7.310   1.123  -0.365  1.00  0.00     0.043 C 
BRANCH   5   6
ATOM      6  C   UNL     1       7.661  -0.192  -0.930  1.00  0.00    -0.044 A 
ATOM      7  C   UNL     1       7.725  -0.402  -2.313  1.00  0.00     0.008 A 
ATOM      8  C   UNL     1       7.937  -1.245  -0.089  1.00  0.00     0.054 A 
ATOM      9  C   UNL     1       8.061  -1.657  -2.786  1.00  0.00     0.051 A 
ATOM     10  C   UNL     1       8.276  -2.512  -0.572  1.00  0.00     0.166 A 
ATOM     11  C   UNL     1       8.338  -2.720  -1.932  1.00  0.00     0.165 A 
ATOM     12  O   UNL     1       8.589  -3.702   0.050  1.00  0.00    -0.454 OA
ATOM     13  O   UNL     1       8.693  -4.047  -2.119  1.00  0.00    -0.454 OA
ATOM     14  C   UNL     1       8.950  -4.682  -0.890  1.00  0.00     0.468 C 
ENDBRANCH   5   6
ENDBRANCH   1   5
TORSDOF 3
ENDMDL
