@<TRIPOS>MOLECULE
/home/cewinharhar/GITHUB/reincatalyze/data/processed/docking_pred/2023-May-22-1902_sub9_nm5_bs15_s42_ex16_mel10_mts1000_k50_ec02_g099_lra9e-4_lrc1e-3/cc4a81c85f0f72a0e9860fd8246284f5ccc1e781_ligand_9.pdbqt
 14 15 0 0 0
SMALL
GASTEIGER

@<TRIPOS>ATOM
      1  C          7.7940   -5.7510   11.8070 C.3     1  UNL1        0.0800
      2  C          8.1380   -4.3600   12.2140 C.2     1  UNL1        0.1300
      3  C          7.0970   -3.3050   12.3480 C.3     1  UNL1        0.0870
      4  O          9.2930   -4.0430   12.4490 O.2     1  UNL1       -0.3000
      5  C          8.5080   -6.1430   10.5290 C.3     1  UNL1        0.0430
      6  C          9.6420   -7.0470   10.7920 C.2     1  UNL1       -0.0440
      7  C          9.4920   -8.2080   11.5590 C.2     1  UNL1        0.0080
      8  C         10.8830   -6.7520   10.2750 C.2     1  UNL1        0.0540
      9  C         10.5920   -9.0180   11.7720 C.2     1  UNL1        0.0510
     10  C         11.9920   -7.5750   10.4930 C.2     1  UNL1        0.1660
     11  C         11.8460   -8.7170   11.2480 C.2     1  UNL1        0.1650
     12  O         13.3100   -7.5010   10.0950 O.2     1  UNL1       -0.4540
     13  O         13.0890   -9.3280   11.2970 O.2     1  UNL1       -0.4540
     14  C         14.0250   -8.6380   10.5040 C.3     1  UNL1        0.4680
@<TRIPOS>BOND
     1    12    10    1
     2    12    14    1
     3     8    10    1
     4     8     6    2
     5    10    11    2
     6    14    13    1
     7     5     6    1
     8     5     1    1
     9     6     7    1
    10    11    13    1
    11    11     9    1
    12     7     9    2
    13     1     2    1
    14     2     3    1
    15     2     4    2
