@<TRIPOS>MOLECULE
/home/cewinharhar/GITHUB/reincatalyze/data/processed/docking_pred/2023-May-22-1902_sub9_nm5_bs15_s42_ex16_mel10_mts1000_k50_ec02_g099_lra9e-4_lrc1e-3/cc4a81c85f0f72a0e9860fd8246284f5ccc1e781_ligand_9.pdbqt
 14 15 0 0 0
SMALL
GASTEIGER

@<TRIPOS>ATOM
      1  C          8.7550   -5.2600   11.6500 C.3     1  UNL1        0.0800
      2  C          7.7960   -4.1950   11.2450 C.2     1  UNL1        0.1300
      3  C          7.0440   -3.3980   12.2500 C.3     1  UNL1        0.0870
      4  O          7.5980   -3.9460   10.0670 O.2     1  UNL1       -0.3000
      5  C          8.9160   -6.3000   10.5600 C.3     1  UNL1        0.0430
      6  C         10.2290   -6.9670   10.6290 C.2     1  UNL1       -0.0440
      7  C         10.3640   -8.3430   10.4160 C.2     1  UNL1        0.0080
      8  C         11.3550   -6.2270   10.9080 C.2     1  UNL1        0.0540
      9  C         11.6220   -8.9140   10.4930 C.2     1  UNL1        0.0510
     10  C         12.6250   -6.8080   10.9850 C.2     1  UNL1        0.1660
     11  C         12.7590   -8.1630   10.7760 C.2     1  UNL1        0.1650
     12  O         13.8780   -6.2960   11.2440 O.2     1  UNL1       -0.4540
     13  O         14.1060   -8.4570   10.9110 O.2     1  UNL1       -0.4540
     14  C         14.8640   -7.2890   11.1180 C.3     1  UNL1        0.4680
@<TRIPOS>BOND
     1     4     2    2
     2     7     9    1
     3     7     6    2
     4     9    11    2
     5     5     6    1
     6     5     1    1
     7     6     8    1
     8    11    13    1
     9    11    10    1
    10     8    10    2
    11    13    14    1
    12    10    12    1
    13    14    12    1
    14     2     1    1
    15     2     3    1
