@<TRIPOS>MOLECULE
/home/cewinharhar/GITHUB/reincatalyze/data/processed/docking_pred/2023-May-22-1902_sub9_nm5_bs15_s42_ex16_mel10_mts1000_k50_ec02_g099_lra9e-4_lrc1e-3/cf36f354a35629e8f67fe5763b2daf9f978d0e2b_ligand_9.pdbqt
 14 15 0 0 0
SMALL
GASTEIGER

@<TRIPOS>ATOM
      1  C          5.5530    1.9220    1.2800 C.3     1  UNL1        0.0800
      2  C          5.1120    0.7040    2.0140 C.2     1  UNL1        0.1300
      3  C          6.0110   -0.4670    2.1960 C.3     1  UNL1        0.0870
      4  O          3.9910    0.6310    2.4910 O.2     1  UNL1       -0.3000
      5  C          5.4200    1.7400   -0.2190 C.3     1  UNL1        0.0430
      6  C          6.5820    1.0340   -0.7880 C.2     1  UNL1       -0.0440
      7  C          7.8920    1.4650   -0.5480 C.2     1  UNL1        0.0080
      8  C          6.3860   -0.0780   -1.5750 C.2     1  UNL1        0.0540
      9  C          8.9430    0.7620   -1.1080 C.2     1  UNL1        0.0510
     10  C          7.4520   -0.7850   -2.1390 C.2     1  UNL1        0.1660
     11  C          8.7410   -0.3610   -1.9040 C.2     1  UNL1        0.1650
     12  O          7.5170   -1.9020   -2.9450 O.2     1  UNL1       -0.4540
     13  O          9.5800   -1.2370   -2.5760 O.2     1  UNL1       -0.4540
     14  C          8.8500   -2.2820   -3.1740 C.3     1  UNL1        0.4680
@<TRIPOS>BOND
     1    14    12    1
     2    14    13    1
     3    12    10    1
     4    13    11    1
     5    10    11    2
     6    10     8    1
     7    11     9    1
     8     8     6    2
     9     9     7    2
    10     6     7    1
    11     6     5    1
    12     5     1    1
    13     1     2    1
    14     2     3    1
    15     2     4    2
