@<TRIPOS>MOLECULE
/home/cewinharhar/GITHUB/reincatalyze/data/processed/docking_pred/2023-May-22-1902_sub9_nm5_bs15_s42_ex16_mel10_mts1000_k50_ec02_g099_lra9e-4_lrc1e-3/cf36f354a35629e8f67fe5763b2daf9f978d0e2b_ligand_9.pdbqt
 14 15 0 0 0
SMALL
GASTEIGER

@<TRIPOS>ATOM
      1  C          5.4350    2.8500    0.2540 C.3     1  UNL1        0.0800
      2  C          6.2460    3.8370    1.0200 C.2     1  UNL1        0.1300
      3  C          7.1810    4.7740    0.3410 C.3     1  UNL1        0.0870
      4  O          6.1660    3.9050    2.2360 O.2     1  UNL1       -0.3000
      5  C          5.7460    1.4300    0.6850 C.3     1  UNL1        0.0430
      6  C          6.7760    0.8140   -0.1700 C.2     1  UNL1       -0.0440
      7  C          8.0400    1.3930   -0.3290 C.2     1  UNL1        0.0080
      8  C          6.5000   -0.3620   -0.8310 C.2     1  UNL1        0.0540
      9  C          8.9670    0.7680   -1.1440 C.2     1  UNL1        0.0510
     10  C          7.4400   -0.9900   -1.6530 C.2     1  UNL1        0.1660
     11  C          8.6840   -0.4200   -1.8110 C.2     1  UNL1        0.1650
     12  O          7.4080   -2.1440   -2.4060 O.2     1  UNL1       -0.4540
     13  O          9.3980   -1.2450   -2.6660 O.2     1  UNL1       -0.4540
     14  C          8.6580   -2.3970   -2.9950 C.3     1  UNL1        0.4680
@<TRIPOS>BOND
     1    14    13    1
     2    14    12    1
     3    13    11    1
     4    12    10    1
     5    11    10    2
     6    11     9    1
     7    10     8    1
     8     9     7    2
     9     8     6    2
    10     7     6    1
    11     6     5    1
    12     1     5    1
    13     1     2    1
    14     3     2    1
    15     2     4    2
