@<TRIPOS>MOLECULE
/home/cewinharhar/GITHUB/reincatalyze/data/processed/docking_pred/2023-May-22-1902_sub9_nm5_bs15_s42_ex16_mel10_mts1000_k50_ec02_g099_lra9e-4_lrc1e-3/d0b377ce7413ba2d0a06352180e6db5bf746794c_ligand_9.pdbqt
 14 15 0 0 0
SMALL
GASTEIGER

@<TRIPOS>ATOM
      1  C          5.6300    2.7500    0.5610 C.3     1  UNL1        0.0800
      2  C          6.3540    3.8940    1.1820 C.2     1  UNL1        0.1300
      3  C          7.2500    4.7750    0.3860 C.3     1  UNL1        0.0870
      4  O          6.2310    4.1430    2.3700 O.2     1  UNL1       -0.3000
      5  C          6.0430    1.4330    1.1870 C.3     1  UNL1        0.0430
      6  C          6.5140    0.4710    0.1750 C.2     1  UNL1       -0.0440
      7  C          6.3120    0.6870   -1.1930 C.2     1  UNL1        0.0080
      8  C          7.1730   -0.6700    0.5730 C.2     1  UNL1        0.0540
      9  C          6.7770   -0.2500   -2.0970 C.2     1  UNL1        0.0510
     10  C          7.6420   -1.6150   -0.3450 C.2     1  UNL1        0.1660
     11  C          7.4420   -1.4030   -1.6910 C.2     1  UNL1        0.1650
     12  O          8.3150   -2.8100   -0.2030 O.2     1  UNL1       -0.4540
     13  O          8.0030   -2.4830   -2.3550 O.2     1  UNL1       -0.4540
     14  C          8.6460   -3.3540   -1.4550 C.3     1  UNL1        0.4680
@<TRIPOS>BOND
     1    13    11    1
     2    13    14    1
     3     9    11    2
     4     9     7    1
     5    11    10    1
     6    14    12    1
     7     7     6    2
     8    10    12    1
     9    10     8    2
    10     6     8    1
    11     6     5    1
    12     3     2    1
    13     1     2    1
    14     1     5    1
    15     2     4    2
