@<TRIPOS>MOLECULE
/home/cewinharhar/GITHUB/reincatalyze/data/processed/docking_pred/2023-May-22-1902_sub9_nm5_bs15_s42_ex16_mel10_mts1000_k50_ec02_g099_lra9e-4_lrc1e-3/d0b377ce7413ba2d0a06352180e6db5bf746794c_ligand_9.pdbqt
 14 15 0 0 0
SMALL
GASTEIGER

@<TRIPOS>ATOM
      1  C          5.4290    2.9290    0.1810 C.3     1  UNL1        0.0800
      2  C          6.2700    3.8530    0.9930 C.2     1  UNL1        0.1300
      3  C          7.2510    4.7750    0.3610 C.3     1  UNL1        0.0870
      4  O          6.1770    3.8780    2.2100 O.2     1  UNL1       -0.3000
      5  C          5.1900    1.6210    0.9070 C.3     1  UNL1        0.0430
      6  C          6.0210    0.5330    0.3620 C.2     1  UNL1       -0.0440
      7  C          6.3810   -0.5740    1.1390 C.2     1  UNL1        0.0080
      8  C          6.4560    0.5950   -0.9420 C.2     1  UNL1        0.0540
      9  C          7.1630   -1.5650    0.5720 C.2     1  UNL1        0.0510
     10  C          7.2450   -0.4100   -1.5100 C.2     1  UNL1        0.1660
     11  C          7.6020   -1.4990   -0.7460 C.2     1  UNL1        0.1650
     12  O          7.7960   -0.5760   -2.7630 O.2     1  UNL1       -0.4540
     13  O          8.3710   -2.3210   -1.5550 O.2     1  UNL1       -0.4540
     14  C          8.4440   -1.8180   -2.8680 C.3     1  UNL1        0.4680
@<TRIPOS>BOND
     1    14    12    1
     2    14    13    1
     3    12    10    1
     4    13    11    1
     5    10     8    1
     6    10    11    2
     7     8     6    2
     8    11     9    1
     9     1     5    1
    10     1     2    1
    11     3     2    1
    12     6     5    1
    13     6     7    1
    14     9     7    2
    15     2     4    2
