@<TRIPOS>MOLECULE
/home/cewinharhar/GITHUB/reincatalyze/data/processed/docking_pred/2023-May-22-1902_sub9_nm5_bs15_s42_ex16_mel10_mts1000_k50_ec02_g099_lra9e-4_lrc1e-3/d0b377ce7413ba2d0a06352180e6db5bf746794c_ligand_9.pdbqt
 14 15 0 0 0
SMALL
GASTEIGER

@<TRIPOS>ATOM
      1  C          5.4110    2.8630    0.1680 C.3     1  UNL1        0.0800
      2  C          6.2840    3.7420    0.9950 C.2     1  UNL1        0.1300
      3  C          7.1650    4.7700    0.3790 C.3     1  UNL1        0.0870
      4  O          6.3020    3.6420    2.2110 O.2     1  UNL1       -0.3000
      5  C          5.6220    1.4010    0.5080 C.3     1  UNL1        0.0430
      6  C          6.7080    0.8050   -0.2910 C.2     1  UNL1       -0.0440
      7  C          7.9670    1.4100   -0.3820 C.2     1  UNL1        0.0080
      8  C          6.4910   -0.3750   -0.9650 C.2     1  UNL1        0.0540
      9  C          8.9490    0.8050   -1.1460 C.2     1  UNL1        0.0510
     10  C          7.4870   -0.9830   -1.7350 C.2     1  UNL1        0.1660
     11  C          8.7250   -0.3880   -1.8270 C.2     1  UNL1        0.1650
     12  O          7.5180   -2.1370   -2.4890 O.2     1  UNL1       -0.4540
     13  O          9.5000   -1.1980   -2.6420 O.2     1  UNL1       -0.4540
     14  C          8.8020   -2.3640   -3.0100 C.3     1  UNL1        0.4680
@<TRIPOS>BOND
     1    14    13    1
     2    14    12    1
     3    13    11    1
     4    12    10    1
     5    11    10    2
     6    11     9    1
     7    10     8    1
     8     9     7    2
     9     8     6    2
    10     7     6    1
    11     6     5    1
    12     1     5    1
    13     1     2    1
    14     3     2    1
    15     2     4    2
