MODEL 1
REMARK VINA RESULT:      -7.8      0.000      0.000
REMARK SMILES CC(=O)CCc1ccc2c(c1)OCO2
REMARK SMILES IDX 4 1 2 2 1 3 3 4 5 5 6 6 7 7 11 8 8 9 10 10 9 11 12 12 14 13
REMARK SMILES IDX 13 14
REMARK H PARENT
REMARK Flexibility Score: inf
ROOT
ATOM      1  C   UNL     1       5.429   2.929   0.181  1.00  0.00     0.080 C 
ENDROOT
BRANCH   1   2
ATOM      2  C   UNL     1       6.270   3.853   0.993  1.00  0.00     0.130 C 
ATOM      3  C   UNL     1       7.251   4.775   0.361  1.00  0.00     0.087 C 
ATOM      4  O   UNL     1       6.177   3.878   2.210  1.00  0.00    -0.300 OA
ENDBRANCH   1   2
BRANCH   1   5
ATOM      5  C   UNL     1       5.190   1.621   0.907  1.00  0.00     0.043 C 
BRANCH   5   6
ATOM      6  C   UNL     1       6.021   0.533   0.362  1.00  0.00    -0.044 A 
ATOM      7  C   UNL     1       6.381  -0.574   1.139  1.00  0.00     0.008 A 
ATOM      8  C   UNL     1       6.456   0.595  -0.942  1.00  0.00     0.054 A 
ATOM      9  C   UNL     1       7.163  -1.565   0.572  1.00  0.00     0.051 A 
ATOM     10  C   UNL     1       7.245  -0.410  -1.510  1.00  0.00     0.166 A 
ATOM     11  C   UNL     1       7.602  -1.499  -0.746  1.00  0.00     0.165 A 
ATOM     12  O   UNL     1       7.796  -0.576  -2.763  1.00  0.00    -0.454 OA
ATOM     13  O   UNL     1       8.371  -2.321  -1.555  1.00  0.00    -0.454 OA
ATOM     14  C   UNL     1       8.444  -1.818  -2.868  1.00  0.00     0.468 C 
ENDBRANCH   5   6
ENDBRANCH   1   5
TORSDOF 3
ENDMDL
MODEL 2
REMARK VINA RESULT:      -7.6      1.062      2.065
REMARK SMILES CC(=O)CCc1ccc2c(c1)OCO2
REMARK SMILES IDX 4 1 2 2 1 3 3 4 5 5 6 6 7 7 11 8 8 9 10 10 9 11 12 12 14 13
REMARK SMILES IDX 13 14
REMARK H PARENT
REMARK Flexibility Score: inf
ROOT
ATOM      1  C   UNL     1       5.391   3.028   0.102  1.00  0.00     0.080 C 
ENDROOT
BRANCH   1   2
ATOM      2  C   UNL     1       6.249   3.910   0.942  1.00  0.00     0.130 C 
ATOM      3  C   UNL     1       7.301   4.775   0.343  1.00  0.00     0.087 C 
ATOM      4  O   UNL     1       6.112   3.948   2.154  1.00  0.00    -0.300 OA
ENDBRANCH   1   2
BRANCH   1   5
ATOM      5  C   UNL     1       5.087   1.722   0.809  1.00  0.00     0.043 C 
BRANCH   5   6
ATOM      6  C   UNL     1       5.948   0.627   0.327  1.00  0.00    -0.044 A 
ATOM      7  C   UNL     1       6.422   0.592  -0.990  1.00  0.00     0.008 A 
ATOM      8  C   UNL     1       6.303  -0.390   1.184  1.00  0.00     0.054 A 
ATOM      9  C   UNL     1       7.227  -0.461  -1.386  1.00  0.00     0.051 A 
ATOM     10  C   UNL     1       7.118  -1.451   0.779  1.00  0.00     0.166 A 
ATOM     11  C   UNL     1       7.583  -1.487  -0.517  1.00  0.00     0.165 A 
ATOM     12  O   UNL     1       7.604  -2.565   1.431  1.00  0.00    -0.454 OA
ATOM     13  O   UNL     1       8.354  -2.633  -0.634  1.00  0.00    -0.454 OA
ATOM     14  C   UNL     1       8.468  -3.298   0.601  1.00  0.00     0.468 C 
ENDBRANCH   5   6
ENDBRANCH   1   5
TORSDOF 3
ENDMDL
MODEL 3
REMARK VINA RESULT:      -7.5      1.900      2.642
REMARK SMILES CC(=O)CCc1ccc2c(c1)OCO2
REMARK SMILES IDX 4 1 2 2 1 3 3 4 5 5 6 6 7 7 11 8 8 9 10 10 9 11 12 12 14 13
REMARK SMILES IDX 13 14
REMARK H PARENT
REMARK Flexibility Score: inf
ROOT
ATOM      1  C   UNL     1       5.503   1.919   1.258  1.00  0.00     0.080 C 
ENDROOT
BRANCH   1   2
ATOM      2  C   UNL     1       5.054   0.704   1.994  1.00  0.00     0.130 C 
ATOM      3  C   UNL     1       5.934  -0.486   2.144  1.00  0.00     0.087 C 
ATOM      4  O   UNL     1       3.944   0.650   2.497  1.00  0.00    -0.300 OA
ENDBRANCH   1   2
BRANCH   1   5
ATOM      5  C   UNL     1       5.383   1.731  -0.241  1.00  0.00     0.043 C 
BRANCH   5   6
ATOM      6  C   UNL     1       6.553   1.030  -0.799  1.00  0.00    -0.044 A 
ATOM      7  C   UNL     1       7.858   1.464  -0.542  1.00  0.00     0.008 A 
ATOM      8  C   UNL     1       6.369  -0.080  -1.592  1.00  0.00     0.054 A 
ATOM      9  C   UNL     1       8.918   0.766  -1.092  1.00  0.00     0.051 A 
ATOM     10  C   UNL     1       7.444  -0.783  -2.145  1.00  0.00     0.166 A 
ATOM     11  C   UNL     1       8.729  -0.356  -1.893  1.00  0.00     0.165 A 
ATOM     12  O   UNL     1       7.522  -1.897  -2.953  1.00  0.00    -0.454 OA
ATOM     13  O   UNL     1       9.578  -1.227  -2.558  1.00  0.00    -0.454 OA
ATOM     14  C   UNL     1       8.858  -2.272  -3.168  1.00  0.00     0.468 C 
ENDBRANCH   5   6
ENDBRANCH   1   5
TORSDOF 3
ENDMDL
MODEL 4
REMARK VINA RESULT:      -7.5      1.127      1.553
REMARK SMILES CC(=O)CCc1ccc2c(c1)OCO2
REMARK SMILES IDX 4 1 2 2 1 3 3 4 5 5 6 6 7 7 11 8 8 9 10 10 9 11 12 12 14 13
REMARK SMILES IDX 13 14
REMARK H PARENT
REMARK Flexibility Score: inf
ROOT
ATOM      1  C   UNL     1       5.411   2.863   0.168  1.00  0.00     0.080 C 
ENDROOT
BRANCH   1   2
ATOM      2  C   UNL     1       6.284   3.742   0.995  1.00  0.00     0.130 C 
ATOM      3  C   UNL     1       7.165   4.770   0.379  1.00  0.00     0.087 C 
ATOM      4  O   UNL     1       6.302   3.642   2.211  1.00  0.00    -0.300 OA
ENDBRANCH   1   2
BRANCH   1   5
ATOM      5  C   UNL     1       5.622   1.401   0.508  1.00  0.00     0.043 C 
BRANCH   5   6
ATOM      6  C   UNL     1       6.708   0.805  -0.291  1.00  0.00    -0.044 A 
ATOM      7  C   UNL     1       7.967   1.410  -0.382  1.00  0.00     0.008 A 
ATOM      8  C   UNL     1       6.491  -0.375  -0.965  1.00  0.00     0.054 A 
ATOM      9  C   UNL     1       8.949   0.805  -1.146  1.00  0.00     0.051 A 
ATOM     10  C   UNL     1       7.487  -0.983  -1.735  1.00  0.00     0.166 A 
ATOM     11  C   UNL     1       8.725  -0.388  -1.827  1.00  0.00     0.165 A 
ATOM     12  O   UNL     1       7.518  -2.137  -2.489  1.00  0.00    -0.454 OA
ATOM     13  O   UNL     1       9.500  -1.198  -2.642  1.00  0.00    -0.454 OA
ATOM     14  C   UNL     1       8.802  -2.364  -3.010  1.00  0.00     0.468 C 
ENDBRANCH   5   6
ENDBRANCH   1   5
TORSDOF 3
ENDMDL
MODEL 5
REMARK VINA RESULT:      -7.3      0.900      1.749
REMARK SMILES CC(=O)CCc1ccc2c(c1)OCO2
REMARK SMILES IDX 4 1 2 2 1 3 3 4 5 5 6 6 7 7 11 8 8 9 10 10 9 11 12 12 14 13
REMARK SMILES IDX 13 14
REMARK H PARENT
REMARK Flexibility Score: inf
ROOT
ATOM      1  C   UNL     1       5.630   2.750   0.561  1.00  0.00     0.080 C 
ENDROOT
BRANCH   1   2
ATOM      2  C   UNL     1       6.354   3.894   1.182  1.00  0.00     0.130 C 
ATOM      3  C   UNL     1       7.250   4.775   0.386  1.00  0.00     0.087 C 
ATOM      4  O   UNL     1       6.231   4.143   2.370  1.00  0.00    -0.300 OA
ENDBRANCH   1   2
BRANCH   1   5
ATOM      5  C   UNL     1       6.043   1.433   1.187  1.00  0.00     0.043 C 
BRANCH   5   6
ATOM      6  C   UNL     1       6.514   0.471   0.175  1.00  0.00    -0.044 A 
ATOM      7  C   UNL     1       6.312   0.687  -1.193  1.00  0.00     0.008 A 
ATOM      8  C   UNL     1       7.173  -0.670   0.573  1.00  0.00     0.054 A 
ATOM      9  C   UNL     1       6.777  -0.250  -2.097  1.00  0.00     0.051 A 
ATOM     10  C   UNL     1       7.642  -1.615  -0.345  1.00  0.00     0.166 A 
ATOM     11  C   UNL     1       7.442  -1.403  -1.691  1.00  0.00     0.165 A 
ATOM     12  O   UNL     1       8.315  -2.810  -0.203  1.00  0.00    -0.454 OA
ATOM     13  O   UNL     1       8.003  -2.483  -2.355  1.00  0.00    -0.454 OA
ATOM     14  C   UNL     1       8.646  -3.354  -1.455  1.00  0.00     0.468 C 
ENDBRANCH   5   6
ENDBRANCH   1   5
TORSDOF 3
ENDMDL
