@<TRIPOS>MOLECULE
/home/cewinharhar/GITHUB/reincatalyze/data/processed/docking_pred/2023-May-22-1902_sub9_nm5_bs15_s42_ex16_mel10_mts1000_k50_ec02_g099_lra9e-4_lrc1e-3/d0b377ce7413ba2d0a06352180e6db5bf746794c_ligand_9.pdbqt
 14 15 0 0 0
SMALL
GASTEIGER

@<TRIPOS>ATOM
      1  C          5.3910    3.0280    0.1020 C.3     1  UNL1        0.0800
      2  C          6.2490    3.9100    0.9420 C.2     1  UNL1        0.1300
      3  C          7.3010    4.7750    0.3430 C.3     1  UNL1        0.0870
      4  O          6.1120    3.9480    2.1540 O.2     1  UNL1       -0.3000
      5  C          5.0870    1.7220    0.8090 C.3     1  UNL1        0.0430
      6  C          5.9480    0.6270    0.3270 C.2     1  UNL1       -0.0440
      7  C          6.4220    0.5920   -0.9900 C.2     1  UNL1        0.0080
      8  C          6.3030   -0.3900    1.1840 C.2     1  UNL1        0.0540
      9  C          7.2270   -0.4610   -1.3860 C.2     1  UNL1        0.0510
     10  C          7.1180   -1.4510    0.7790 C.2     1  UNL1        0.1660
     11  C          7.5830   -1.4870   -0.5170 C.2     1  UNL1        0.1650
     12  O          7.6040   -2.5650    1.4310 O.2     1  UNL1       -0.4540
     13  O          8.3540   -2.6330   -0.6340 O.2     1  UNL1       -0.4540
     14  C          8.4680   -3.2980    0.6010 C.3     1  UNL1        0.4680
@<TRIPOS>BOND
     1     9     7    1
     2     9    11    2
     3     7     6    2
     4    13    11    1
     5    13    14    1
     6    11    10    1
     7     1     5    1
     8     1     2    1
     9     6     5    1
    10     6     8    1
    11     3     2    1
    12    14    12    1
    13    10     8    2
    14    10    12    1
    15     2     4    2
