@<TRIPOS>MOLECULE
/home/cewinharhar/GITHUB/reincatalyze/data/processed/docking_pred/2023-May-22-1902_sub9_nm5_bs15_s42_ex16_mel10_mts1000_k50_ec02_g099_lra9e-4_lrc1e-3/d18fc177cce43baae8a65556dd45e7572e61ad5e_ligand_9.pdbqt
 14 15 0 0 0
SMALL
GASTEIGER

@<TRIPOS>ATOM
      1  C          5.7590    1.3630   -0.3570 C.3     1  UNL1        0.0800
      2  C          5.1370    1.3170    0.9950 C.2     1  UNL1        0.1300
      3  C          5.4060    0.2000    1.9410 C.3     1  UNL1        0.0870
      4  O          4.3820    2.2000    1.3690 O.2     1  UNL1       -0.3000
      5  C          7.2530    1.1180   -0.2850 C.3     1  UNL1        0.0430
      6  C          7.6230   -0.1780   -0.8820 C.2     1  UNL1       -0.0440
      7  C          7.7030   -0.3490   -2.2690 C.2     1  UNL1        0.0080
      8  C          7.9020   -1.2510   -0.0670 C.2     1  UNL1        0.0540
      9  C          8.0570   -1.5870   -2.7730 C.2     1  UNL1        0.0510
     10  C          8.2590   -2.5010   -0.5810 C.2     1  UNL1        0.1660
     11  C          8.3370   -2.6700   -1.9450 C.2     1  UNL1        0.1650
     12  O          8.5780   -3.7040    0.0110 O.2     1  UNL1       -0.4540
     13  O          8.7070   -3.9880   -2.1650 O.2     1  UNL1       -0.4540
     14  C          8.9590   -4.6540   -0.9510 C.3     1  UNL1        0.4680
@<TRIPOS>BOND
     1     9     7    1
     2     9    11    2
     3     7     6    2
     4    13    11    1
     5    13    14    1
     6    11    10    1
     7    14    12    1
     8     6     5    1
     9     6     8    1
    10    10     8    2
    11    10    12    1
    12     1     5    1
    13     1     2    1
    14     2     4    2
    15     2     3    1
