@<TRIPOS>MOLECULE
/home/cewinharhar/GITHUB/reincatalyze/data/processed/docking_pred/2023-May-22-1902_sub9_nm5_bs15_s42_ex16_mel10_mts1000_k50_ec02_g099_lra9e-4_lrc1e-3/d18fc177cce43baae8a65556dd45e7572e61ad5e_ligand_9.pdbqt
 14 15 0 0 0
SMALL
GASTEIGER

@<TRIPOS>ATOM
      1  C          5.4270    2.9450    0.1710 C.3     1  UNL1        0.0800
      2  C          6.2060    3.9300    0.9730 C.2     1  UNL1        0.1300
      3  C          7.2730    4.7650    0.3610 C.3     1  UNL1        0.0870
      4  O          5.9880    4.0800    2.1640 O.2     1  UNL1       -0.3000
      5  C          5.2590    1.6370    0.9180 C.3     1  UNL1        0.0430
      6  C          6.0510    0.5530    0.3100 C.2     1  UNL1       -0.0440
      7  C          6.3530    0.5450   -1.0570 C.2     1  UNL1        0.0080
      8  C          6.5120   -0.4780    1.0950 C.2     1  UNL1        0.0540
      9  C          7.1010   -0.4980   -1.5720 C.2     1  UNL1        0.0510
     10  C          7.2690   -1.5300    0.5690 C.2     1  UNL1        0.1660
     11  C          7.5650   -1.5400   -0.7760 C.2     1  UNL1        0.1650
     12  O          7.8340   -2.6550    1.1320 O.2     1  UNL1       -0.4540
     13  O          8.3150   -2.6820   -1.0130 O.2     1  UNL1       -0.4540
     14  C          8.5850   -3.3700    0.1850 C.3     1  UNL1        0.4680
@<TRIPOS>BOND
     1     9     7    1
     2     9    11    2
     3     7     6    2
     4    13    11    1
     5    13    14    1
     6    11    10    1
     7     1     5    1
     8     1     2    1
     9    14    12    1
    10     6     5    1
    11     6     8    1
    12     3     2    1
    13    10     8    2
    14    10    12    1
    15     2     4    2
