@<TRIPOS>MOLECULE
/home/cewinharhar/GITHUB/reincatalyze/data/processed/docking_pred/2023-May-22-1902_sub9_nm5_bs15_s42_ex16_mel10_mts1000_k50_ec02_g099_lra9e-4_lrc1e-3/d27e6afc186b75c76b7fe435f4b9560b42cd14a2_ligand_9.pdbqt
 14 15 0 0 0
SMALL
GASTEIGER

@<TRIPOS>ATOM
      1  C          5.4460    2.9100    0.1180 C.3     1  UNL1        0.0800
      2  C          6.2820    3.8220    0.9470 C.2     1  UNL1        0.1300
      3  C          7.2430    4.7750    0.3310 C.3     1  UNL1        0.0870
      4  O          6.2010    3.8120    2.1650 O.2     1  UNL1       -0.3000
      5  C          5.1890    1.5970    0.8310 C.3     1  UNL1        0.0430
      6  C          6.0230    0.5090    0.2900 C.2     1  UNL1       -0.0440
      7  C          6.3570   -0.6110    1.0600 C.2     1  UNL1        0.0080
      8  C          6.4880    0.5840   -1.0030 C.2     1  UNL1        0.0540
      9  C          7.1420   -1.6020    0.4980 C.2     1  UNL1        0.0510
     10  C          7.2800   -0.4200   -1.5670 C.2     1  UNL1        0.1660
     11  C          7.6100   -1.5220   -0.8100 C.2     1  UNL1        0.1650
     12  O          7.8580   -0.5760   -2.8090 O.2     1  UNL1       -0.4540
     13  O          8.3900   -2.3400   -1.6110 O.2     1  UNL1       -0.4540
     14  C          8.4970   -1.8220   -2.9160 C.3     1  UNL1        0.4680
@<TRIPOS>BOND
     1    14    12    1
     2    14    13    1
     3    12    10    1
     4    13    11    1
     5    10     8    1
     6    10    11    2
     7     8     6    2
     8    11     9    1
     9     1     5    1
    10     1     2    1
    11     6     5    1
    12     6     7    1
    13     3     2    1
    14     9     7    2
    15     2     4    2
