@<TRIPOS>MOLECULE
/home/cewinharhar/GITHUB/reincatalyze/data/processed/docking_pred/2023-May-22-1902_sub9_nm5_bs15_s42_ex16_mel10_mts1000_k50_ec02_g099_lra9e-4_lrc1e-3/d29de17412cd01c0ee6022e9d720ef028927a1a9_ligand_9.pdbqt
 14 15 0 0 0
SMALL
GASTEIGER

@<TRIPOS>ATOM
      1  C          5.4980    1.9320    1.2620 C.3     1  UNL1        0.0800
      2  C          5.0500    0.7120    1.9910 C.2     1  UNL1        0.1300
      3  C          5.9380   -0.4700    2.1530 C.3     1  UNL1        0.0870
      4  O          3.9330    0.6480    2.4790 O.2     1  UNL1       -0.3000
      5  C          5.3830    1.7500   -0.2380 C.3     1  UNL1        0.0430
      6  C          6.5480    1.0380   -0.7930 C.2     1  UNL1       -0.0440
      7  C          7.8570    1.4500   -0.5180 C.2     1  UNL1        0.0080
      8  C          6.3560   -0.0610   -1.5990 C.2     1  UNL1        0.0540
      9  C          8.9120    0.7420   -1.0660 C.2     1  UNL1        0.0510
     10  C          7.4250   -0.7730   -2.1500 C.2     1  UNL1        0.1660
     11  C          8.7140   -0.3680   -1.8820 C.2     1  UNL1        0.1650
     12  O          7.4950   -1.8800   -2.9690 O.2     1  UNL1       -0.4540
     13  O          9.5570   -1.2440   -2.5480 O.2     1  UNL1       -0.4540
     14  C          8.8280   -2.2720   -3.1760 C.3     1  UNL1        0.4680
@<TRIPOS>BOND
     1    14    12    1
     2    14    13    1
     3    12    10    1
     4    13    11    1
     5    10    11    2
     6    10     8    1
     7    11     9    1
     8     8     6    2
     9     9     7    2
    10     6     7    1
    11     6     5    1
    12     5     1    1
    13     1     2    1
    14     2     3    1
    15     2     4    2
