@<TRIPOS>MOLECULE
/home/cewinharhar/GITHUB/reincatalyze/data/processed/docking_pred/2023-May-22-1902_sub9_nm5_bs15_s42_ex16_mel10_mts1000_k50_ec02_g099_lra9e-4_lrc1e-3/d29de17412cd01c0ee6022e9d720ef028927a1a9_ligand_9.pdbqt
 14 15 0 0 0
SMALL
GASTEIGER

@<TRIPOS>ATOM
      1  C          5.4020    2.9390    0.1570 C.3     1  UNL1        0.0800
      2  C          6.2640    3.8400    0.9730 C.2     1  UNL1        0.1300
      3  C          7.2360    4.7720    0.3420 C.3     1  UNL1        0.0870
      4  O          6.1950    3.8380    2.1910 O.2     1  UNL1       -0.3000
      5  C          5.1950    1.6040    0.8440 C.3     1  UNL1        0.0430
      6  C          6.0240    0.5450    0.2430 C.2     1  UNL1       -0.0440
      7  C          6.3970    0.5830   -1.1060 C.2     1  UNL1        0.0080
      8  C          6.4480   -0.5110    1.0160 C.2     1  UNL1        0.0540
      9  C          7.1770   -0.4390   -1.6150 C.2     1  UNL1        0.0510
     10  C          7.2370   -1.5420    0.4970 C.2     1  UNL1        0.1660
     11  C          7.6040   -1.5060   -0.8300 C.2     1  UNL1        0.1650
     12  O          7.7770   -2.6830    1.0510 O.2     1  UNL1       -0.4540
     13  O          8.3710   -2.6360   -1.0650 O.2     1  UNL1       -0.4540
     14  C          8.5820   -3.3630    0.1220 C.3     1  UNL1        0.4680
@<TRIPOS>BOND
     1     9     7    1
     2     9    11    2
     3     7     6    2
     4    13    11    1
     5    13    14    1
     6    11    10    1
     7    14    12    1
     8     1     5    1
     9     1     2    1
    10     6     5    1
    11     6     8    1
    12     3     2    1
    13    10     8    2
    14    10    12    1
    15     2     4    2
