@<TRIPOS>MOLECULE
/home/cewinharhar/GITHUB/reincatalyze/data/processed/docking_pred/2023-May-22-1902_sub9_nm5_bs15_s42_ex16_mel10_mts1000_k50_ec02_g099_lra9e-4_lrc1e-3/d29de17412cd01c0ee6022e9d720ef028927a1a9_ligand_9.pdbqt
 14 15 0 0 0
SMALL
GASTEIGER

@<TRIPOS>ATOM
      1  C          5.4070    2.9470    0.0730 C.3     1  UNL1        0.0800
      2  C          6.2730    3.8120    0.9210 C.2     1  UNL1        0.1300
      3  C          7.2380    4.7740    0.3250 C.3     1  UNL1        0.0870
      4  O          6.2150    3.7560    2.1390 O.2     1  UNL1       -0.3000
      5  C          5.0840    1.6400    0.7700 C.3     1  UNL1        0.0430
      6  C          5.9130    0.5320    0.2640 C.2     1  UNL1       -0.0440
      7  C          6.1940   -0.5910    1.0510 C.2     1  UNL1        0.0080
      8  C          6.4270    0.5910   -1.0110 C.2     1  UNL1        0.0540
      9  C          6.9780   -1.6010    0.5230 C.2     1  UNL1        0.0510
     10  C          7.2180   -0.4330   -1.5410 C.2     1  UNL1        0.1660
     11  C          7.4960   -1.5380   -0.7670 C.2     1  UNL1        0.1650
     12  O          7.8370   -0.6070   -2.7600 O.2     1  UNL1       -0.4540
     13  O          8.2880   -2.3760   -1.5360 O.2     1  UNL1       -0.4540
     14  C          8.4530   -1.8670   -2.8380 C.3     1  UNL1        0.4680
@<TRIPOS>BOND
     1    14    12    1
     2    14    13    1
     3    12    10    1
     4    10     8    1
     5    10    11    2
     6    13    11    1
     7     8     6    2
     8    11     9    1
     9     1     5    1
    10     1     2    1
    11     6     5    1
    12     6     7    1
    13     3     2    1
    14     9     7    2
    15     2     4    2
