@<TRIPOS>MOLECULE
/home/cewinharhar/GITHUB/reincatalyze/data/processed/docking_pred/2023-May-22-1902_sub9_nm5_bs15_s42_ex16_mel10_mts1000_k50_ec02_g099_lra9e-4_lrc1e-3/d29de17412cd01c0ee6022e9d720ef028927a1a9_ligand_9.pdbqt
 14 15 0 0 0
SMALL
GASTEIGER

@<TRIPOS>ATOM
      1  C          5.4030    2.8190    0.0690 C.3     1  UNL1        0.0800
      2  C          6.2180    3.7320    0.9180 C.2     1  UNL1        0.1300
      3  C          7.1250    4.7500    0.3230 C.3     1  UNL1        0.0870
      4  O          6.1640    3.6700    2.1360 O.2     1  UNL1       -0.3000
      5  C          5.6230    1.3690    0.4510 C.3     1  UNL1        0.0430
      6  C          6.7160    0.7590   -0.3270 C.2     1  UNL1       -0.0440
      7  C          7.9780    1.3570   -0.4110 C.2     1  UNL1        0.0080
      8  C          6.5010   -0.4290   -0.9890 C.2     1  UNL1        0.0540
      9  C          8.9660    0.7370   -1.1560 C.2     1  UNL1        0.0510
     10  C          7.5030   -1.0510   -1.7400 C.2     1  UNL1        0.1660
     11  C          8.7450   -0.4630   -1.8240 C.2     1  UNL1        0.1650
     12  O          7.5380   -2.2150   -2.4780 O.2     1  UNL1       -0.4540
     13  O          9.5260   -1.2870   -2.6200 O.2     1  UNL1       -0.4540
     14  C          8.8270   -2.4540   -2.9810 C.3     1  UNL1        0.4680
@<TRIPOS>BOND
     1    14    13    1
     2    14    12    1
     3    13    11    1
     4    12    10    1
     5    11    10    2
     6    11     9    1
     7    10     8    1
     8     9     7    2
     9     8     6    2
    10     7     6    1
    11     6     5    1
    12     1     5    1
    13     1     2    1
    14     3     2    1
    15     2     4    2
