@<TRIPOS>MOLECULE
/home/cewinharhar/GITHUB/reincatalyze/data/processed/docking_pred/2023-May-22-1902_sub9_nm5_bs15_s42_ex16_mel10_mts1000_k50_ec02_g099_lra9e-4_lrc1e-3/d32515ef85c53a65d829162c3cbbbf13c46f52f9_ligand_9.pdbqt
 14 15 0 0 0
SMALL
GASTEIGER

@<TRIPOS>ATOM
      1  C          6.0820    0.7810    1.2470 C.3     1  UNL1        0.0800
      2  C          4.9710    1.7440    1.0070 C.2     1  UNL1        0.1300
      3  C          4.9380    2.6130   -0.2000 C.3     1  UNL1        0.0870
      4  O          4.0500    1.8480    1.8000 O.2     1  UNL1       -0.3000
      5  C          7.2250    1.0070    0.2770 C.3     1  UNL1        0.0430
      6  C          7.5750   -0.2260   -0.4520 C.2     1  UNL1       -0.0440
      7  C          7.5610   -0.2800   -1.8510 C.2     1  UNL1        0.0080
      8  C          7.9280   -1.3560    0.2490 C.2     1  UNL1        0.0540
      9  C          7.8990   -1.4640   -2.4800 C.2     1  UNL1        0.0510
     10  C          8.2700   -2.5510   -0.3920 C.2     1  UNL1        0.1660
     11  C          8.2550   -2.6050   -1.7680 C.2     1  UNL1        0.1650
     12  O          8.6490   -3.7920    0.0740 O.2     1  UNL1       -0.4540
     13  O          8.6300   -3.8910   -2.1220 O.2     1  UNL1       -0.4540
     14  C          8.9770   -4.6500   -0.9880 C.3     1  UNL1        0.4680
@<TRIPOS>BOND
     1     9     7    1
     2     9    11    2
     3    13    11    1
     4    13    14    1
     5     7     6    2
     6    11    10    1
     7    14    12    1
     8     6     8    1
     9     6     5    1
    10    10    12    1
    11    10     8    2
    12     3     2    1
    13     5     1    1
    14     2     1    1
    15     2     4    2
