@<TRIPOS>MOLECULE
/home/cewinharhar/GITHUB/reincatalyze/data/processed/docking_pred/2023-May-22-1902_sub9_nm5_bs15_s42_ex16_mel10_mts1000_k50_ec02_g099_lra9e-4_lrc1e-3/d32515ef85c53a65d829162c3cbbbf13c46f52f9_ligand_9.pdbqt
 14 15 0 0 0
SMALL
GASTEIGER

@<TRIPOS>ATOM
      1  C          5.5060    1.9220    1.2560 C.3     1  UNL1        0.0800
      2  C          5.0510    0.7110    1.9960 C.2     1  UNL1        0.1300
      3  C          5.9220   -0.4850    2.1460 C.3     1  UNL1        0.0870
      4  O          3.9420    0.6670    2.5030 O.2     1  UNL1       -0.3000
      5  C          5.3840    1.7290   -0.2420 C.3     1  UNL1        0.0430
      6  C          6.5540    1.0290   -0.8000 C.2     1  UNL1       -0.0440
      7  C          7.8600    1.4680   -0.5480 C.2     1  UNL1        0.0080
      8  C          6.3720   -0.0850   -1.5870 C.2     1  UNL1        0.0540
      9  C          8.9200    0.7700   -1.0980 C.2     1  UNL1        0.0510
     10  C          7.4470   -0.7870   -2.1400 C.2     1  UNL1        0.1660
     11  C          8.7310   -0.3560   -1.8940 C.2     1  UNL1        0.1650
     12  O          7.5260   -1.9050   -2.9440 O.2     1  UNL1       -0.4540
     13  O          9.5810   -1.2270   -2.5570 O.2     1  UNL1       -0.4540
     14  C          8.8630   -2.2770   -3.1600 C.3     1  UNL1        0.4680
@<TRIPOS>BOND
     1    14    12    1
     2    14    13    1
     3    12    10    1
     4    13    11    1
     5    10    11    2
     6    10     8    1
     7    11     9    1
     8     8     6    2
     9     9     7    2
    10     6     7    1
    11     6     5    1
    12     5     1    1
    13     1     2    1
    14     2     3    1
    15     2     4    2
