MODEL 1
REMARK VINA RESULT:      -7.9      0.000      0.000
REMARK SMILES CC(=O)CCc1ccc2c(c1)OCO2
REMARK SMILES IDX 4 1 2 2 1 3 3 4 5 5 6 6 7 7 11 8 8 9 10 10 9 11 12 12 14 13
REMARK SMILES IDX 13 14
REMARK H PARENT
REMARK Flexibility Score: inf
ROOT
ATOM      1  C   UNL     1       5.420   2.981   0.103  1.00  0.00     0.080 C 
ENDROOT
BRANCH   1   2
ATOM      2  C   UNL     1       6.245   3.897   0.940  1.00  0.00     0.130 C 
ATOM      3  C   UNL     1       7.287   4.774   0.342  1.00  0.00     0.087 C 
ATOM      4  O   UNL     1       6.088   3.952   2.149  1.00  0.00    -0.300 OA
ENDBRANCH   1   2
BRANCH   1   5
ATOM      5  C   UNL     1       5.098   1.698   0.844  1.00  0.00     0.043 C 
BRANCH   5   6
ATOM      6  C   UNL     1       5.938   0.578   0.385  1.00  0.00    -0.044 A 
ATOM      7  C   UNL     1       6.353  -0.433   1.260  1.00  0.00     0.008 A 
ATOM      8  C   UNL     1       6.328   0.512  -0.933  1.00  0.00     0.054 A 
ATOM      9  C   UNL     1       7.140  -1.461   0.773  1.00  0.00     0.051 A 
ATOM     10  C   UNL     1       7.124  -0.529  -1.421  1.00  0.00     0.166 A 
ATOM     11  C   UNL     1       7.533  -1.524  -0.560  1.00  0.00     0.165 A 
ATOM     12  O   UNL     1       7.637  -0.815  -2.668  1.00  0.00    -0.454 OA
ATOM     13  O   UNL     1       8.296  -2.409  -1.305  1.00  0.00    -0.454 OA
ATOM     14  C   UNL     1       8.312  -2.047  -2.665  1.00  0.00     0.468 C 
ENDBRANCH   5   6
ENDBRANCH   1   5
TORSDOF 3
ENDMDL
MODEL 2
REMARK VINA RESULT:      -7.7      1.908      2.673
REMARK SMILES CC(=O)CCc1ccc2c(c1)OCO2
REMARK SMILES IDX 4 1 2 2 1 3 3 4 5 5 6 6 7 7 11 8 8 9 10 10 9 11 12 12 14 13
REMARK SMILES IDX 13 14
REMARK H PARENT
REMARK Flexibility Score: inf
ROOT
ATOM      1  C   UNL     1       5.506   1.922   1.256  1.00  0.00     0.080 C 
ENDROOT
BRANCH   1   2
ATOM      2  C   UNL     1       5.051   0.711   1.996  1.00  0.00     0.130 C 
ATOM      3  C   UNL     1       5.922  -0.485   2.146  1.00  0.00     0.087 C 
ATOM      4  O   UNL     1       3.942   0.667   2.503  1.00  0.00    -0.300 OA
ENDBRANCH   1   2
BRANCH   1   5
ATOM      5  C   UNL     1       5.384   1.729  -0.242  1.00  0.00     0.043 C 
BRANCH   5   6
ATOM      6  C   UNL     1       6.554   1.029  -0.800  1.00  0.00    -0.044 A 
ATOM      7  C   UNL     1       7.860   1.468  -0.548  1.00  0.00     0.008 A 
ATOM      8  C   UNL     1       6.372  -0.085  -1.587  1.00  0.00     0.054 A 
ATOM      9  C   UNL     1       8.920   0.770  -1.098  1.00  0.00     0.051 A 
ATOM     10  C   UNL     1       7.447  -0.787  -2.140  1.00  0.00     0.166 A 
ATOM     11  C   UNL     1       8.731  -0.356  -1.894  1.00  0.00     0.165 A 
ATOM     12  O   UNL     1       7.526  -1.905  -2.944  1.00  0.00    -0.454 OA
ATOM     13  O   UNL     1       9.581  -1.227  -2.557  1.00  0.00    -0.454 OA
ATOM     14  C   UNL     1       8.863  -2.277  -3.160  1.00  0.00     0.468 C 
ENDBRANCH   5   6
ENDBRANCH   1   5
TORSDOF 3
ENDMDL
MODEL 3
REMARK VINA RESULT:      -7.5      1.945      3.042
REMARK SMILES CC(=O)CCc1ccc2c(c1)OCO2
REMARK SMILES IDX 4 1 2 2 1 3 3 4 5 5 6 6 7 7 11 8 8 9 10 10 9 11 12 12 14 13
REMARK SMILES IDX 13 14
REMARK H PARENT
REMARK Flexibility Score: inf
ROOT
ATOM      1  C   UNL     1       5.805   1.390  -0.311  1.00  0.00     0.080 C 
ENDROOT
BRANCH   1   2
ATOM      2  C   UNL     1       5.156   1.309   1.028  1.00  0.00     0.130 C 
ATOM      3  C   UNL     1       5.371   0.146   1.930  1.00  0.00     0.087 C 
ATOM      4  O   UNL     1       4.425   2.201   1.424  1.00  0.00    -0.300 OA
ENDBRANCH   1   2
BRANCH   1   5
ATOM      5  C   UNL     1       7.293   1.117  -0.220  1.00  0.00     0.043 C 
BRANCH   5   6
ATOM      6  C   UNL     1       7.650  -0.177  -0.830  1.00  0.00    -0.044 A 
ATOM      7  C   UNL     1       7.712  -0.339  -2.219  1.00  0.00     0.008 A 
ATOM      8  C   UNL     1       7.933  -1.256  -0.025  1.00  0.00     0.054 A 
ATOM      9  C   UNL     1       8.053  -1.576  -2.735  1.00  0.00     0.051 A 
ATOM     10  C   UNL     1       8.278  -2.504  -0.551  1.00  0.00     0.166 A 
ATOM     11  C   UNL     1       8.338  -2.666  -1.917  1.00  0.00     0.165 A 
ATOM     12  O   UNL     1       8.599  -3.713   0.030  1.00  0.00    -0.454 OA
ATOM     13  O   UNL     1       8.699  -3.984  -2.150  1.00  0.00    -0.454 OA
ATOM     14  C   UNL     1       8.963  -4.659  -0.943  1.00  0.00     0.468 C 
ENDBRANCH   5   6
ENDBRANCH   1   5
TORSDOF 3
ENDMDL
MODEL 4
REMARK VINA RESULT:      -7.4      1.802      2.818
REMARK SMILES CC(=O)CCc1ccc2c(c1)OCO2
REMARK SMILES IDX 4 1 2 2 1 3 3 4 5 5 6 6 7 7 11 8 8 9 10 10 9 11 12 12 14 13
REMARK SMILES IDX 13 14
REMARK H PARENT
REMARK Flexibility Score: inf
ROOT
ATOM      1  C   UNL     1       6.082   0.781   1.247  1.00  0.00     0.080 C 
ENDROOT
BRANCH   1   2
ATOM      2  C   UNL     1       4.971   1.744   1.007  1.00  0.00     0.130 C 
ATOM      3  C   UNL     1       4.938   2.613  -0.200  1.00  0.00     0.087 C 
ATOM      4  O   UNL     1       4.050   1.848   1.800  1.00  0.00    -0.300 OA
ENDBRANCH   1   2
BRANCH   1   5
ATOM      5  C   UNL     1       7.225   1.007   0.277  1.00  0.00     0.043 C 
BRANCH   5   6
ATOM      6  C   UNL     1       7.575  -0.226  -0.452  1.00  0.00    -0.044 A 
ATOM      7  C   UNL     1       7.561  -0.280  -1.851  1.00  0.00     0.008 A 
ATOM      8  C   UNL     1       7.928  -1.356   0.249  1.00  0.00     0.054 A 
ATOM      9  C   UNL     1       7.899  -1.464  -2.480  1.00  0.00     0.051 A 
ATOM     10  C   UNL     1       8.270  -2.551  -0.392  1.00  0.00     0.166 A 
ATOM     11  C   UNL     1       8.255  -2.605  -1.768  1.00  0.00     0.165 A 
ATOM     12  O   UNL     1       8.649  -3.792   0.074  1.00  0.00    -0.454 OA
ATOM     13  O   UNL     1       8.630  -3.891  -2.122  1.00  0.00    -0.454 OA
ATOM     14  C   UNL     1       8.977  -4.650  -0.988  1.00  0.00     0.468 C 
ENDBRANCH   5   6
ENDBRANCH   1   5
TORSDOF 3
ENDMDL
MODEL 5
REMARK VINA RESULT:      -7.4      1.335      1.664
REMARK SMILES CC(=O)CCc1ccc2c(c1)OCO2
REMARK SMILES IDX 4 1 2 2 1 3 3 4 5 5 6 6 7 7 11 8 8 9 10 10 9 11 12 12 14 13
REMARK SMILES IDX 13 14
REMARK H PARENT
REMARK Flexibility Score: inf
ROOT
ATOM      1  C   UNL     1       6.365   2.552   1.537  1.00  0.00     0.080 C 
ENDROOT
BRANCH   1   2
ATOM      2  C   UNL     1       6.466   4.038   1.538  1.00  0.00     0.130 C 
ATOM      3  C   UNL     1       7.151   4.775   0.442  1.00  0.00     0.087 C 
ATOM      4  O   UNL     1       5.986   4.699   2.445  1.00  0.00    -0.300 OA
ENDBRANCH   1   2
BRANCH   1   5
ATOM      5  C   UNL     1       5.839   2.036   0.213  1.00  0.00     0.043 C 
BRANCH   5   6
ATOM      6  C   UNL     1       6.828   1.187  -0.474  1.00  0.00    -0.044 A 
ATOM      7  C   UNL     1       8.192   1.501  -0.473  1.00  0.00     0.008 A 
ATOM      8  C   UNL     1       6.411   0.053  -1.135  1.00  0.00     0.054 A 
ATOM      9  C   UNL     1       9.073   0.665  -1.134  1.00  0.00     0.051 A 
ATOM     10  C   UNL     1       7.307  -0.788  -1.802  1.00  0.00     0.166 A 
ATOM     11  C   UNL     1       8.649  -0.479  -1.801  1.00  0.00     0.165 A 
ATOM     12  O   UNL     1       7.144  -1.954  -2.520  1.00  0.00    -0.454 OA
ATOM     13  O   UNL     1       9.289  -1.472  -2.526  1.00  0.00    -0.454 OA
ATOM     14  C   UNL     1       8.384  -2.475  -2.924  1.00  0.00     0.468 C 
ENDBRANCH   5   6
ENDBRANCH   1   5
TORSDOF 3
ENDMDL
