@<TRIPOS>MOLECULE
/home/cewinharhar/GITHUB/reincatalyze/data/processed/docking_pred/2023-May-22-1902_sub9_nm5_bs15_s42_ex16_mel10_mts1000_k50_ec02_g099_lra9e-4_lrc1e-3/d3a7bace4d7284fd134c29c8ba069397c7215f06_ligand_9.pdbqt
 14 15 0 0 0
SMALL
GASTEIGER

@<TRIPOS>ATOM
      1  C          5.3850    2.8730    0.1560 C.3     1  UNL1        0.0800
      2  C          6.2330    3.7790    0.9790 C.2     1  UNL1        0.1300
      3  C          7.1470    4.7740    0.3560 C.3     1  UNL1        0.0870
      4  O          6.2020    3.7300    2.1980 O.2     1  UNL1       -0.3000
      5  C          5.6140    1.4200    0.5220 C.3     1  UNL1        0.0430
      6  C          6.6930    0.8180   -0.2800 C.2     1  UNL1       -0.0440
      7  C          7.9600    1.4060   -0.3640 C.2     1  UNL1        0.0080
      8  C          6.4620   -0.3530   -0.9650 C.2     1  UNL1        0.0540
      9  C          8.9350    0.7950   -1.1320 C.2     1  UNL1        0.0510
     10  C          7.4500   -0.9680   -1.7400 C.2     1  UNL1        0.1660
     11  C          8.6970   -0.3880   -1.8240 C.2     1  UNL1        0.1650
     12  O          7.4670   -2.1150   -2.5040 O.2     1  UNL1       -0.4540
     13  O          9.4620   -1.2010   -2.6460 O.2     1  UNL1       -0.4540
     14  C          8.7490   -2.3550   -3.0250 C.3     1  UNL1        0.4680
@<TRIPOS>BOND
     1    14    13    1
     2    14    12    1
     3    13    11    1
     4    12    10    1
     5    11    10    2
     6    11     9    1
     7    10     8    1
     8     9     7    2
     9     8     6    2
    10     7     6    1
    11     6     5    1
    12     1     5    1
    13     1     2    1
    14     3     2    1
    15     2     4    2
