MODEL 1
REMARK VINA RESULT:      -8.0      0.000      0.000
REMARK SMILES CC(=O)CCc1ccc2c(c1)OCO2
REMARK SMILES IDX 4 1 2 2 1 3 3 4 5 5 6 6 7 7 11 8 8 9 10 10 9 11 12 12 14 13
REMARK SMILES IDX 13 14
REMARK H PARENT
REMARK Flexibility Score: inf
ROOT
ATOM      1  C   UNL     1       5.429   2.935   0.069  1.00  0.00     0.080 C 
ENDROOT
BRANCH   1   2
ATOM      2  C   UNL     1       6.295   3.789   0.929  1.00  0.00     0.130 C 
ATOM      3  C   UNL     1       7.247   4.773   0.347  1.00  0.00     0.087 C 
ATOM      4  O   UNL     1       6.249   3.704   2.145  1.00  0.00    -0.300 OA
ENDBRANCH   1   2
BRANCH   1   5
ATOM      5  C   UNL     1       5.106   1.619   0.747  1.00  0.00     0.043 C 
BRANCH   5   6
ATOM      6  C   UNL     1       5.960   0.525   0.251  1.00  0.00    -0.044 A 
ATOM      7  C   UNL     1       6.313  -0.557   1.067  1.00  0.00     0.008 A 
ATOM      8  C   UNL     1       6.425   0.555  -1.044  1.00  0.00     0.054 A 
ATOM      9  C   UNL     1       7.116  -1.555   0.547  1.00  0.00     0.051 A 
ATOM     10  C   UNL     1       7.236  -0.457  -1.565  1.00  0.00     0.166 A 
ATOM     11  C   UNL     1       7.585  -1.521  -0.763  1.00  0.00     0.165 A 
ATOM     12  O   UNL     1       7.817  -0.653  -2.800  1.00  0.00    -0.454 OA
ATOM     13  O   UNL     1       8.380  -2.357  -1.530  1.00  0.00    -0.454 OA
ATOM     14  C   UNL     1       8.479  -1.891  -2.855  1.00  0.00     0.468 C 
ENDBRANCH   5   6
ENDBRANCH   1   5
TORSDOF 3
ENDMDL
MODEL 2
REMARK VINA RESULT:      -7.8      0.978      1.962
REMARK SMILES CC(=O)CCc1ccc2c(c1)OCO2
REMARK SMILES IDX 4 1 2 2 1 3 3 4 5 5 6 6 7 7 11 8 8 9 10 10 9 11 12 12 14 13
REMARK SMILES IDX 13 14
REMARK H PARENT
REMARK Flexibility Score: inf
ROOT
ATOM      1  C   UNL     1       5.482   2.894   0.210  1.00  0.00     0.080 C 
ENDROOT
BRANCH   1   2
ATOM      2  C   UNL     1       6.290   3.872   0.991  1.00  0.00     0.130 C 
ATOM      3  C   UNL     1       7.272   4.775   0.334  1.00  0.00     0.087 C 
ATOM      4  O   UNL     1       6.168   3.959   2.203  1.00  0.00    -0.300 OA
ENDBRANCH   1   2
BRANCH   1   5
ATOM      5  C   UNL     1       5.334   1.582   0.956  1.00  0.00     0.043 C 
BRANCH   5   6
ATOM      6  C   UNL     1       6.112   0.503   0.322  1.00  0.00    -0.044 A 
ATOM      7  C   UNL     1       6.401   0.514  -1.047  1.00  0.00     0.008 A 
ATOM      8  C   UNL     1       6.572  -0.545   1.086  1.00  0.00     0.054 A 
ATOM      9  C   UNL     1       7.136  -0.526  -1.587  1.00  0.00     0.051 A 
ATOM     10  C   UNL     1       7.315  -1.594   0.536  1.00  0.00     0.166 A 
ATOM     11  C   UNL     1       7.599  -1.584  -0.811  1.00  0.00     0.165 A 
ATOM     12  O   UNL     1       7.876  -2.732   1.076  1.00  0.00    -0.454 OA
ATOM     13  O   UNL     1       8.337  -2.728  -1.073  1.00  0.00    -0.454 OA
ATOM     14  C   UNL     1       8.613  -3.437   0.111  1.00  0.00     0.468 C 
ENDBRANCH   5   6
ENDBRANCH   1   5
TORSDOF 3
ENDMDL
MODEL 3
REMARK VINA RESULT:      -7.6      1.877      2.621
REMARK SMILES CC(=O)CCc1ccc2c(c1)OCO2
REMARK SMILES IDX 4 1 2 2 1 3 3 4 5 5 6 6 7 7 11 8 8 9 10 10 9 11 12 12 14 13
REMARK SMILES IDX 13 14
REMARK H PARENT
REMARK Flexibility Score: inf
ROOT
ATOM      1  C   UNL     1       5.562   1.910   1.275  1.00  0.00     0.080 C 
ENDROOT
BRANCH   1   2
ATOM      2  C   UNL     1       5.130   0.693   2.017  1.00  0.00     0.130 C 
ATOM      3  C   UNL     1       6.033  -0.476   2.194  1.00  0.00     0.087 C 
ATOM      4  O   UNL     1       4.014   0.619   2.504  1.00  0.00    -0.300 OA
ENDBRANCH   1   2
BRANCH   1   5
ATOM      5  C   UNL     1       5.426   1.718  -0.223  1.00  0.00     0.043 C 
BRANCH   5   6
ATOM      6  C   UNL     1       6.590   1.016  -0.792  1.00  0.00    -0.044 A 
ATOM      7  C   UNL     1       7.899   1.445  -0.544  1.00  0.00     0.008 A 
ATOM      8  C   UNL     1       6.397  -0.092  -1.586  1.00  0.00     0.054 A 
ATOM      9  C   UNL     1       8.952   0.746  -1.104  1.00  0.00     0.051 A 
ATOM     10  C   UNL     1       7.466  -0.795  -2.150  1.00  0.00     0.166 A 
ATOM     11  C   UNL     1       8.754  -0.373  -1.907  1.00  0.00     0.165 A 
ATOM     12  O   UNL     1       7.535  -1.908  -2.962  1.00  0.00    -0.454 OA
ATOM     13  O   UNL     1       9.595  -1.244  -2.581  1.00  0.00    -0.454 OA
ATOM     14  C   UNL     1       8.868  -2.285  -3.188  1.00  0.00     0.468 C 
ENDBRANCH   5   6
ENDBRANCH   1   5
TORSDOF 3
ENDMDL
MODEL 4
REMARK VINA RESULT:      -7.6      1.129      1.530
REMARK SMILES CC(=O)CCc1ccc2c(c1)OCO2
REMARK SMILES IDX 4 1 2 2 1 3 3 4 5 5 6 6 7 7 11 8 8 9 10 10 9 11 12 12 14 13
REMARK SMILES IDX 13 14
REMARK H PARENT
REMARK Flexibility Score: inf
ROOT
ATOM      1  C   UNL     1       5.385   2.873   0.156  1.00  0.00     0.080 C 
ENDROOT
BRANCH   1   2
ATOM      2  C   UNL     1       6.233   3.779   0.979  1.00  0.00     0.130 C 
ATOM      3  C   UNL     1       7.147   4.774   0.356  1.00  0.00     0.087 C 
ATOM      4  O   UNL     1       6.202   3.730   2.198  1.00  0.00    -0.300 OA
ENDBRANCH   1   2
BRANCH   1   5
ATOM      5  C   UNL     1       5.614   1.420   0.522  1.00  0.00     0.043 C 
BRANCH   5   6
ATOM      6  C   UNL     1       6.693   0.818  -0.280  1.00  0.00    -0.044 A 
ATOM      7  C   UNL     1       7.960   1.406  -0.364  1.00  0.00     0.008 A 
ATOM      8  C   UNL     1       6.462  -0.353  -0.965  1.00  0.00     0.054 A 
ATOM      9  C   UNL     1       8.935   0.795  -1.132  1.00  0.00     0.051 A 
ATOM     10  C   UNL     1       7.450  -0.968  -1.740  1.00  0.00     0.166 A 
ATOM     11  C   UNL     1       8.697  -0.388  -1.824  1.00  0.00     0.165 A 
ATOM     12  O   UNL     1       7.467  -2.115  -2.504  1.00  0.00    -0.454 OA
ATOM     13  O   UNL     1       9.462  -1.201  -2.646  1.00  0.00    -0.454 OA
ATOM     14  C   UNL     1       8.749  -2.355  -3.025  1.00  0.00     0.468 C 
ENDBRANCH   5   6
ENDBRANCH   1   5
TORSDOF 3
ENDMDL
MODEL 5
REMARK VINA RESULT:      -7.5      1.959      3.014
REMARK SMILES CC(=O)CCc1ccc2c(c1)OCO2
REMARK SMILES IDX 4 1 2 2 1 3 3 4 5 5 6 6 7 7 11 8 8 9 10 10 9 11 12 12 14 13
REMARK SMILES IDX 13 14
REMARK H PARENT
REMARK Flexibility Score: inf
ROOT
ATOM      1  C   UNL     1       5.780   1.388  -0.330  1.00  0.00     0.080 C 
ENDROOT
BRANCH   1   2
ATOM      2  C   UNL     1       5.126   1.310   1.006  1.00  0.00     0.130 C 
ATOM      3  C   UNL     1       5.409   0.196   1.950  1.00  0.00     0.087 C 
ATOM      4  O   UNL     1       4.332   2.164   1.366  1.00  0.00    -0.300 OA
ENDBRANCH   1   2
BRANCH   1   5
ATOM      5  C   UNL     1       7.268   1.119  -0.231  1.00  0.00     0.043 C 
BRANCH   5   6
ATOM      6  C   UNL     1       7.631  -0.176  -0.835  1.00  0.00    -0.044 A 
ATOM      7  C   UNL     1       7.704  -0.341  -2.223  1.00  0.00     0.008 A 
ATOM      8  C   UNL     1       7.909  -1.253  -0.025  1.00  0.00     0.054 A 
ATOM      9  C   UNL     1       8.050  -1.579  -2.734  1.00  0.00     0.051 A 
ATOM     10  C   UNL     1       8.260  -2.502  -0.547  1.00  0.00     0.166 A 
ATOM     11  C   UNL     1       8.331  -2.666  -1.912  1.00  0.00     0.165 A 
ATOM     12  O   UNL     1       8.577  -3.709   0.039  1.00  0.00    -0.454 OA
ATOM     13  O   UNL     1       8.695  -3.985  -2.139  1.00  0.00    -0.454 OA
ATOM     14  C   UNL     1       8.949  -4.657  -0.928  1.00  0.00     0.468 C 
ENDBRANCH   5   6
ENDBRANCH   1   5
TORSDOF 3
ENDMDL
