@<TRIPOS>MOLECULE
/home/cewinharhar/GITHUB/reincatalyze/data/processed/docking_pred/2023-May-22-1902_sub9_nm5_bs15_s42_ex16_mel10_mts1000_k50_ec02_g099_lra9e-4_lrc1e-3/d3a7bace4d7284fd134c29c8ba069397c7215f06_ligand_9.pdbqt
 14 15 0 0 0
SMALL
GASTEIGER

@<TRIPOS>ATOM
      1  C          5.5620    1.9100    1.2750 C.3     1  UNL1        0.0800
      2  C          5.1300    0.6930    2.0170 C.2     1  UNL1        0.1300
      3  C          6.0330   -0.4760    2.1940 C.3     1  UNL1        0.0870
      4  O          4.0140    0.6190    2.5040 O.2     1  UNL1       -0.3000
      5  C          5.4260    1.7180   -0.2230 C.3     1  UNL1        0.0430
      6  C          6.5900    1.0160   -0.7920 C.2     1  UNL1       -0.0440
      7  C          7.8990    1.4450   -0.5440 C.2     1  UNL1        0.0080
      8  C          6.3970   -0.0920   -1.5860 C.2     1  UNL1        0.0540
      9  C          8.9520    0.7460   -1.1040 C.2     1  UNL1        0.0510
     10  C          7.4660   -0.7950   -2.1500 C.2     1  UNL1        0.1660
     11  C          8.7540   -0.3730   -1.9070 C.2     1  UNL1        0.1650
     12  O          7.5350   -1.9080   -2.9620 O.2     1  UNL1       -0.4540
     13  O          9.5950   -1.2440   -2.5810 O.2     1  UNL1       -0.4540
     14  C          8.8680   -2.2850   -3.1880 C.3     1  UNL1        0.4680
@<TRIPOS>BOND
     1    14    12    1
     2    14    13    1
     3    12    10    1
     4    13    11    1
     5    10    11    2
     6    10     8    1
     7    11     9    1
     8     8     6    2
     9     9     7    2
    10     6     7    1
    11     6     5    1
    12     5     1    1
    13     1     2    1
    14     2     3    1
    15     2     4    2
