@<TRIPOS>MOLECULE
/home/cewinharhar/GITHUB/reincatalyze/data/processed/docking_pred/2023-May-22-1902_sub9_nm5_bs15_s42_ex16_mel10_mts1000_k50_ec02_g099_lra9e-4_lrc1e-3/d4292dbdc665c4d20b6271b363b9823f318ec372_ligand_9.pdbqt
 14 15 0 0 0
SMALL
GASTEIGER

@<TRIPOS>ATOM
      1  C          6.3100    0.9220    1.1080 C.3     1  UNL1        0.0800
      2  C          5.0950    1.7630    0.9170 C.2     1  UNL1        0.1300
      3  C          4.9050    2.5940   -0.3020 C.3     1  UNL1        0.0870
      4  O          4.2150    1.7950    1.7620 O.2     1  UNL1       -0.3000
      5  C          7.2890    1.1010   -0.0350 C.3     1  UNL1        0.0430
      6  C          7.5990   -0.1800   -0.6950 C.2     1  UNL1       -0.0440
      7  C          7.5340   -0.3220   -2.0850 C.2     1  UNL1        0.0080
      8  C          7.9640   -1.2680    0.0650 C.2     1  UNL1        0.0540
      9  C          7.8360   -1.5490   -2.6490 C.2     1  UNL1        0.0510
     10  C          8.2690   -2.5050   -0.5090 C.2     1  UNL1        0.1660
     11  C          8.2050   -2.6470   -1.8780 C.2     1  UNL1        0.1650
     12  O          8.6520   -3.7190    0.0210 O.2     1  UNL1       -0.4540
     13  O          8.5530   -3.9580   -2.1620 O.2     1  UNL1       -0.4540
     14  C          8.9320   -4.6470   -0.9950 C.3     1  UNL1        0.4680
@<TRIPOS>BOND
     1     9     7    1
     2     9    11    2
     3    13    11    1
     4    13    14    1
     5     7     6    2
     6    11    10    1
     7    14    12    1
     8     6     5    1
     9     6     8    1
    10    10    12    1
    11    10     8    2
    12     3     2    1
    13     5     1    1
    14     2     1    1
    15     2     4    2
