@<TRIPOS>MOLECULE
/home/cewinharhar/GITHUB/reincatalyze/data/processed/docking_pred/2023-May-22-1902_sub9_nm5_bs15_s42_ex16_mel10_mts1000_k50_ec02_g099_lra9e-4_lrc1e-3/d4292dbdc665c4d20b6271b363b9823f318ec372_ligand_9.pdbqt
 14 15 0 0 0
SMALL
GASTEIGER

@<TRIPOS>ATOM
      1  C          5.5070    1.9200    1.2620 C.3     1  UNL1        0.0800
      2  C          5.0530    0.7060    1.9960 C.2     1  UNL1        0.1300
      3  C          5.9260   -0.4890    2.1440 C.3     1  UNL1        0.0870
      4  O          3.9430    0.6580    2.5010 O.2     1  UNL1       -0.3000
      5  C          5.3860    1.7330   -0.2380 C.3     1  UNL1        0.0430
      6  C          6.5560    1.0320   -0.7960 C.2     1  UNL1       -0.0440
      7  C          7.8620    1.4650   -0.5410 C.2     1  UNL1        0.0080
      8  C          6.3710   -0.0800   -1.5870 C.2     1  UNL1        0.0540
      9  C          8.9210    0.7670   -1.0920 C.2     1  UNL1        0.0510
     10  C          7.4450   -0.7830   -2.1410 C.2     1  UNL1        0.1660
     11  C          8.7310   -0.3560   -1.8910 C.2     1  UNL1        0.1650
     12  O          7.5220   -1.8980   -2.9480 O.2     1  UNL1       -0.4540
     13  O          9.5790   -1.2280   -2.5560 O.2     1  UNL1       -0.4540
     14  C          8.8590   -2.2730   -3.1640 C.3     1  UNL1        0.4680
@<TRIPOS>BOND
     1    14    12    1
     2    14    13    1
     3    12    10    1
     4    13    11    1
     5    10    11    2
     6    10     8    1
     7    11     9    1
     8     8     6    2
     9     9     7    2
    10     6     7    1
    11     6     5    1
    12     5     1    1
    13     1     2    1
    14     2     3    1
    15     2     4    2
