@<TRIPOS>MOLECULE
/home/cewinharhar/GITHUB/reincatalyze/data/processed/docking_pred/2023-May-22-1902_sub9_nm5_bs15_s42_ex16_mel10_mts1000_k50_ec02_g099_lra9e-4_lrc1e-3/d4292dbdc665c4d20b6271b363b9823f318ec372_ligand_9.pdbqt
 14 15 0 0 0
SMALL
GASTEIGER

@<TRIPOS>ATOM
      1  C          5.3720    3.0000    0.1720 C.3     1  UNL1        0.0800
      2  C          6.2990    3.8070    1.0140 C.2     1  UNL1        0.1300
      3  C          7.2560    4.7740    0.4140 C.3     1  UNL1        0.0870
      4  O          6.2990    3.6960    2.2290 O.2     1  UNL1       -0.3000
      5  C          5.0350    1.6790    0.8350 C.3     1  UNL1        0.0430
      6  C          5.8990    0.5880    0.3500 C.2     1  UNL1       -0.0440
      7  C          6.3290   -0.4390    1.1990 C.2     1  UNL1        0.0080
      8  C          6.2950    0.5660   -0.9680 C.2     1  UNL1        0.0540
      9  C          7.1380   -1.4370    0.6870 C.2     1  UNL1        0.0510
     10  C          7.1120   -0.4460   -1.4800 C.2     1  UNL1        0.1660
     11  C          7.5370   -1.4560   -0.6460 C.2     1  UNL1        0.1650
     12  O          7.6350   -0.6880   -2.7330 O.2     1  UNL1       -0.4540
     13  O          8.3200   -2.3060   -1.4110 O.2     1  UNL1       -0.4540
     14  C          8.3340   -1.9050   -2.7610 C.3     1  UNL1        0.4680
@<TRIPOS>BOND
     1    14    12    1
     2    14    13    1
     3    12    10    1
     4    10     8    1
     5    10    11    2
     6    13    11    1
     7     8     6    2
     8    11     9    1
     9     1     5    1
    10     1     2    1
    11     6     5    1
    12     6     7    1
    13     3     2    1
    14     9     7    2
    15     2     4    2
