@<TRIPOS>MOLECULE
/home/cewinharhar/GITHUB/reincatalyze/data/processed/docking_pred/2023-May-22-1902_sub9_nm5_bs15_s42_ex16_mel10_mts1000_k50_ec02_g099_lra9e-4_lrc1e-3/d4292dbdc665c4d20b6271b363b9823f318ec372_ligand_9.pdbqt
 14 15 0 0 0
SMALL
GASTEIGER

@<TRIPOS>ATOM
      1  C          5.8150    1.4060   -0.3500 C.3     1  UNL1        0.0800
      2  C          5.1460    1.3390    0.9800 C.2     1  UNL1        0.1300
      3  C          5.4170    0.2310    1.9340 C.3     1  UNL1        0.0870
      4  O          4.3500    2.1970    1.3250 O.2     1  UNL1       -0.3000
      5  C          7.2920    1.0850   -0.2390 C.3     1  UNL1        0.0430
      6  C          7.6160   -0.2150   -0.8530 C.2     1  UNL1       -0.0440
      7  C          7.5870   -0.3990   -2.2400 C.2     1  UNL1        0.0080
      8  C          7.9590   -1.2810   -0.0520 C.2     1  UNL1        0.0540
      9  C          7.9010   -1.6410   -2.7590 C.2     1  UNL1        0.0510
     10  C          8.2770   -2.5350   -0.5820 C.2     1  UNL1        0.1660
     11  C          8.2470   -2.7170   -1.9470 C.2     1  UNL1        0.1650
     12  O          8.6420   -3.7330   -0.0060 O.2     1  UNL1       -0.4540
     13  O          8.6000   -4.0360   -2.1830 O.2     1  UNL1       -0.4540
     14  C          8.9470   -4.6920   -0.9870 C.3     1  UNL1        0.4680
@<TRIPOS>BOND
     1     9     7    1
     2     9    11    2
     3     7     6    2
     4    13    11    1
     5    13    14    1
     6    11    10    1
     7    14    12    1
     8     6     5    1
     9     6     8    1
    10    10     8    2
    11    10    12    1
    12     1     5    1
    13     1     2    1
    14     2     4    2
    15     2     3    1
