MODEL 1
REMARK VINA RESULT:      -7.8      0.000      0.000
REMARK SMILES CC(=O)CCc1ccc2c(c1)OCO2
REMARK SMILES IDX 4 1 2 2 1 3 3 4 5 5 6 6 7 7 11 8 8 9 10 10 9 11 12 12 14 13
REMARK SMILES IDX 13 14
REMARK H PARENT
REMARK Flexibility Score: inf
ROOT
ATOM      1  C   UNL     1       5.372   3.000   0.172  1.00  0.00     0.080 C 
ENDROOT
BRANCH   1   2
ATOM      2  C   UNL     1       6.299   3.807   1.014  1.00  0.00     0.130 C 
ATOM      3  C   UNL     1       7.256   4.774   0.414  1.00  0.00     0.087 C 
ATOM      4  O   UNL     1       6.299   3.696   2.229  1.00  0.00    -0.300 OA
ENDBRANCH   1   2
BRANCH   1   5
ATOM      5  C   UNL     1       5.035   1.679   0.835  1.00  0.00     0.043 C 
BRANCH   5   6
ATOM      6  C   UNL     1       5.899   0.588   0.350  1.00  0.00    -0.044 A 
ATOM      7  C   UNL     1       6.329  -0.439   1.199  1.00  0.00     0.008 A 
ATOM      8  C   UNL     1       6.295   0.566  -0.968  1.00  0.00     0.054 A 
ATOM      9  C   UNL     1       7.138  -1.437   0.687  1.00  0.00     0.051 A 
ATOM     10  C   UNL     1       7.112  -0.446  -1.480  1.00  0.00     0.166 A 
ATOM     11  C   UNL     1       7.537  -1.456  -0.646  1.00  0.00     0.165 A 
ATOM     12  O   UNL     1       7.635  -0.688  -2.733  1.00  0.00    -0.454 OA
ATOM     13  O   UNL     1       8.320  -2.306  -1.411  1.00  0.00    -0.454 OA
ATOM     14  C   UNL     1       8.334  -1.905  -2.761  1.00  0.00     0.468 C 
ENDBRANCH   5   6
ENDBRANCH   1   5
TORSDOF 3
ENDMDL
MODEL 2
REMARK VINA RESULT:      -7.6      1.884      2.633
REMARK SMILES CC(=O)CCc1ccc2c(c1)OCO2
REMARK SMILES IDX 4 1 2 2 1 3 3 4 5 5 6 6 7 7 11 8 8 9 10 10 9 11 12 12 14 13
REMARK SMILES IDX 13 14
REMARK H PARENT
REMARK Flexibility Score: inf
ROOT
ATOM      1  C   UNL     1       5.507   1.920   1.262  1.00  0.00     0.080 C 
ENDROOT
BRANCH   1   2
ATOM      2  C   UNL     1       5.053   0.706   1.996  1.00  0.00     0.130 C 
ATOM      3  C   UNL     1       5.926  -0.489   2.144  1.00  0.00     0.087 C 
ATOM      4  O   UNL     1       3.943   0.658   2.501  1.00  0.00    -0.300 OA
ENDBRANCH   1   2
BRANCH   1   5
ATOM      5  C   UNL     1       5.386   1.733  -0.238  1.00  0.00     0.043 C 
BRANCH   5   6
ATOM      6  C   UNL     1       6.556   1.032  -0.796  1.00  0.00    -0.044 A 
ATOM      7  C   UNL     1       7.862   1.465  -0.541  1.00  0.00     0.008 A 
ATOM      8  C   UNL     1       6.371  -0.080  -1.587  1.00  0.00     0.054 A 
ATOM      9  C   UNL     1       8.921   0.767  -1.092  1.00  0.00     0.051 A 
ATOM     10  C   UNL     1       7.445  -0.783  -2.141  1.00  0.00     0.166 A 
ATOM     11  C   UNL     1       8.731  -0.356  -1.891  1.00  0.00     0.165 A 
ATOM     12  O   UNL     1       7.522  -1.898  -2.948  1.00  0.00    -0.454 OA
ATOM     13  O   UNL     1       9.579  -1.228  -2.556  1.00  0.00    -0.454 OA
ATOM     14  C   UNL     1       8.859  -2.273  -3.164  1.00  0.00     0.468 C 
ENDBRANCH   5   6
ENDBRANCH   1   5
TORSDOF 3
ENDMDL
MODEL 3
REMARK VINA RESULT:      -7.4      1.975      3.061
REMARK SMILES CC(=O)CCc1ccc2c(c1)OCO2
REMARK SMILES IDX 4 1 2 2 1 3 3 4 5 5 6 6 7 7 11 8 8 9 10 10 9 11 12 12 14 13
REMARK SMILES IDX 13 14
REMARK H PARENT
REMARK Flexibility Score: inf
ROOT
ATOM      1  C   UNL     1       5.815   1.406  -0.350  1.00  0.00     0.080 C 
ENDROOT
BRANCH   1   2
ATOM      2  C   UNL     1       5.146   1.339   0.980  1.00  0.00     0.130 C 
ATOM      3  C   UNL     1       5.417   0.231   1.934  1.00  0.00     0.087 C 
ATOM      4  O   UNL     1       4.350   2.197   1.325  1.00  0.00    -0.300 OA
ENDBRANCH   1   2
BRANCH   1   5
ATOM      5  C   UNL     1       7.292   1.085  -0.239  1.00  0.00     0.043 C 
BRANCH   5   6
ATOM      6  C   UNL     1       7.616  -0.215  -0.853  1.00  0.00    -0.044 A 
ATOM      7  C   UNL     1       7.587  -0.399  -2.240  1.00  0.00     0.008 A 
ATOM      8  C   UNL     1       7.959  -1.281  -0.052  1.00  0.00     0.054 A 
ATOM      9  C   UNL     1       7.901  -1.641  -2.759  1.00  0.00     0.051 A 
ATOM     10  C   UNL     1       8.277  -2.535  -0.582  1.00  0.00     0.166 A 
ATOM     11  C   UNL     1       8.247  -2.717  -1.947  1.00  0.00     0.165 A 
ATOM     12  O   UNL     1       8.642  -3.733  -0.006  1.00  0.00    -0.454 OA
ATOM     13  O   UNL     1       8.600  -4.036  -2.183  1.00  0.00    -0.454 OA
ATOM     14  C   UNL     1       8.947  -4.692  -0.987  1.00  0.00     0.468 C 
ENDBRANCH   5   6
ENDBRANCH   1   5
TORSDOF 3
ENDMDL
MODEL 4
REMARK VINA RESULT:      -7.4      1.844      2.861
REMARK SMILES CC(=O)CCc1ccc2c(c1)OCO2
REMARK SMILES IDX 4 1 2 2 1 3 3 4 5 5 6 6 7 7 11 8 8 9 10 10 9 11 12 12 14 13
REMARK SMILES IDX 13 14
REMARK H PARENT
REMARK Flexibility Score: inf
ROOT
ATOM      1  C   UNL     1       6.310   0.922   1.108  1.00  0.00     0.080 C 
ENDROOT
BRANCH   1   2
ATOM      2  C   UNL     1       5.095   1.763   0.917  1.00  0.00     0.130 C 
ATOM      3  C   UNL     1       4.905   2.594  -0.302  1.00  0.00     0.087 C 
ATOM      4  O   UNL     1       4.215   1.795   1.762  1.00  0.00    -0.300 OA
ENDBRANCH   1   2
BRANCH   1   5
ATOM      5  C   UNL     1       7.289   1.101  -0.035  1.00  0.00     0.043 C 
BRANCH   5   6
ATOM      6  C   UNL     1       7.599  -0.180  -0.695  1.00  0.00    -0.044 A 
ATOM      7  C   UNL     1       7.534  -0.322  -2.085  1.00  0.00     0.008 A 
ATOM      8  C   UNL     1       7.964  -1.268   0.065  1.00  0.00     0.054 A 
ATOM      9  C   UNL     1       7.836  -1.549  -2.649  1.00  0.00     0.051 A 
ATOM     10  C   UNL     1       8.269  -2.505  -0.509  1.00  0.00     0.166 A 
ATOM     11  C   UNL     1       8.205  -2.647  -1.878  1.00  0.00     0.165 A 
ATOM     12  O   UNL     1       8.652  -3.719   0.021  1.00  0.00    -0.454 OA
ATOM     13  O   UNL     1       8.553  -3.958  -2.162  1.00  0.00    -0.454 OA
ATOM     14  C   UNL     1       8.932  -4.647  -0.995  1.00  0.00     0.468 C 
ENDBRANCH   5   6
ENDBRANCH   1   5
TORSDOF 3
ENDMDL
MODEL 5
REMARK VINA RESULT:      -7.3      1.008      1.856
REMARK SMILES CC(=O)CCc1ccc2c(c1)OCO2
REMARK SMILES IDX 4 1 2 2 1 3 3 4 5 5 6 6 7 7 11 8 8 9 10 10 9 11 12 12 14 13
REMARK SMILES IDX 13 14
REMARK H PARENT
REMARK Flexibility Score: inf
ROOT
ATOM      1  C   UNL     1       5.810   2.588   0.385  1.00  0.00     0.080 C 
ENDROOT
BRANCH   1   2
ATOM      2  C   UNL     1       6.297   3.836   1.036  1.00  0.00     0.130 C 
ATOM      3  C   UNL     1       7.230   4.765   0.343  1.00  0.00     0.087 C 
ATOM      4  O   UNL     1       5.943   4.133   2.165  1.00  0.00    -0.300 OA
ENDBRANCH   1   2
BRANCH   1   5
ATOM      5  C   UNL     1       6.411   1.357   1.036  1.00  0.00     0.043 C 
BRANCH   5   6
ATOM      6  C   UNL     1       6.797   0.345   0.037  1.00  0.00    -0.044 A 
ATOM      7  C   UNL     1       6.538   0.524  -1.327  1.00  0.00     0.008 A 
ATOM      8  C   UNL     1       7.432  -0.807   0.443  1.00  0.00     0.054 A 
ATOM      9  C   UNL     1       6.925  -0.460  -2.218  1.00  0.00     0.051 A 
ATOM     10  C   UNL     1       7.821  -1.799  -0.462  1.00  0.00     0.166 A 
ATOM     11  C   UNL     1       7.565  -1.624  -1.804  1.00  0.00     0.165 A 
ATOM     12  O   UNL     1       8.455  -3.014  -0.310  1.00  0.00    -0.454 OA
ATOM     13  O   UNL     1       8.053  -2.746  -2.455  1.00  0.00    -0.454 OA
ATOM     14  C   UNL     1       8.706  -3.611  -1.556  1.00  0.00     0.468 C 
ENDBRANCH   5   6
ENDBRANCH   1   5
TORSDOF 3
ENDMDL
