@<TRIPOS>MOLECULE
/home/cewinharhar/GITHUB/reincatalyze/data/processed/docking_pred/2023-May-22-1902_sub9_nm5_bs15_s42_ex16_mel10_mts1000_k50_ec02_g099_lra9e-4_lrc1e-3/d4292dbdc665c4d20b6271b363b9823f318ec372_ligand_9.pdbqt
 14 15 0 0 0
SMALL
GASTEIGER

@<TRIPOS>ATOM
      1  C          5.8100    2.5880    0.3850 C.3     1  UNL1        0.0800
      2  C          6.2970    3.8360    1.0360 C.2     1  UNL1        0.1300
      3  C          7.2300    4.7650    0.3430 C.3     1  UNL1        0.0870
      4  O          5.9430    4.1330    2.1650 O.2     1  UNL1       -0.3000
      5  C          6.4110    1.3570    1.0360 C.3     1  UNL1        0.0430
      6  C          6.7970    0.3450    0.0370 C.2     1  UNL1       -0.0440
      7  C          6.5380    0.5240   -1.3270 C.2     1  UNL1        0.0080
      8  C          7.4320   -0.8070    0.4430 C.2     1  UNL1        0.0540
      9  C          6.9250   -0.4600   -2.2180 C.2     1  UNL1        0.0510
     10  C          7.8210   -1.7990   -0.4620 C.2     1  UNL1        0.1660
     11  C          7.5650   -1.6240   -1.8040 C.2     1  UNL1        0.1650
     12  O          8.4550   -3.0140   -0.3100 O.2     1  UNL1       -0.4540
     13  O          8.0530   -2.7460   -2.4550 O.2     1  UNL1       -0.4540
     14  C          8.7060   -3.6110   -1.5560 C.3     1  UNL1        0.4680
@<TRIPOS>BOND
     1    13    11    1
     2    13    14    1
     3     9    11    2
     4     9     7    1
     5    11    10    1
     6    14    12    1
     7     7     6    2
     8    10    12    1
     9    10     8    2
    10     6     8    1
    11     6     5    1
    12     3     2    1
    13     1     2    1
    14     1     5    1
    15     2     4    2
