@<TRIPOS>MOLECULE
/home/cewinharhar/GITHUB/reincatalyze/data/processed/docking_pred/2023-May-22-1902_sub9_nm5_bs15_s42_ex16_mel10_mts1000_k50_ec02_g099_lra9e-4_lrc1e-3/d4c602a3745b48528a2ec664cc6a2c0711254731_ligand_9.pdbqt
 14 15 0 0 0
SMALL
GASTEIGER

@<TRIPOS>ATOM
      1  C          5.5310    1.9270    1.2550 C.3     1  UNL1        0.0800
      2  C          5.1050    0.7110    2.0030 C.2     1  UNL1        0.1300
      3  C          6.0130   -0.4530    2.1810 C.3     1  UNL1        0.0870
      4  O          3.9900    0.6350    2.4930 O.2     1  UNL1       -0.3000
      5  C          5.3980    1.7280   -0.2410 C.3     1  UNL1        0.0430
      6  C          6.5660    1.0290   -0.8060 C.2     1  UNL1       -0.0440
      7  C          7.8730    1.4640   -0.5540 C.2     1  UNL1        0.0080
      8  C          6.3800   -0.0810   -1.5980 C.2     1  UNL1        0.0540
      9  C          8.9300    0.7680   -1.1100 C.2     1  UNL1        0.0510
     10  C          7.4530   -0.7810   -2.1570 C.2     1  UNL1        0.1660
     11  C          8.7390   -0.3530   -1.9110 C.2     1  UNL1        0.1650
     12  O          7.5290   -1.8950   -2.9670 O.2     1  UNL1       -0.4540
     13  O          9.5860   -1.2230   -2.5810 O.2     1  UNL1       -0.4540
     14  C          8.8640   -2.2680   -3.1880 C.3     1  UNL1        0.4680
@<TRIPOS>BOND
     1    14    12    1
     2    14    13    1
     3    12    10    1
     4    13    11    1
     5    10    11    2
     6    10     8    1
     7    11     9    1
     8     8     6    2
     9     9     7    2
    10     6     7    1
    11     6     5    1
    12     5     1    1
    13     1     2    1
    14     2     3    1
    15     2     4    2
