@<TRIPOS>MOLECULE
/home/cewinharhar/GITHUB/reincatalyze/data/processed/docking_pred/2023-May-22-1902_sub9_nm5_bs15_s42_ex16_mel10_mts1000_k50_ec02_g099_lra9e-4_lrc1e-3/d4c602a3745b48528a2ec664cc6a2c0711254731_ligand_9.pdbqt
 14 15 0 0 0
SMALL
GASTEIGER

@<TRIPOS>ATOM
      1  C          6.3930    0.8840    1.0460 C.3     1  UNL1        0.0800
      2  C          5.1650    1.7210    0.9470 C.2     1  UNL1        0.1300
      3  C          4.9350    2.6360   -0.2030 C.3     1  UNL1        0.0870
      4  O          4.3060    1.6790    1.8130 O.2     1  UNL1       -0.3000
      5  C          7.2870    1.0720   -0.1640 C.3     1  UNL1        0.0430
      6  C          7.6230   -0.2150   -0.7990 C.2     1  UNL1       -0.0440
      7  C          7.6420   -0.3620   -2.1910 C.2     1  UNL1        0.0080
      8  C          7.9290   -1.3040   -0.0150 C.2     1  UNL1        0.0540
      9  C          7.9650   -1.5940   -2.7310 C.2     1  UNL1        0.0510
     10  C          8.2560   -2.5460   -0.5660 C.2     1  UNL1        0.1660
     11  C          8.2740   -2.6920   -1.9350 C.2     1  UNL1        0.1650
     12  O          8.5920   -3.7620   -0.0090 O.2     1  UNL1       -0.4540
     13  O          8.6260   -4.0080   -2.1930 O.2     1  UNL1       -0.4540
     14  C          8.9250   -4.6970   -1.0030 C.3     1  UNL1        0.4680
@<TRIPOS>BOND
     1     9     7    1
     2     9    11    2
     3    13    11    1
     4    13    14    1
     5     7     6    2
     6    11    10    1
     7    14    12    1
     8     6     5    1
     9     6     8    1
    10    10     8    2
    11    10    12    1
    12     3     2    1
    13     5     1    1
    14     2     1    1
    15     2     4    2
