@<TRIPOS>MOLECULE
/home/cewinharhar/GITHUB/reincatalyze/data/processed/docking_pred/2023-May-22-1902_sub9_nm5_bs15_s42_ex16_mel10_mts1000_k50_ec02_g099_lra9e-4_lrc1e-3/d68da6ca94917019a71bc3feefe4e6b6d631e6ad_ligand_9.pdbqt
 14 15 0 0 0
SMALL
GASTEIGER

@<TRIPOS>ATOM
      1  C          5.5010    1.9010    1.2720 C.3     1  UNL1        0.0800
      2  C          5.0560    0.6840    2.0070 C.2     1  UNL1        0.1300
      3  C          5.9330   -0.5080    2.1470 C.3     1  UNL1        0.0870
      4  O          3.9490    0.6310    2.5180 O.2     1  UNL1       -0.3000
      5  C          5.3790    1.7150   -0.2270 C.3     1  UNL1        0.0430
      6  C          6.5510    1.0210   -0.7890 C.2     1  UNL1       -0.0440
      7  C          7.8550    1.4630   -0.5380 C.2     1  UNL1        0.0080
      8  C          6.3710   -0.0920   -1.5790 C.2     1  UNL1        0.0540
      9  C          8.9160    0.7710   -1.0920 C.2     1  UNL1        0.0510
     10  C          7.4470   -0.7890   -2.1360 C.2     1  UNL1        0.1660
     11  C          8.7310   -0.3530   -1.8910 C.2     1  UNL1        0.1650
     12  O          7.5290   -1.9040   -2.9420 O.2     1  UNL1       -0.4540
     13  O          9.5820   -1.2200   -2.5580 O.2     1  UNL1       -0.4540
     14  C          8.8670   -2.2700   -3.1630 C.3     1  UNL1        0.4680
@<TRIPOS>BOND
     1    14    12    1
     2    14    13    1
     3    12    10    1
     4    13    11    1
     5    10    11    2
     6    10     8    1
     7    11     9    1
     8     8     6    2
     9     9     7    2
    10     6     7    1
    11     6     5    1
    12     5     1    1
    13     1     2    1
    14     2     3    1
    15     2     4    2
