@<TRIPOS>MOLECULE
/home/cewinharhar/GITHUB/reincatalyze/data/processed/docking_pred/2023-May-22-1902_sub9_nm5_bs15_s42_ex16_mel10_mts1000_k50_ec02_g099_lra9e-4_lrc1e-3/d6fa7c89c21ca11aa73af88b15ecc664e93337c3_ligand_9.pdbqt
 14 15 0 0 0
SMALL
GASTEIGER

@<TRIPOS>ATOM
      1  C          5.4680    2.9250    0.1030 C.3     1  UNL1        0.0800
      2  C          6.3020    3.8270    0.9440 C.2     1  UNL1        0.1300
      3  C          7.2780    4.7750    0.3430 C.3     1  UNL1        0.0870
      4  O          6.2070    3.8150    2.1610 O.2     1  UNL1       -0.3000
      5  C          5.2150    1.6020    0.7980 C.3     1  UNL1        0.0430
      6  C          6.0550    0.5240    0.2450 C.2     1  UNL1       -0.0440
      7  C          6.3750   -0.6140    0.9940 C.2     1  UNL1        0.0080
      8  C          6.5390    0.6280   -1.0400 C.2     1  UNL1        0.0540
      9  C          7.1660   -1.5930    0.4220 C.2     1  UNL1        0.0510
     10  C          7.3380   -0.3660   -1.6140 C.2     1  UNL1        0.1660
     11  C          7.6540   -1.4850   -0.8770 C.2     1  UNL1        0.1650
     12  O          7.9330   -0.4950   -2.8510 O.2     1  UNL1       -0.4540
     13  O          8.4450   -2.2870   -1.6850 O.2     1  UNL1       -0.4540
     14  C          8.5710   -1.7390   -2.9760 C.3     1  UNL1        0.4680
@<TRIPOS>BOND
     1    14    12    1
     2    14    13    1
     3    12    10    1
     4    13    11    1
     5    10     8    1
     6    10    11    2
     7     8     6    2
     8    11     9    1
     9     1     5    1
    10     1     2    1
    11     6     5    1
    12     6     7    1
    13     3     2    1
    14     9     7    2
    15     2     4    2
