@<TRIPOS>MOLECULE
/home/cewinharhar/GITHUB/reincatalyze/data/processed/docking_pred/2023-May-22-1902_sub9_nm5_bs15_s42_ex16_mel10_mts1000_k50_ec02_g099_lra9e-4_lrc1e-3/d6fa7c89c21ca11aa73af88b15ecc664e93337c3_ligand_9.pdbqt
 14 15 0 0 0
SMALL
GASTEIGER

@<TRIPOS>ATOM
      1  C          5.4130    2.9460    0.1460 C.3     1  UNL1        0.0800
      2  C          6.2840    3.8230    0.9760 C.2     1  UNL1        0.1300
      3  C          7.2490    4.7730    0.3600 C.3     1  UNL1        0.0870
      4  O          6.2310    3.7870    2.1940 O.2     1  UNL1       -0.3000
      5  C          5.1610    1.6160    0.8280 C.3     1  UNL1        0.0430
      6  C          5.9890    0.5410    0.2520 C.2     1  UNL1       -0.0440
      7  C          6.3460    0.5360   -1.1010 C.2     1  UNL1        0.0080
      8  C          6.4300   -0.4860    1.0550 C.2     1  UNL1        0.0540
      9  C          7.1260   -0.4980   -1.5860 C.2     1  UNL1        0.0510
     10  C          7.2180   -1.5290    0.5610 C.2     1  UNL1        0.1660
     11  C          7.5690   -1.5350   -0.7710 C.2     1  UNL1        0.1650
     12  O          7.7720   -2.6480    1.1470 O.2     1  UNL1       -0.4540
     13  O          8.3400   -2.6690   -0.9770 O.2     1  UNL1       -0.4540
     14  C          8.5690   -3.3540    0.2310 C.3     1  UNL1        0.4680
@<TRIPOS>BOND
     1     9     7    1
     2     9    11    2
     3     7     6    2
     4    13    11    1
     5    13    14    1
     6    11    10    1
     7     1     5    1
     8     1     2    1
     9    14    12    1
    10     6     5    1
    11     6     8    1
    12     3     2    1
    13    10     8    2
    14    10    12    1
    15     2     4    2
