@<TRIPOS>MOLECULE
/home/cewinharhar/GITHUB/reincatalyze/data/processed/docking_pred/2023-May-22-1902_sub9_nm5_bs15_s42_ex16_mel10_mts1000_k50_ec02_g099_lra9e-4_lrc1e-3/d7d9c72b52c2e0a01b4806f6bcc2a503b8c9528b_ligand_9.pdbqt
 14 15 0 0 0
SMALL
GASTEIGER

@<TRIPOS>ATOM
      1  C          5.4550    2.9210    0.1580 C.3     1  UNL1        0.0800
      2  C          6.2920    3.8290    0.9900 C.2     1  UNL1        0.1300
      3  C          7.2630    4.7750    0.3780 C.3     1  UNL1        0.0870
      4  O          6.2030    3.8230    2.2070 O.2     1  UNL1       -0.3000
      5  C          5.1930    1.6080    0.8690 C.3     1  UNL1        0.0430
      6  C          6.0110    0.5140    0.3160 C.2     1  UNL1       -0.0440
      7  C          6.3530   -0.6060    1.0830 C.2     1  UNL1        0.0080
      8  C          6.4520    0.5830   -0.9860 C.2     1  UNL1        0.0540
      9  C          7.1220   -1.6020    0.5100 C.2     1  UNL1        0.0510
     10  C          7.2280   -0.4270   -1.5610 C.2     1  UNL1        0.1660
     11  C          7.5660   -1.5290   -0.8070 C.2     1  UNL1        0.1650
     12  O          7.7820   -0.5890   -2.8130 O.2     1  UNL1       -0.4540
     13  O          8.3270   -2.3540   -1.6210 O.2     1  UNL1       -0.4540
     14  C          8.4120   -1.8390   -2.9280 C.3     1  UNL1        0.4680
@<TRIPOS>BOND
     1    14    12    1
     2    14    13    1
     3    12    10    1
     4    13    11    1
     5    10     8    1
     6    10    11    2
     7     8     6    2
     8    11     9    1
     9     1     5    1
    10     1     2    1
    11     6     5    1
    12     6     7    1
    13     3     2    1
    14     9     7    2
    15     2     4    2
