MODEL 1
REMARK VINA RESULT:      -7.9      0.000      0.000
REMARK SMILES CC(=O)CCc1ccc2c(c1)OCO2
REMARK SMILES IDX 4 1 2 2 1 3 3 4 5 5 6 6 7 7 11 8 8 9 10 10 9 11 12 12 14 13
REMARK SMILES IDX 13 14
REMARK H PARENT
REMARK Flexibility Score: inf
ROOT
ATOM      1  C   UNL     1       5.455   2.921   0.158  1.00  0.00     0.080 C 
ENDROOT
BRANCH   1   2
ATOM      2  C   UNL     1       6.292   3.829   0.990  1.00  0.00     0.130 C 
ATOM      3  C   UNL     1       7.263   4.775   0.378  1.00  0.00     0.087 C 
ATOM      4  O   UNL     1       6.203   3.823   2.207  1.00  0.00    -0.300 OA
ENDBRANCH   1   2
BRANCH   1   5
ATOM      5  C   UNL     1       5.193   1.608   0.869  1.00  0.00     0.043 C 
BRANCH   5   6
ATOM      6  C   UNL     1       6.011   0.514   0.316  1.00  0.00    -0.044 A 
ATOM      7  C   UNL     1       6.353  -0.606   1.083  1.00  0.00     0.008 A 
ATOM      8  C   UNL     1       6.452   0.583  -0.986  1.00  0.00     0.054 A 
ATOM      9  C   UNL     1       7.122  -1.602   0.510  1.00  0.00     0.051 A 
ATOM     10  C   UNL     1       7.228  -0.427  -1.561  1.00  0.00     0.166 A 
ATOM     11  C   UNL     1       7.566  -1.529  -0.807  1.00  0.00     0.165 A 
ATOM     12  O   UNL     1       7.782  -0.589  -2.813  1.00  0.00    -0.454 OA
ATOM     13  O   UNL     1       8.327  -2.354  -1.621  1.00  0.00    -0.454 OA
ATOM     14  C   UNL     1       8.412  -1.839  -2.928  1.00  0.00     0.468 C 
ENDBRANCH   5   6
ENDBRANCH   1   5
TORSDOF 3
ENDMDL
MODEL 2
REMARK VINA RESULT:      -7.7      1.890      2.635
REMARK SMILES CC(=O)CCc1ccc2c(c1)OCO2
REMARK SMILES IDX 4 1 2 2 1 3 3 4 5 5 6 6 7 7 11 8 8 9 10 10 9 11 12 12 14 13
REMARK SMILES IDX 13 14
REMARK H PARENT
REMARK Flexibility Score: inf
ROOT
ATOM      1  C   UNL     1       5.511   1.915   1.247  1.00  0.00     0.080 C 
ENDROOT
BRANCH   1   2
ATOM      2  C   UNL     1       5.065   0.708   1.998  1.00  0.00     0.130 C 
ATOM      3  C   UNL     1       5.945  -0.479   2.160  1.00  0.00     0.087 C 
ATOM      4  O   UNL     1       3.956   0.660   2.505  1.00  0.00    -0.300 OA
ENDBRANCH   1   2
BRANCH   1   5
ATOM      5  C   UNL     1       5.385   1.709  -0.250  1.00  0.00     0.043 C 
BRANCH   5   6
ATOM      6  C   UNL     1       6.558   1.013  -0.807  1.00  0.00    -0.044 A 
ATOM      7  C   UNL     1       7.862   1.453  -0.550  1.00  0.00     0.008 A 
ATOM      8  C   UNL     1       6.379  -0.100  -1.597  1.00  0.00     0.054 A 
ATOM      9  C   UNL     1       8.924   0.759  -1.099  1.00  0.00     0.051 A 
ATOM     10  C   UNL     1       7.457  -0.799  -2.149  1.00  0.00     0.166 A 
ATOM     11  C   UNL     1       8.740  -0.365  -1.898  1.00  0.00     0.165 A 
ATOM     12  O   UNL     1       7.540  -1.914  -2.955  1.00  0.00    -0.454 OA
ATOM     13  O   UNL     1       9.593  -1.234  -2.561  1.00  0.00    -0.454 OA
ATOM     14  C   UNL     1       8.879  -2.283  -3.169  1.00  0.00     0.468 C 
ENDBRANCH   5   6
ENDBRANCH   1   5
TORSDOF 3
ENDMDL
MODEL 3
REMARK VINA RESULT:      -7.5      1.972      3.035
REMARK SMILES CC(=O)CCc1ccc2c(c1)OCO2
REMARK SMILES IDX 4 1 2 2 1 3 3 4 5 5 6 6 7 7 11 8 8 9 10 10 9 11 12 12 14 13
REMARK SMILES IDX 13 14
REMARK H PARENT
REMARK Flexibility Score: inf
ROOT
ATOM      1  C   UNL     1       5.740   1.338  -0.335  1.00  0.00     0.080 C 
ENDROOT
BRANCH   1   2
ATOM      2  C   UNL     1       5.135   1.288   1.026  1.00  0.00     0.130 C 
ATOM      3  C   UNL     1       5.359   0.135   1.938  1.00  0.00     0.087 C 
ATOM      4  O   UNL     1       4.433   2.199   1.433  1.00  0.00    -0.300 OA
ENDBRANCH   1   2
BRANCH   1   5
ATOM      5  C   UNL     1       7.237   1.105  -0.280  1.00  0.00     0.043 C 
BRANCH   5   6
ATOM      6  C   UNL     1       7.611  -0.186  -0.884  1.00  0.00    -0.044 A 
ATOM      7  C   UNL     1       7.693  -0.350  -2.272  1.00  0.00     0.008 A 
ATOM      8  C   UNL     1       7.891  -1.262  -0.073  1.00  0.00     0.054 A 
ATOM      9  C   UNL     1       8.050  -1.586  -2.781  1.00  0.00     0.051 A 
ATOM     10  C   UNL     1       8.253  -2.509  -0.593  1.00  0.00     0.166 A 
ATOM     11  C   UNL     1       8.332  -2.672  -1.958  1.00  0.00     0.165 A 
ATOM     12  O   UNL     1       8.574  -3.714  -0.006  1.00  0.00    -0.454 OA
ATOM     13  O   UNL     1       8.706  -3.987  -2.184  1.00  0.00    -0.454 OA
ATOM     14  C   UNL     1       8.958  -4.659  -0.973  1.00  0.00     0.468 C 
ENDBRANCH   5   6
ENDBRANCH   1   5
TORSDOF 3
ENDMDL
MODEL 4
REMARK VINA RESULT:      -7.4      1.837      2.839
REMARK SMILES CC(=O)CCc1ccc2c(c1)OCO2
REMARK SMILES IDX 4 1 2 2 1 3 3 4 5 5 6 6 7 7 11 8 8 9 10 10 9 11 12 12 14 13
REMARK SMILES IDX 13 14
REMARK H PARENT
REMARK Flexibility Score: inf
ROOT
ATOM      1  C   UNL     1       6.338   0.908   1.025  1.00  0.00     0.080 C 
ENDROOT
BRANCH   1   2
ATOM      2  C   UNL     1       5.108   1.744   0.936  1.00  0.00     0.130 C 
ATOM      3  C   UNL     1       4.866   2.656  -0.213  1.00  0.00     0.087 C 
ATOM      4  O   UNL     1       4.259   1.704   1.812  1.00  0.00    -0.300 OA
ENDBRANCH   1   2
BRANCH   1   5
ATOM      5  C   UNL     1       7.223   1.100  -0.191  1.00  0.00     0.043 C 
BRANCH   5   6
ATOM      6  C   UNL     1       7.574  -0.186  -0.819  1.00  0.00    -0.044 A 
ATOM      7  C   UNL     1       7.600  -0.339  -2.210  1.00  0.00     0.008 A 
ATOM      8  C   UNL     1       7.889  -1.268  -0.029  1.00  0.00     0.054 A 
ATOM      9  C   UNL     1       7.938  -1.570  -2.744  1.00  0.00     0.051 A 
ATOM     10  C   UNL     1       8.231  -2.510  -0.573  1.00  0.00     0.166 A 
ATOM     11  C   UNL     1       8.255  -2.662  -1.942  1.00  0.00     0.165 A 
ATOM     12  O   UNL     1       8.578  -3.719  -0.010  1.00  0.00    -0.454 OA
ATOM     13  O   UNL     1       8.621  -3.975  -2.193  1.00  0.00    -0.454 OA
ATOM     14  C   UNL     1       8.923  -4.655  -0.998  1.00  0.00     0.468 C 
ENDBRANCH   5   6
ENDBRANCH   1   5
TORSDOF 3
ENDMDL
MODEL 5
REMARK VINA RESULT:      -7.3      1.453      1.839
REMARK SMILES CC(=O)CCc1ccc2c(c1)OCO2
REMARK SMILES IDX 4 1 2 2 1 3 3 4 5 5 6 6 7 7 11 8 8 9 10 10 9 11 12 12 14 13
REMARK SMILES IDX 13 14
REMARK H PARENT
REMARK Flexibility Score: inf
ROOT
ATOM      1  C   UNL     1       6.948   2.175  -0.051  1.00  0.00     0.080 C 
ENDROOT
BRANCH   1   2
ATOM      2  C   UNL     1       6.112   3.035   0.832  1.00  0.00     0.130 C 
ATOM      3  C   UNL     1       6.551   4.397   1.237  1.00  0.00     0.087 C 
ATOM      4  O   UNL     1       5.036   2.643   1.253  1.00  0.00    -0.300 OA
ENDBRANCH   1   2
BRANCH   1   5
ATOM      5  C   UNL     1       6.151   1.005  -0.593  1.00  0.00     0.043 C 
BRANCH   5   6
ATOM      6  C   UNL     1       6.818  -0.282  -0.323  1.00  0.00    -0.044 A 
ATOM      7  C   UNL     1       6.989  -0.759   0.982  1.00  0.00     0.008 A 
ATOM      8  C   UNL     1       7.284  -1.042  -1.371  1.00  0.00     0.054 A 
ATOM      9  C   UNL     1       7.622  -1.973   1.174  1.00  0.00     0.051 A 
ATOM     10  C   UNL     1       7.921  -2.270  -1.171  1.00  0.00     0.166 A 
ATOM     11  C   UNL     1       8.092  -2.739   0.112  1.00  0.00     0.165 A 
ATOM     12  O   UNL     1       8.466  -3.198  -2.034  1.00  0.00    -0.454 OA
ATOM     13  O   UNL     1       8.743  -3.959   0.010  1.00  0.00    -0.454 OA
ATOM     14  C   UNL     1       8.918  -4.330  -1.336  1.00  0.00     0.468 C 
ENDBRANCH   5   6
ENDBRANCH   1   5
TORSDOF 3
ENDMDL
