@<TRIPOS>MOLECULE
/home/cewinharhar/GITHUB/reincatalyze/data/processed/docking_pred/2023-May-22-1902_sub9_nm5_bs15_s42_ex16_mel10_mts1000_k50_ec02_g099_lra9e-4_lrc1e-3/d7d9c72b52c2e0a01b4806f6bcc2a503b8c9528b_ligand_9.pdbqt
 14 15 0 0 0
SMALL
GASTEIGER

@<TRIPOS>ATOM
      1  C          5.7400    1.3380   -0.3350 C.3     1  UNL1        0.0800
      2  C          5.1350    1.2880    1.0260 C.2     1  UNL1        0.1300
      3  C          5.3590    0.1350    1.9380 C.3     1  UNL1        0.0870
      4  O          4.4330    2.1990    1.4330 O.2     1  UNL1       -0.3000
      5  C          7.2370    1.1050   -0.2800 C.3     1  UNL1        0.0430
      6  C          7.6110   -0.1860   -0.8840 C.2     1  UNL1       -0.0440
      7  C          7.6930   -0.3500   -2.2720 C.2     1  UNL1        0.0080
      8  C          7.8910   -1.2620   -0.0730 C.2     1  UNL1        0.0540
      9  C          8.0500   -1.5860   -2.7810 C.2     1  UNL1        0.0510
     10  C          8.2530   -2.5090   -0.5930 C.2     1  UNL1        0.1660
     11  C          8.3320   -2.6720   -1.9580 C.2     1  UNL1        0.1650
     12  O          8.5740   -3.7140   -0.0060 O.2     1  UNL1       -0.4540
     13  O          8.7060   -3.9870   -2.1840 O.2     1  UNL1       -0.4540
     14  C          8.9580   -4.6590   -0.9730 C.3     1  UNL1        0.4680
@<TRIPOS>BOND
     1     9     7    1
     2     9    11    2
     3     7     6    2
     4    13    11    1
     5    13    14    1
     6    11    10    1
     7    14    12    1
     8     6     5    1
     9     6     8    1
    10    10     8    2
    11    10    12    1
    12     1     5    1
    13     1     2    1
    14     2     4    2
    15     2     3    1
