@<TRIPOS>MOLECULE
/home/cewinharhar/GITHUB/reincatalyze/data/processed/docking_pred/2023-May-22-1902_sub9_nm5_bs15_s42_ex16_mel10_mts1000_k50_ec02_g099_lra9e-4_lrc1e-3/d7d9c72b52c2e0a01b4806f6bcc2a503b8c9528b_ligand_9.pdbqt
 14 15 0 0 0
SMALL
GASTEIGER

@<TRIPOS>ATOM
      1  C          6.9480    2.1750   -0.0510 C.3     1  UNL1        0.0800
      2  C          6.1120    3.0350    0.8320 C.2     1  UNL1        0.1300
      3  C          6.5510    4.3970    1.2370 C.3     1  UNL1        0.0870
      4  O          5.0360    2.6430    1.2530 O.2     1  UNL1       -0.3000
      5  C          6.1510    1.0050   -0.5930 C.3     1  UNL1        0.0430
      6  C          6.8180   -0.2820   -0.3230 C.2     1  UNL1       -0.0440
      7  C          6.9890   -0.7590    0.9820 C.2     1  UNL1        0.0080
      8  C          7.2840   -1.0420   -1.3710 C.2     1  UNL1        0.0540
      9  C          7.6220   -1.9730    1.1740 C.2     1  UNL1        0.0510
     10  C          7.9210   -2.2700   -1.1710 C.2     1  UNL1        0.1660
     11  C          8.0920   -2.7390    0.1120 C.2     1  UNL1        0.1650
     12  O          8.4660   -3.1980   -2.0340 O.2     1  UNL1       -0.4540
     13  O          8.7430   -3.9590    0.0100 O.2     1  UNL1       -0.4540
     14  C          8.9180   -4.3300   -1.3360 C.3     1  UNL1        0.4680
@<TRIPOS>BOND
     1    12    14    1
     2    12    10    1
     3     8    10    1
     4     8     6    2
     5    14    13    1
     6    10    11    2
     7     5     6    1
     8     5     1    1
     9     6     7    1
    10     1     2    1
    11    13    11    1
    12    11     9    1
    13     2     3    1
    14     2     4    2
    15     7     9    2
