@<TRIPOS>MOLECULE
/home/cewinharhar/GITHUB/reincatalyze/data/processed/docking_pred/2023-May-22-1902_sub9_nm5_bs15_s42_ex16_mel10_mts1000_k50_ec02_g099_lra9e-4_lrc1e-3/d98db6e7330c4682e6208573911aa9edae27e8f4_ligand_9.pdbqt
 14 15 0 0 0
SMALL
GASTEIGER

@<TRIPOS>ATOM
      1  C          6.2690    0.8470    1.0230 C.3     1  UNL1        0.0800
      2  C          5.0880    1.7480    0.9180 C.2     1  UNL1        0.1300
      3  C          4.8970    2.6530   -0.2460 C.3     1  UNL1        0.0870
      4  O          4.2370    1.7700    1.7930 O.2     1  UNL1       -0.3000
      5  C          7.2140    1.0390   -0.1460 C.3     1  UNL1        0.0430
      6  C          7.5610   -0.2430   -0.7850 C.2     1  UNL1       -0.0440
      7  C          7.5530   -0.3940   -2.1770 C.2     1  UNL1        0.0080
      8  C          7.9050   -1.3230   -0.0050 C.2     1  UNL1        0.0540
      9  C          7.8880   -1.6210   -2.7200 C.2     1  UNL1        0.0510
     10  C          8.2440   -2.5610   -0.5590 C.2     1  UNL1        0.1660
     11  C          8.2350   -2.7110   -1.9280 C.2     1  UNL1        0.1650
     12  O          8.6160   -3.7680   -0.0060 O.2     1  UNL1       -0.4540
     13  O          8.6060   -4.0210   -2.1900 O.2     1  UNL1       -0.4540
     14  C          8.9440   -4.7000   -1.0040 C.3     1  UNL1        0.4680
@<TRIPOS>BOND
     1     9     7    1
     2     9    11    2
     3    13    11    1
     4    13    14    1
     5     7     6    2
     6    11    10    1
     7    14    12    1
     8     6     5    1
     9     6     8    1
    10    10    12    1
    11    10     8    2
    12     3     2    1
    13     5     1    1
    14     2     1    1
    15     2     4    2
