@<TRIPOS>MOLECULE
/home/cewinharhar/GITHUB/reincatalyze/data/processed/docking_pred/2023-May-22-1902_sub9_nm5_bs15_s42_ex16_mel10_mts1000_k50_ec02_g099_lra9e-4_lrc1e-3/d98db6e7330c4682e6208573911aa9edae27e8f4_ligand_9.pdbqt
 14 15 0 0 0
SMALL
GASTEIGER

@<TRIPOS>ATOM
      1  C          5.4290    2.9350    0.0690 C.3     1  UNL1        0.0800
      2  C          6.2950    3.7890    0.9290 C.2     1  UNL1        0.1300
      3  C          7.2470    4.7730    0.3470 C.3     1  UNL1        0.0870
      4  O          6.2490    3.7040    2.1450 O.2     1  UNL1       -0.3000
      5  C          5.1060    1.6190    0.7470 C.3     1  UNL1        0.0430
      6  C          5.9600    0.5250    0.2510 C.2     1  UNL1       -0.0440
      7  C          6.3130   -0.5570    1.0670 C.2     1  UNL1        0.0080
      8  C          6.4250    0.5550   -1.0440 C.2     1  UNL1        0.0540
      9  C          7.1160   -1.5550    0.5470 C.2     1  UNL1        0.0510
     10  C          7.2360   -0.4570   -1.5650 C.2     1  UNL1        0.1660
     11  C          7.5850   -1.5210   -0.7630 C.2     1  UNL1        0.1650
     12  O          7.8170   -0.6530   -2.8000 O.2     1  UNL1       -0.4540
     13  O          8.3800   -2.3570   -1.5300 O.2     1  UNL1       -0.4540
     14  C          8.4790   -1.8910   -2.8550 C.3     1  UNL1        0.4680
@<TRIPOS>BOND
     1    14    12    1
     2    14    13    1
     3    12    10    1
     4    10     8    1
     5    10    11    2
     6    13    11    1
     7     8     6    2
     8    11     9    1
     9     1     5    1
    10     1     2    1
    11     6     5    1
    12     6     7    1
    13     3     2    1
    14     9     7    2
    15     2     4    2
