MODEL 1
REMARK VINA RESULT:      -7.9      0.000      0.000
REMARK SMILES CC(=O)CCc1ccc2c(c1)OCO2
REMARK SMILES IDX 4 1 2 2 1 3 3 4 5 5 6 6 7 7 11 8 8 9 10 10 9 11 12 12 14 13
REMARK SMILES IDX 13 14
REMARK H PARENT
REMARK Flexibility Score: inf
ROOT
ATOM      1  C   UNL     1       5.383   2.965   0.141  1.00  0.00     0.080 C 
ENDROOT
BRANCH   1   2
ATOM      2  C   UNL     1       6.289   3.812   0.966  1.00  0.00     0.130 C 
ATOM      3  C   UNL     1       7.239   4.774   0.346  1.00  0.00     0.087 C 
ATOM      4  O   UNL     1       6.277   3.740   2.184  1.00  0.00    -0.300 OA
ENDBRANCH   1   2
BRANCH   1   5
ATOM      5  C   UNL     1       5.114   1.632   0.810  1.00  0.00     0.043 C 
BRANCH   5   6
ATOM      6  C   UNL     1       5.958   0.560   0.252  1.00  0.00    -0.044 A 
ATOM      7  C   UNL     1       6.337   0.552  -1.095  1.00  0.00     0.008 A 
ATOM      8  C   UNL     1       6.391  -0.461   1.067  1.00  0.00     0.054 A 
ATOM      9  C   UNL     1       7.130  -0.479  -1.563  1.00  0.00     0.051 A 
ATOM     10  C   UNL     1       7.193  -1.501   0.589  1.00  0.00     0.166 A 
ATOM     11  C   UNL     1       7.566  -1.511  -0.736  1.00  0.00     0.165 A 
ATOM     12  O   UNL     1       7.744  -2.614   1.188  1.00  0.00    -0.454 OA
ATOM     13  O   UNL     1       8.347  -2.640  -0.926  1.00  0.00    -0.454 OA
ATOM     14  C   UNL     1       8.560  -3.320   0.289  1.00  0.00     0.468 C 
ENDBRANCH   5   6
ENDBRANCH   1   5
TORSDOF 3
ENDMDL
MODEL 2
REMARK VINA RESULT:      -7.6      2.397      3.030
REMARK SMILES CC(=O)CCc1ccc2c(c1)OCO2
REMARK SMILES IDX 4 1 2 2 1 3 3 4 5 5 6 6 7 7 11 8 8 9 10 10 9 11 12 12 14 13
REMARK SMILES IDX 13 14
REMARK H PARENT
REMARK Flexibility Score: inf
ROOT
ATOM      1  C   UNL     1       5.504   1.952   1.248  1.00  0.00     0.080 C 
ENDROOT
BRANCH   1   2
ATOM      2  C   UNL     1       5.093   0.735   2.002  1.00  0.00     0.130 C 
ATOM      3  C   UNL     1       6.013  -0.420   2.183  1.00  0.00     0.087 C 
ATOM      4  O   UNL     1       3.981   0.650   2.496  1.00  0.00    -0.300 OA
ENDBRANCH   1   2
BRANCH   1   5
ATOM      5  C   UNL     1       5.378   1.741  -0.248  1.00  0.00     0.043 C 
BRANCH   5   6
ATOM      6  C   UNL     1       6.552   1.043  -0.802  1.00  0.00    -0.044 A 
ATOM      7  C   UNL     1       7.855   1.486  -0.549  1.00  0.00     0.008 A 
ATOM      8  C   UNL     1       6.374  -0.074  -1.587  1.00  0.00     0.054 A 
ATOM      9  C   UNL     1       8.919   0.790  -1.095  1.00  0.00     0.051 A 
ATOM     10  C   UNL     1       7.452  -0.774  -2.137  1.00  0.00     0.166 A 
ATOM     11  C   UNL     1       8.735  -0.338  -1.889  1.00  0.00     0.165 A 
ATOM     12  O   UNL     1       7.536  -1.893  -2.937  1.00  0.00    -0.454 OA
ATOM     13  O   UNL     1       9.589  -1.209  -2.548  1.00  0.00    -0.454 OA
ATOM     14  C   UNL     1       8.875  -2.262  -3.151  1.00  0.00     0.468 C 
ENDBRANCH   5   6
ENDBRANCH   1   5
TORSDOF 3
ENDMDL
MODEL 3
REMARK VINA RESULT:      -7.4      1.799      2.455
REMARK SMILES CC(=O)CCc1ccc2c(c1)OCO2
REMARK SMILES IDX 4 1 2 2 1 3 3 4 5 5 6 6 7 7 11 8 8 9 10 10 9 11 12 12 14 13
REMARK SMILES IDX 13 14
REMARK H PARENT
REMARK Flexibility Score: inf
ROOT
ATOM      1  C   UNL     1       5.821   1.382  -0.341  1.00  0.00     0.080 C 
ENDROOT
BRANCH   1   2
ATOM      2  C   UNL     1       5.153   1.326   0.990  1.00  0.00     0.130 C 
ATOM      3  C   UNL     1       5.375   0.193   1.927  1.00  0.00     0.087 C 
ATOM      4  O   UNL     1       4.398   2.214   1.350  1.00  0.00    -0.300 OA
ENDBRANCH   1   2
BRANCH   1   5
ATOM      5  C   UNL     1       7.298   1.064  -0.228  1.00  0.00     0.043 C 
BRANCH   5   6
ATOM      6  C   UNL     1       7.627  -0.233  -0.846  1.00  0.00    -0.044 A 
ATOM      7  C   UNL     1       7.620  -0.407  -2.235  1.00  0.00     0.008 A 
ATOM      8  C   UNL     1       7.951  -1.306  -0.047  1.00  0.00     0.054 A 
ATOM      9  C   UNL     1       7.937  -1.647  -2.757  1.00  0.00     0.051 A 
ATOM     10  C   UNL     1       8.272  -2.558  -0.580  1.00  0.00     0.166 A 
ATOM     11  C   UNL     1       8.265  -2.730  -1.947  1.00  0.00     0.165 A 
ATOM     12  O   UNL     1       8.623  -3.762  -0.007  1.00  0.00    -0.454 OA
ATOM     13  O   UNL     1       8.616  -4.049  -2.186  1.00  0.00    -0.454 OA
ATOM     14  C   UNL     1       8.939  -4.715  -0.989  1.00  0.00     0.468 C 
ENDBRANCH   5   6
ENDBRANCH   1   5
TORSDOF 3
ENDMDL
MODEL 4
REMARK VINA RESULT:      -7.4      0.896      1.027
REMARK SMILES CC(=O)CCc1ccc2c(c1)OCO2
REMARK SMILES IDX 4 1 2 2 1 3 3 4 5 5 6 6 7 7 11 8 8 9 10 10 9 11 12 12 14 13
REMARK SMILES IDX 13 14
REMARK H PARENT
REMARK Flexibility Score: inf
ROOT
ATOM      1  C   UNL     1       5.773   2.636   0.369  1.00  0.00     0.080 C 
ENDROOT
BRANCH   1   2
ATOM      2  C   UNL     1       6.384   3.804   1.063  1.00  0.00     0.130 C 
ATOM      3  C   UNL     1       7.250   4.775   0.343  1.00  0.00     0.087 C 
ATOM      4  O   UNL     1       6.189   3.998   2.252  1.00  0.00    -0.300 OA
ENDBRANCH   1   2
BRANCH   1   5
ATOM      5  C   UNL     1       6.177   1.332   1.028  1.00  0.00     0.043 C 
BRANCH   5   6
ATOM      6  C   UNL     1       6.638   0.340   0.039  1.00  0.00    -0.044 A 
ATOM      7  C   UNL     1       6.437   0.525  -1.333  1.00  0.00     0.008 A 
ATOM      8  C   UNL     1       7.285  -0.797   0.465  1.00  0.00     0.054 A 
ATOM      9  C   UNL     1       6.893  -0.439  -2.214  1.00  0.00     0.051 A 
ATOM     10  C   UNL     1       7.745  -1.769  -0.429  1.00  0.00     0.166 A 
ATOM     11  C   UNL     1       7.546  -1.588  -1.780  1.00  0.00     0.165 A 
ATOM     12  O   UNL     1       8.405  -2.967  -0.258  1.00  0.00    -0.454 OA
ATOM     13  O   UNL     1       8.095  -2.690  -2.417  1.00  0.00    -0.454 OA
ATOM     14  C   UNL     1       8.730  -3.545  -1.496  1.00  0.00     0.468 C 
ENDBRANCH   5   6
ENDBRANCH   1   5
TORSDOF 3
ENDMDL
MODEL 5
REMARK VINA RESULT:      -7.4      1.498      1.982
REMARK SMILES CC(=O)CCc1ccc2c(c1)OCO2
REMARK SMILES IDX 4 1 2 2 1 3 3 4 5 5 6 6 7 7 11 8 8 9 10 10 9 11 12 12 14 13
REMARK SMILES IDX 13 14
REMARK H PARENT
REMARK Flexibility Score: inf
ROOT
ATOM      1  C   UNL     1       5.756   1.407  -0.509  1.00  0.00     0.080 C 
ENDROOT
BRANCH   1   2
ATOM      2  C   UNL     1       5.377   2.709   0.106  1.00  0.00     0.130 C 
ATOM      3  C   UNL     1       6.401   3.709   0.511  1.00  0.00     0.087 C 
ATOM      4  O   UNL     1       4.206   2.995   0.297  1.00  0.00    -0.300 OA
ENDBRANCH   1   2
BRANCH   1   5
ATOM      5  C   UNL     1       7.215   1.082  -0.256  1.00  0.00     0.043 C 
BRANCH   5   6
ATOM      6  C   UNL     1       7.598  -0.211  -0.850  1.00  0.00    -0.044 A 
ATOM      7  C   UNL     1       7.683  -0.384  -2.237  1.00  0.00     0.008 A 
ATOM      8  C   UNL     1       7.883  -1.280  -0.032  1.00  0.00     0.054 A 
ATOM      9  C   UNL     1       8.048  -1.620  -2.737  1.00  0.00     0.051 A 
ATOM     10  C   UNL     1       8.253  -2.528  -0.543  1.00  0.00     0.166 A 
ATOM     11  C   UNL     1       8.335  -2.699  -1.907  1.00  0.00     0.165 A 
ATOM     12  O   UNL     1       8.580  -3.727   0.052  1.00  0.00    -0.454 OA
ATOM     13  O   UNL     1       8.717  -4.014  -2.123  1.00  0.00    -0.454 OA
ATOM     14  C   UNL     1       8.971  -4.676  -0.907  1.00  0.00     0.468 C 
ENDBRANCH   5   6
ENDBRANCH   1   5
TORSDOF 3
ENDMDL
