@<TRIPOS>MOLECULE
/home/cewinharhar/GITHUB/reincatalyze/data/processed/docking_pred/2023-May-22-1902_sub9_nm5_bs15_s42_ex16_mel10_mts1000_k50_ec02_g099_lra9e-4_lrc1e-3/db02e8dbba2ca978bde564db4603195d7659b46f_ligand_9.pdbqt
 14 15 0 0 0
SMALL
GASTEIGER

@<TRIPOS>ATOM
      1  C          5.5300    1.9190    1.2480 C.3     1  UNL1        0.0800
      2  C          5.0920    0.7120    2.0040 C.2     1  UNL1        0.1300
      3  C          5.9870   -0.4610    2.1890 C.3     1  UNL1        0.0870
      4  O          3.9770    0.6520    2.4970 O.2     1  UNL1       -0.3000
      5  C          5.3980    1.7090   -0.2470 C.3     1  UNL1        0.0430
      6  C          6.5690    1.0120   -0.8070 C.2     1  UNL1       -0.0440
      7  C          7.8740    1.4500   -0.5540 C.2     1  UNL1        0.0080
      8  C          6.3870   -0.1010   -1.5970 C.2     1  UNL1        0.0540
      9  C          8.9340    0.7550   -1.1060 C.2     1  UNL1        0.0510
     10  C          7.4630   -0.8010   -2.1520 C.2     1  UNL1        0.1660
     11  C          8.7470   -0.3690   -1.9050 C.2     1  UNL1        0.1650
     12  O          7.5420   -1.9160   -2.9580 O.2     1  UNL1       -0.4540
     13  O          9.5970   -1.2380   -2.5700 O.2     1  UNL1       -0.4540
     14  C          8.8790   -2.2870   -3.1760 C.3     1  UNL1        0.4680
@<TRIPOS>BOND
     1    14    12    1
     2    14    13    1
     3    12    10    1
     4    13    11    1
     5    10    11    2
     6    10     8    1
     7    11     9    1
     8     8     6    2
     9     9     7    2
    10     6     7    1
    11     6     5    1
    12     5     1    1
    13     1     2    1
    14     2     3    1
    15     2     4    2
