@<TRIPOS>MOLECULE
/home/cewinharhar/GITHUB/reincatalyze/data/processed/docking_pred/2023-May-22-1902_sub9_nm5_bs15_s42_ex16_mel10_mts1000_k50_ec02_g099_lra9e-4_lrc1e-3/db57195a81496af8cffcd6b4d9524a1fe0637e4f_ligand_9.pdbqt
 14 15 0 0 0
SMALL
GASTEIGER

@<TRIPOS>ATOM
      1  C          5.3640   -0.0630    1.9430 C.3     1  UNL1        0.0800
      2  C          4.5290    1.1470    1.7000 C.2     1  UNL1        0.1300
      3  C          4.9480    2.2060    0.7440 C.3     1  UNL1        0.0870
      4  O          3.4690    1.3040    2.2850 O.2     1  UNL1       -0.3000
      5  C          6.8090    0.1790    1.5550 C.3     1  UNL1        0.0430
      6  C          7.2550   -0.7480    0.5000 C.2     1  UNL1       -0.0440
      7  C          7.1450   -0.4230   -0.8570 C.2     1  UNL1        0.0080
      8  C          7.7950   -1.9660    0.8460 C.2     1  UNL1        0.0540
      9  C          7.5810   -1.3330   -1.8030 C.2     1  UNL1        0.0510
     10  C          8.2340   -2.8830   -0.1140 C.2     1  UNL1        0.1660
     11  C          8.1260   -2.5630   -1.4490 C.2     1  UNL1        0.1650
     12  O          8.7980   -4.1380   -0.0260 O.2     1  UNL1       -0.4540
     13  O          8.6310   -3.6400   -2.1610 O.2     1  UNL1       -0.4540
     14  C          9.1510   -4.6220   -1.2970 C.3     1  UNL1        0.4680
@<TRIPOS>BOND
     1    13    11    1
     2    13    14    1
     3     9    11    2
     4     9     7    1
     5    11    10    1
     6    14    12    1
     7     7     6    2
     8    10    12    1
     9    10     8    2
    10     6     8    1
    11     6     5    1
    12     3     2    1
    13     5     1    1
    14     2     1    1
    15     2     4    2
