@<TRIPOS>MOLECULE
/home/cewinharhar/GITHUB/reincatalyze/data/processed/docking_pred/2023-May-22-1902_sub9_nm5_bs15_s42_ex16_mel10_mts1000_k50_ec02_g099_lra9e-4_lrc1e-3/db57195a81496af8cffcd6b4d9524a1fe0637e4f_ligand_9.pdbqt
 14 15 0 0 0
SMALL
GASTEIGER

@<TRIPOS>ATOM
      1  C          6.1220    0.7600    1.0880 C.3     1  UNL1        0.0800
      2  C          5.0190    1.7550    0.9880 C.2     1  UNL1        0.1300
      3  C          5.0780    2.8950    0.0340 C.3     1  UNL1        0.0870
      4  O          4.0270    1.6640    1.6940 O.2     1  UNL1       -0.3000
      5  C          7.1790    1.0020    0.0280 C.3     1  UNL1        0.0430
      6  C          7.5620   -0.2460   -0.6560 C.2     1  UNL1       -0.0440
      7  C          7.6120   -0.3310   -2.0530 C.2     1  UNL1        0.0080
      8  C          7.8820   -1.3600    0.0850 C.2     1  UNL1        0.0540
      9  C          7.9800   -1.5280   -2.6390 C.2     1  UNL1        0.0510
     10  C          8.2530   -2.5680   -0.5130 C.2     1  UNL1        0.1660
     11  C          8.3020   -2.6530   -1.8860 C.2     1  UNL1        0.1650
     12  O          8.6110   -3.7980   -0.0030 O.2     1  UNL1       -0.4540
     13  O          8.6940   -3.9460   -2.1950 O.2     1  UNL1       -0.4540
     14  C          8.9880   -4.6790   -1.0290 C.3     1  UNL1        0.4680
@<TRIPOS>BOND
     1     9     7    1
     2     9    11    2
     3    13    11    1
     4    13    14    1
     5     7     6    2
     6    11    10    1
     7    14    12    1
     8     6     5    1
     9     6     8    1
    10    10    12    1
    11    10     8    2
    12     5     1    1
    13     3     2    1
    14     2     1    1
    15     2     4    2
