@<TRIPOS>MOLECULE
/home/cewinharhar/GITHUB/reincatalyze/data/processed/docking_pred/2023-May-22-1902_sub9_nm5_bs15_s42_ex16_mel10_mts1000_k50_ec02_g099_lra9e-4_lrc1e-3/db57195a81496af8cffcd6b4d9524a1fe0637e4f_ligand_9.pdbqt
 14 15 0 0 0
SMALL
GASTEIGER

@<TRIPOS>ATOM
      1  C          6.0470    1.6980   -0.4000 C.3     1  UNL1        0.0800
      2  C          5.4100    1.7520    0.9460 C.2     1  UNL1        0.1300
      3  C          4.7470    0.5630    1.5440 C.3     1  UNL1        0.0870
      4  O          5.4140    2.7820    1.6000 O.2     1  UNL1       -0.3000
      5  C          7.5170    1.3440   -0.2990 C.3     1  UNL1        0.0430
      6  C          7.7990    0.0130   -0.8660 C.2     1  UNL1       -0.0440
      7  C          7.8510   -0.1980   -2.2480 C.2     1  UNL1        0.0080
      8  C          8.0200   -1.0540   -0.0250 C.2     1  UNL1        0.0540
      9  C          8.1210   -1.4690   -2.7230 C.2     1  UNL1        0.0510
     10  C          8.2920   -2.3370   -0.5100 C.2     1  UNL1        0.1660
     11  C          8.3430   -2.5460   -1.8710 C.2     1  UNL1        0.1650
     12  O          8.5420   -3.5430    0.1100 O.2     1  UNL1       -0.4540
     13  O          8.6270   -3.8890   -2.0590 O.2     1  UNL1       -0.4540
     14  C          8.8510   -4.5390   -0.8310 C.3     1  UNL1        0.4680
@<TRIPOS>BOND
     1     9     7    1
     2     9    11    2
     3     7     6    2
     4    13    11    1
     5    13    14    1
     6    11    10    1
     7     6     5    1
     8     6     8    1
     9    14    12    1
    10    10     8    2
    11    10    12    1
    12     1     5    1
    13     1     2    1
    14     2     3    1
    15     2     4    2
