@<TRIPOS>MOLECULE
/home/cewinharhar/GITHUB/reincatalyze/data/processed/docking_pred/2023-May-22-1902_sub9_nm5_bs15_s42_ex16_mel10_mts1000_k50_ec02_g099_lra9e-4_lrc1e-3/db57195a81496af8cffcd6b4d9524a1fe0637e4f_ligand_9.pdbqt
 14 15 0 0 0
SMALL
GASTEIGER

@<TRIPOS>ATOM
      1  C          5.5160    2.8550    0.3830 C.3     1  UNL1        0.0800
      2  C          6.3000    3.9100    1.0830 C.2     1  UNL1        0.1300
      3  C          7.2810    4.7630    0.3610 C.3     1  UNL1        0.0870
      4  O          6.1570    4.1060    2.2790 O.2     1  UNL1       -0.3000
      5  C          5.4750    1.5720    1.1900 C.3     1  UNL1        0.0430
      6  C          6.2350    0.4910    0.5370 C.2     1  UNL1       -0.0440
      7  C          6.5010   -0.7170    1.1920 C.2     1  UNL1        0.0080
      8  C          6.6960    0.6610   -0.7480 C.2     1  UNL1        0.0540
      9  C          7.2180   -1.6960    0.5290 C.2     1  UNL1        0.0510
     10  C          7.4200   -0.3320   -1.4150 C.2     1  UNL1        0.1660
     11  C          7.6830   -1.5200   -0.7700 C.2     1  UNL1        0.1650
     12  O          7.9790   -0.4030   -2.6730 O.2     1  UNL1       -0.4540
     13  O          8.4050   -2.3050   -1.6560 O.2     1  UNL1       -0.4540
     14  C          8.5360   -1.6710   -2.9060 C.3     1  UNL1        0.4680
@<TRIPOS>BOND
     1    14    12    1
     2    14    13    1
     3    12    10    1
     4    13    11    1
     5    10    11    2
     6    10     8    1
     7    11     9    1
     8     8     6    2
     9     3     2    1
    10     1     2    1
    11     1     5    1
    12     9     7    2
    13     6     5    1
    14     6     7    1
    15     2     4    2
