MODEL 1
REMARK VINA RESULT:      -7.6      0.000      0.000
REMARK SMILES CC(=O)CCc1ccc2c(c1)OCO2
REMARK SMILES IDX 4 1 2 2 1 3 3 4 5 5 6 6 7 7 11 8 8 9 10 10 9 11 12 12 14 13
REMARK SMILES IDX 13 14
REMARK H PARENT
REMARK Flexibility Score: inf
ROOT
ATOM      1  C   UNL     1       5.364  -0.063   1.943  1.00  0.00     0.080 C 
ENDROOT
BRANCH   1   2
ATOM      2  C   UNL     1       4.529   1.147   1.700  1.00  0.00     0.130 C 
ATOM      3  C   UNL     1       4.948   2.206   0.744  1.00  0.00     0.087 C 
ATOM      4  O   UNL     1       3.469   1.304   2.285  1.00  0.00    -0.300 OA
ENDBRANCH   1   2
BRANCH   1   5
ATOM      5  C   UNL     1       6.809   0.179   1.555  1.00  0.00     0.043 C 
BRANCH   5   6
ATOM      6  C   UNL     1       7.255  -0.748   0.500  1.00  0.00    -0.044 A 
ATOM      7  C   UNL     1       7.145  -0.423  -0.857  1.00  0.00     0.008 A 
ATOM      8  C   UNL     1       7.795  -1.966   0.846  1.00  0.00     0.054 A 
ATOM      9  C   UNL     1       7.581  -1.333  -1.803  1.00  0.00     0.051 A 
ATOM     10  C   UNL     1       8.234  -2.883  -0.114  1.00  0.00     0.166 A 
ATOM     11  C   UNL     1       8.126  -2.563  -1.449  1.00  0.00     0.165 A 
ATOM     12  O   UNL     1       8.798  -4.138  -0.026  1.00  0.00    -0.454 OA
ATOM     13  O   UNL     1       8.631  -3.640  -2.161  1.00  0.00    -0.454 OA
ATOM     14  C   UNL     1       9.151  -4.622  -1.297  1.00  0.00     0.468 C 
ENDBRANCH   5   6
ENDBRANCH   1   5
TORSDOF 3
ENDMDL
MODEL 2
REMARK VINA RESULT:      -7.6      1.986      2.962
REMARK SMILES CC(=O)CCc1ccc2c(c1)OCO2
REMARK SMILES IDX 4 1 2 2 1 3 3 4 5 5 6 6 7 7 11 8 8 9 10 10 9 11 12 12 14 13
REMARK SMILES IDX 13 14
REMARK H PARENT
REMARK Flexibility Score: inf
ROOT
ATOM      1  C   UNL     1       5.516   2.855   0.383  1.00  0.00     0.080 C 
ENDROOT
BRANCH   1   2
ATOM      2  C   UNL     1       6.300   3.910   1.083  1.00  0.00     0.130 C 
ATOM      3  C   UNL     1       7.281   4.763   0.361  1.00  0.00     0.087 C 
ATOM      4  O   UNL     1       6.157   4.106   2.279  1.00  0.00    -0.300 OA
ENDBRANCH   1   2
BRANCH   1   5
ATOM      5  C   UNL     1       5.475   1.572   1.190  1.00  0.00     0.043 C 
BRANCH   5   6
ATOM      6  C   UNL     1       6.235   0.491   0.537  1.00  0.00    -0.044 A 
ATOM      7  C   UNL     1       6.501  -0.717   1.192  1.00  0.00     0.008 A 
ATOM      8  C   UNL     1       6.696   0.661  -0.748  1.00  0.00     0.054 A 
ATOM      9  C   UNL     1       7.218  -1.696   0.529  1.00  0.00     0.051 A 
ATOM     10  C   UNL     1       7.420  -0.332  -1.415  1.00  0.00     0.166 A 
ATOM     11  C   UNL     1       7.683  -1.520  -0.770  1.00  0.00     0.165 A 
ATOM     12  O   UNL     1       7.979  -0.403  -2.673  1.00  0.00    -0.454 OA
ATOM     13  O   UNL     1       8.405  -2.305  -1.656  1.00  0.00    -0.454 OA
ATOM     14  C   UNL     1       8.536  -1.671  -2.906  1.00  0.00     0.468 C 
ENDBRANCH   5   6
ENDBRANCH   1   5
TORSDOF 3
ENDMDL
MODEL 3
REMARK VINA RESULT:      -7.5      1.179      1.590
REMARK SMILES CC(=O)CCc1ccc2c(c1)OCO2
REMARK SMILES IDX 4 1 2 2 1 3 3 4 5 5 6 6 7 7 11 8 8 9 10 10 9 11 12 12 14 13
REMARK SMILES IDX 13 14
REMARK H PARENT
REMARK Flexibility Score: inf
ROOT
ATOM      1  C   UNL     1       6.047   1.698  -0.400  1.00  0.00     0.080 C 
ENDROOT
BRANCH   1   2
ATOM      2  C   UNL     1       5.410   1.752   0.946  1.00  0.00     0.130 C 
ATOM      3  C   UNL     1       4.747   0.563   1.544  1.00  0.00     0.087 C 
ATOM      4  O   UNL     1       5.414   2.782   1.600  1.00  0.00    -0.300 OA
ENDBRANCH   1   2
BRANCH   1   5
ATOM      5  C   UNL     1       7.517   1.344  -0.299  1.00  0.00     0.043 C 
BRANCH   5   6
ATOM      6  C   UNL     1       7.799   0.013  -0.866  1.00  0.00    -0.044 A 
ATOM      7  C   UNL     1       7.851  -0.198  -2.248  1.00  0.00     0.008 A 
ATOM      8  C   UNL     1       8.020  -1.054  -0.025  1.00  0.00     0.054 A 
ATOM      9  C   UNL     1       8.121  -1.469  -2.723  1.00  0.00     0.051 A 
ATOM     10  C   UNL     1       8.292  -2.337  -0.510  1.00  0.00     0.166 A 
ATOM     11  C   UNL     1       8.343  -2.546  -1.871  1.00  0.00     0.165 A 
ATOM     12  O   UNL     1       8.542  -3.543   0.110  1.00  0.00    -0.454 OA
ATOM     13  O   UNL     1       8.627  -3.889  -2.059  1.00  0.00    -0.454 OA
ATOM     14  C   UNL     1       8.851  -4.539  -0.831  1.00  0.00     0.468 C 
ENDBRANCH   5   6
ENDBRANCH   1   5
TORSDOF 3
ENDMDL
MODEL 4
REMARK VINA RESULT:      -7.5      1.293      1.679
REMARK SMILES CC(=O)CCc1ccc2c(c1)OCO2
REMARK SMILES IDX 4 1 2 2 1 3 3 4 5 5 6 6 7 7 11 8 8 9 10 10 9 11 12 12 14 13
REMARK SMILES IDX 13 14
REMARK H PARENT
REMARK Flexibility Score: inf
ROOT
ATOM      1  C   UNL     1       4.935  -0.189   1.722  1.00  0.00     0.080 C 
ENDROOT
BRANCH   1   2
ATOM      2  C   UNL     1       4.195   1.104   1.741  1.00  0.00     0.130 C 
ATOM      3  C   UNL     1       4.565   2.229   0.840  1.00  0.00     0.087 C 
ATOM      4  O   UNL     1       3.257   1.278   2.501  1.00  0.00    -0.300 OA
ENDBRANCH   1   2
BRANCH   1   5
ATOM      5  C   UNL     1       6.422   0.025   1.925  1.00  0.00     0.043 C 
BRANCH   5   6
ATOM      6  C   UNL     1       7.174  -0.138   0.667  1.00  0.00    -0.044 A 
ATOM      7  C   UNL     1       7.805   0.945   0.045  1.00  0.00     0.008 A 
ATOM      8  C   UNL     1       7.265  -1.381   0.084  1.00  0.00     0.054 A 
ATOM      9  C   UNL     1       8.497   0.732  -1.133  1.00  0.00     0.051 A 
ATOM     10  C   UNL     1       7.966  -1.591  -1.107  1.00  0.00     0.166 A 
ATOM     11  C   UNL     1       8.587  -0.526  -1.721  1.00  0.00     0.165 A 
ATOM     12  O   UNL     1       8.199  -2.713  -1.875  1.00  0.00    -0.454 OA
ATOM     13  O   UNL     1       9.196  -1.021  -2.864  1.00  0.00    -0.454 OA
ATOM     14  C   UNL     1       9.051  -2.418  -2.952  1.00  0.00     0.468 C 
ENDBRANCH   5   6
ENDBRANCH   1   5
TORSDOF 3
ENDMDL
MODEL 5
REMARK VINA RESULT:      -7.5      0.840      1.002
REMARK SMILES CC(=O)CCc1ccc2c(c1)OCO2
REMARK SMILES IDX 4 1 2 2 1 3 3 4 5 5 6 6 7 7 11 8 8 9 10 10 9 11 12 12 14 13
REMARK SMILES IDX 13 14
REMARK H PARENT
REMARK Flexibility Score: inf
ROOT
ATOM      1  C   UNL     1       6.122   0.760   1.088  1.00  0.00     0.080 C 
ENDROOT
BRANCH   1   2
ATOM      2  C   UNL     1       5.019   1.755   0.988  1.00  0.00     0.130 C 
ATOM      3  C   UNL     1       5.078   2.895   0.034  1.00  0.00     0.087 C 
ATOM      4  O   UNL     1       4.027   1.664   1.694  1.00  0.00    -0.300 OA
ENDBRANCH   1   2
BRANCH   1   5
ATOM      5  C   UNL     1       7.179   1.002   0.028  1.00  0.00     0.043 C 
BRANCH   5   6
ATOM      6  C   UNL     1       7.562  -0.246  -0.656  1.00  0.00    -0.044 A 
ATOM      7  C   UNL     1       7.612  -0.331  -2.053  1.00  0.00     0.008 A 
ATOM      8  C   UNL     1       7.882  -1.360   0.085  1.00  0.00     0.054 A 
ATOM      9  C   UNL     1       7.980  -1.528  -2.639  1.00  0.00     0.051 A 
ATOM     10  C   UNL     1       8.253  -2.568  -0.513  1.00  0.00     0.166 A 
ATOM     11  C   UNL     1       8.302  -2.653  -1.886  1.00  0.00     0.165 A 
ATOM     12  O   UNL     1       8.611  -3.798  -0.003  1.00  0.00    -0.454 OA
ATOM     13  O   UNL     1       8.694  -3.946  -2.195  1.00  0.00    -0.454 OA
ATOM     14  C   UNL     1       8.988  -4.679  -1.029  1.00  0.00     0.468 C 
ENDBRANCH   5   6
ENDBRANCH   1   5
TORSDOF 3
ENDMDL
