@<TRIPOS>MOLECULE
/home/cewinharhar/GITHUB/reincatalyze/data/processed/docking_pred/2023-May-22-1902_sub9_nm5_bs15_s42_ex16_mel10_mts1000_k50_ec02_g099_lra9e-4_lrc1e-3/dba3942d2f0306a5a819952336ad453bb769fd78_ligand_9.pdbqt
 14 15 0 0 0
SMALL
GASTEIGER

@<TRIPOS>ATOM
      1  C          5.7460    1.3770   -0.3870 C.3     1  UNL1        0.0800
      2  C          5.0460    1.3240    0.9260 C.2     1  UNL1        0.1300
      3  C          5.2890    0.2220    1.8960 C.3     1  UNL1        0.0870
      4  O          4.2470    2.1880    1.2460 O.2     1  UNL1       -0.3000
      5  C          7.2280    1.0960   -0.2330 C.3     1  UNL1        0.0430
      6  C          7.6060   -0.1910   -0.8430 C.2     1  UNL1       -0.0440
      7  C          7.6840   -0.3500   -2.2310 C.2     1  UNL1        0.0080
      8  C          7.8940   -1.2690   -0.0370 C.2     1  UNL1        0.0540
      9  C          8.0450   -1.5820   -2.7460 C.2     1  UNL1        0.0510
     10  C          8.2590   -2.5120   -0.5630 C.2     1  UNL1        0.1660
     11  C          8.3350   -2.6700   -1.9290 C.2     1  UNL1        0.1650
     12  O          8.5880   -3.7190    0.0180 O.2     1  UNL1       -0.4540
     13  O          8.7130   -3.9830   -2.1600 O.2     1  UNL1       -0.4540
     14  C          8.9730   -4.6580   -0.9530 C.3     1  UNL1        0.4680
@<TRIPOS>BOND
     1     9     7    1
     2     9    11    2
     3     7     6    2
     4    13    11    1
     5    13    14    1
     6    11    10    1
     7    14    12    1
     8     6     5    1
     9     6     8    1
    10    10     8    2
    11    10    12    1
    12     1     5    1
    13     1     2    1
    14     2     4    2
    15     2     3    1
