MODEL 1
REMARK VINA RESULT:      -7.9      0.000      0.000
REMARK SMILES CC(=O)CCc1ccc2c(c1)OCO2
REMARK SMILES IDX 4 1 2 2 1 3 3 4 5 5 6 6 7 7 11 8 8 9 10 10 9 11 12 12 14 13
REMARK SMILES IDX 13 14
REMARK H PARENT
REMARK Flexibility Score: inf
ROOT
ATOM      1  C   UNL     1       5.407   2.947   0.073  1.00  0.00     0.080 C 
ENDROOT
BRANCH   1   2
ATOM      2  C   UNL     1       6.273   3.812   0.921  1.00  0.00     0.130 C 
ATOM      3  C   UNL     1       7.238   4.774   0.325  1.00  0.00     0.087 C 
ATOM      4  O   UNL     1       6.215   3.756   2.139  1.00  0.00    -0.300 OA
ENDBRANCH   1   2
BRANCH   1   5
ATOM      5  C   UNL     1       5.084   1.640   0.770  1.00  0.00     0.043 C 
BRANCH   5   6
ATOM      6  C   UNL     1       5.913   0.532   0.264  1.00  0.00    -0.044 A 
ATOM      7  C   UNL     1       6.194  -0.591   1.051  1.00  0.00     0.008 A 
ATOM      8  C   UNL     1       6.427   0.591  -1.011  1.00  0.00     0.054 A 
ATOM      9  C   UNL     1       6.978  -1.601   0.523  1.00  0.00     0.051 A 
ATOM     10  C   UNL     1       7.218  -0.433  -1.541  1.00  0.00     0.166 A 
ATOM     11  C   UNL     1       7.496  -1.538  -0.767  1.00  0.00     0.165 A 
ATOM     12  O   UNL     1       7.837  -0.607  -2.760  1.00  0.00    -0.454 OA
ATOM     13  O   UNL     1       8.288  -2.376  -1.536  1.00  0.00    -0.454 OA
ATOM     14  C   UNL     1       8.453  -1.867  -2.838  1.00  0.00     0.468 C 
ENDBRANCH   5   6
ENDBRANCH   1   5
TORSDOF 3
ENDMDL
MODEL 2
REMARK VINA RESULT:      -7.8      0.985      1.967
REMARK SMILES CC(=O)CCc1ccc2c(c1)OCO2
REMARK SMILES IDX 4 1 2 2 1 3 3 4 5 5 6 6 7 7 11 8 8 9 10 10 9 11 12 12 14 13
REMARK SMILES IDX 13 14
REMARK H PARENT
REMARK Flexibility Score: inf
ROOT
ATOM      1  C   UNL     1       5.340   2.943   0.120  1.00  0.00     0.080 C 
ENDROOT
BRANCH   1   2
ATOM      2  C   UNL     1       6.241   3.782   0.959  1.00  0.00     0.130 C 
ATOM      3  C   UNL     1       7.182   4.762   0.355  1.00  0.00     0.087 C 
ATOM      4  O   UNL     1       6.233   3.686   2.176  1.00  0.00    -0.300 OA
ENDBRANCH   1   2
BRANCH   1   5
ATOM      5  C   UNL     1       5.067   1.603   0.774  1.00  0.00     0.043 C 
BRANCH   5   6
ATOM      6  C   UNL     1       5.922   0.540   0.218  1.00  0.00    -0.044 A 
ATOM      7  C   UNL     1       6.290   0.526  -1.133  1.00  0.00     0.008 A 
ATOM      8  C   UNL     1       6.378  -0.468   1.037  1.00  0.00     0.054 A 
ATOM      9  C   UNL     1       7.096  -0.498  -1.598  1.00  0.00     0.051 A 
ATOM     10  C   UNL     1       7.193  -1.500   0.562  1.00  0.00     0.166 A 
ATOM     11  C   UNL     1       7.554  -1.515  -0.767  1.00  0.00     0.165 A 
ATOM     12  O   UNL     1       7.765  -2.599   1.166  1.00  0.00    -0.454 OA
ATOM     13  O   UNL     1       8.350  -2.634  -0.953  1.00  0.00    -0.454 OA
ATOM     14  C   UNL     1       8.585  -3.299   0.266  1.00  0.00     0.468 C 
ENDBRANCH   5   6
ENDBRANCH   1   5
TORSDOF 3
ENDMDL
MODEL 3
REMARK VINA RESULT:      -7.6      1.885      2.643
REMARK SMILES CC(=O)CCc1ccc2c(c1)OCO2
REMARK SMILES IDX 4 1 2 2 1 3 3 4 5 5 6 6 7 7 11 8 8 9 10 10 9 11 12 12 14 13
REMARK SMILES IDX 13 14
REMARK H PARENT
REMARK Flexibility Score: inf
ROOT
ATOM      1  C   UNL     1       5.498   1.932   1.262  1.00  0.00     0.080 C 
ENDROOT
BRANCH   1   2
ATOM      2  C   UNL     1       5.050   0.712   1.991  1.00  0.00     0.130 C 
ATOM      3  C   UNL     1       5.938  -0.470   2.153  1.00  0.00     0.087 C 
ATOM      4  O   UNL     1       3.933   0.648   2.479  1.00  0.00    -0.300 OA
ENDBRANCH   1   2
BRANCH   1   5
ATOM      5  C   UNL     1       5.383   1.750  -0.238  1.00  0.00     0.043 C 
BRANCH   5   6
ATOM      6  C   UNL     1       6.548   1.038  -0.793  1.00  0.00    -0.044 A 
ATOM      7  C   UNL     1       7.857   1.450  -0.518  1.00  0.00     0.008 A 
ATOM      8  C   UNL     1       6.356  -0.061  -1.599  1.00  0.00     0.054 A 
ATOM      9  C   UNL     1       8.912   0.742  -1.066  1.00  0.00     0.051 A 
ATOM     10  C   UNL     1       7.425  -0.773  -2.150  1.00  0.00     0.166 A 
ATOM     11  C   UNL     1       8.714  -0.368  -1.882  1.00  0.00     0.165 A 
ATOM     12  O   UNL     1       7.495  -1.880  -2.969  1.00  0.00    -0.454 OA
ATOM     13  O   UNL     1       9.557  -1.244  -2.548  1.00  0.00    -0.454 OA
ATOM     14  C   UNL     1       8.828  -2.272  -3.176  1.00  0.00     0.468 C 
ENDBRANCH   5   6
ENDBRANCH   1   5
TORSDOF 3
ENDMDL
MODEL 4
REMARK VINA RESULT:      -7.6      1.136      1.591
REMARK SMILES CC(=O)CCc1ccc2c(c1)OCO2
REMARK SMILES IDX 4 1 2 2 1 3 3 4 5 5 6 6 7 7 11 8 8 9 10 10 9 11 12 12 14 13
REMARK SMILES IDX 13 14
REMARK H PARENT
REMARK Flexibility Score: inf
ROOT
ATOM      1  C   UNL     1       5.403   2.819   0.069  1.00  0.00     0.080 C 
ENDROOT
BRANCH   1   2
ATOM      2  C   UNL     1       6.218   3.732   0.918  1.00  0.00     0.130 C 
ATOM      3  C   UNL     1       7.125   4.750   0.323  1.00  0.00     0.087 C 
ATOM      4  O   UNL     1       6.164   3.670   2.136  1.00  0.00    -0.300 OA
ENDBRANCH   1   2
BRANCH   1   5
ATOM      5  C   UNL     1       5.623   1.369   0.451  1.00  0.00     0.043 C 
BRANCH   5   6
ATOM      6  C   UNL     1       6.716   0.759  -0.327  1.00  0.00    -0.044 A 
ATOM      7  C   UNL     1       7.978   1.357  -0.411  1.00  0.00     0.008 A 
ATOM      8  C   UNL     1       6.501  -0.429  -0.989  1.00  0.00     0.054 A 
ATOM      9  C   UNL     1       8.966   0.737  -1.156  1.00  0.00     0.051 A 
ATOM     10  C   UNL     1       7.503  -1.051  -1.740  1.00  0.00     0.166 A 
ATOM     11  C   UNL     1       8.745  -0.463  -1.824  1.00  0.00     0.165 A 
ATOM     12  O   UNL     1       7.538  -2.215  -2.478  1.00  0.00    -0.454 OA
ATOM     13  O   UNL     1       9.526  -1.287  -2.620  1.00  0.00    -0.454 OA
ATOM     14  C   UNL     1       8.827  -2.454  -2.981  1.00  0.00     0.468 C 
ENDBRANCH   5   6
ENDBRANCH   1   5
TORSDOF 3
ENDMDL
MODEL 5
REMARK VINA RESULT:      -7.5      1.983      3.035
REMARK SMILES CC(=O)CCc1ccc2c(c1)OCO2
REMARK SMILES IDX 4 1 2 2 1 3 3 4 5 5 6 6 7 7 11 8 8 9 10 10 9 11 12 12 14 13
REMARK SMILES IDX 13 14
REMARK H PARENT
REMARK Flexibility Score: inf
ROOT
ATOM      1  C   UNL     1       5.746   1.377  -0.387  1.00  0.00     0.080 C 
ENDROOT
BRANCH   1   2
ATOM      2  C   UNL     1       5.046   1.324   0.926  1.00  0.00     0.130 C 
ATOM      3  C   UNL     1       5.289   0.222   1.896  1.00  0.00     0.087 C 
ATOM      4  O   UNL     1       4.247   2.188   1.246  1.00  0.00    -0.300 OA
ENDBRANCH   1   2
BRANCH   1   5
ATOM      5  C   UNL     1       7.228   1.096  -0.233  1.00  0.00     0.043 C 
BRANCH   5   6
ATOM      6  C   UNL     1       7.606  -0.191  -0.843  1.00  0.00    -0.044 A 
ATOM      7  C   UNL     1       7.684  -0.350  -2.231  1.00  0.00     0.008 A 
ATOM      8  C   UNL     1       7.894  -1.269  -0.037  1.00  0.00     0.054 A 
ATOM      9  C   UNL     1       8.045  -1.582  -2.746  1.00  0.00     0.051 A 
ATOM     10  C   UNL     1       8.259  -2.512  -0.563  1.00  0.00     0.166 A 
ATOM     11  C   UNL     1       8.335  -2.670  -1.929  1.00  0.00     0.165 A 
ATOM     12  O   UNL     1       8.588  -3.719   0.018  1.00  0.00    -0.454 OA
ATOM     13  O   UNL     1       8.713  -3.983  -2.160  1.00  0.00    -0.454 OA
ATOM     14  C   UNL     1       8.973  -4.658  -0.953  1.00  0.00     0.468 C 
ENDBRANCH   5   6
ENDBRANCH   1   5
TORSDOF 3
ENDMDL
