@<TRIPOS>MOLECULE
/home/cewinharhar/GITHUB/reincatalyze/data/processed/docking_pred/2023-May-22-1902_sub9_nm5_bs15_s42_ex16_mel10_mts1000_k50_ec02_g099_lra9e-4_lrc1e-3/dba3942d2f0306a5a819952336ad453bb769fd78_ligand_9.pdbqt
 14 15 0 0 0
SMALL
GASTEIGER

@<TRIPOS>ATOM
      1  C          5.3400    2.9430    0.1200 C.3     1  UNL1        0.0800
      2  C          6.2410    3.7820    0.9590 C.2     1  UNL1        0.1300
      3  C          7.1820    4.7620    0.3550 C.3     1  UNL1        0.0870
      4  O          6.2330    3.6860    2.1760 O.2     1  UNL1       -0.3000
      5  C          5.0670    1.6030    0.7740 C.3     1  UNL1        0.0430
      6  C          5.9220    0.5400    0.2180 C.2     1  UNL1       -0.0440
      7  C          6.2900    0.5260   -1.1330 C.2     1  UNL1        0.0080
      8  C          6.3780   -0.4680    1.0370 C.2     1  UNL1        0.0540
      9  C          7.0960   -0.4980   -1.5980 C.2     1  UNL1        0.0510
     10  C          7.1930   -1.5000    0.5620 C.2     1  UNL1        0.1660
     11  C          7.5540   -1.5150   -0.7670 C.2     1  UNL1        0.1650
     12  O          7.7650   -2.5990    1.1660 O.2     1  UNL1       -0.4540
     13  O          8.3500   -2.6340   -0.9530 O.2     1  UNL1       -0.4540
     14  C          8.5850   -3.2990    0.2660 C.3     1  UNL1        0.4680
@<TRIPOS>BOND
     1     9     7    1
     2     9    11    2
     3     7     6    2
     4    13    11    1
     5    13    14    1
     6    11    10    1
     7     1     5    1
     8     1     2    1
     9     6     5    1
    10     6     8    1
    11    14    12    1
    12     3     2    1
    13    10     8    2
    14    10    12    1
    15     2     4    2
