MODEL 1
REMARK VINA RESULT:      -7.5      0.000      0.000
REMARK SMILES CC(=O)CCc1ccc2c(c1)OCO2
REMARK SMILES IDX 4 1 2 2 1 3 3 4 5 5 6 6 7 7 11 8 8 9 10 10 9 11 12 12 14 13
REMARK SMILES IDX 13 14
REMARK H PARENT
REMARK Flexibility Score: inf
ROOT
ATOM      1  C   UNL     1       5.705   3.117   0.175  1.00  0.00     0.080 C 
ENDROOT
BRANCH   1   2
ATOM      2  C   UNL     1       6.540   3.726   1.247  1.00  0.00     0.130 C 
ATOM      3  C   UNL     1       8.004   3.478   1.332  1.00  0.00     0.087 C 
ATOM      4  O   UNL     1       6.043   4.450   2.094  1.00  0.00    -0.300 OA
ENDBRANCH   1   2
BRANCH   1   5
ATOM      5  C   UNL     1       5.110   1.797   0.623  1.00  0.00     0.043 C 
BRANCH   5   6
ATOM      6  C   UNL     1       5.931   0.652   0.191  1.00  0.00    -0.044 A 
ATOM      7  C   UNL     1       6.240  -0.399   1.062  1.00  0.00     0.008 A 
ATOM      8  C   UNL     1       6.409   0.604  -1.099  1.00  0.00     0.054 A 
ATOM      9  C   UNL     1       7.015  -1.447   0.600  1.00  0.00     0.051 A 
ATOM     10  C   UNL     1       7.192  -0.459  -1.561  1.00  0.00     0.166 A 
ATOM     11  C   UNL     1       7.497  -1.492  -0.704  1.00  0.00     0.165 A 
ATOM     12  O   UNL     1       7.778  -0.734  -2.778  1.00  0.00    -0.454 OA
ATOM     13  O   UNL     1       8.272  -2.391  -1.420  1.00  0.00    -0.454 OA
ATOM     14  C   UNL     1       8.399  -1.994  -2.765  1.00  0.00     0.468 C 
ENDBRANCH   5   6
ENDBRANCH   1   5
TORSDOF 3
ENDMDL
MODEL 2
REMARK VINA RESULT:      -7.4      0.967      1.958
REMARK SMILES CC(=O)CCc1ccc2c(c1)OCO2
REMARK SMILES IDX 4 1 2 2 1 3 3 4 5 5 6 6 7 7 11 8 8 9 10 10 9 11 12 12 14 13
REMARK SMILES IDX 13 14
REMARK H PARENT
REMARK Flexibility Score: inf
ROOT
ATOM      1  C   UNL     1       5.743   3.156   0.213  1.00  0.00     0.080 C 
ENDROOT
BRANCH   1   2
ATOM      2  C   UNL     1       6.621   3.630   1.319  1.00  0.00     0.130 C 
ATOM      3  C   UNL     1       8.087   3.380   1.314  1.00  0.00     0.087 C 
ATOM      4  O   UNL     1       6.158   4.242   2.268  1.00  0.00    -0.300 OA
ENDBRANCH   1   2
BRANCH   1   5
ATOM      5  C   UNL     1       5.123   1.811   0.540  1.00  0.00     0.043 C 
BRANCH   5   6
ATOM      6  C   UNL     1       5.959   0.694   0.063  1.00  0.00    -0.044 A 
ATOM      7  C   UNL     1       6.372   0.606  -1.271  1.00  0.00     0.008 A 
ATOM      8  C   UNL     1       6.349  -0.289   0.943  1.00  0.00     0.054 A 
ATOM      9  C   UNL     1       7.156  -0.465  -1.661  1.00  0.00     0.051 A 
ATOM     10  C   UNL     1       7.142  -1.370   0.544  1.00  0.00     0.166 A 
ATOM     11  C   UNL     1       7.548  -1.458  -0.769  1.00  0.00     0.165 A 
ATOM     12  O   UNL     1       7.654  -2.459   1.216  1.00  0.00    -0.454 OA
ATOM     13  O   UNL     1       8.310  -2.611  -0.876  1.00  0.00    -0.454 OA
ATOM     14  C   UNL     1       8.478  -3.228   0.378  1.00  0.00     0.468 C 
ENDBRANCH   5   6
ENDBRANCH   1   5
TORSDOF 3
ENDMDL
MODEL 3
REMARK VINA RESULT:      -7.4      1.390      1.730
REMARK SMILES CC(=O)CCc1ccc2c(c1)OCO2
REMARK SMILES IDX 4 1 2 2 1 3 3 4 5 5 6 6 7 7 11 8 8 9 10 10 9 11 12 12 14 13
REMARK SMILES IDX 13 14
REMARK H PARENT
REMARK Flexibility Score: inf
ROOT
ATOM      1  C   UNL     1       6.236   3.510   0.113  1.00  0.00     0.080 C 
ENDROOT
BRANCH   1   2
ATOM      2  C   UNL     1       6.676   3.886   1.485  1.00  0.00     0.130 C 
ATOM      3  C   UNL     1       8.018   3.513   2.005  1.00  0.00     0.087 C 
ATOM      4  O   UNL     1       5.940   4.515   2.228  1.00  0.00    -0.300 OA
ENDBRANCH   1   2
BRANCH   1   5
ATOM      5  C   UNL     1       5.160   2.443   0.152  1.00  0.00     0.043 C 
BRANCH   5   6
ATOM      6  C   UNL     1       5.699   1.138   0.575  1.00  0.00    -0.044 A 
ATOM      7  C   UNL     1       5.267   0.512   1.749  1.00  0.00     0.008 A 
ATOM      8  C   UNL     1       6.649   0.510  -0.198  1.00  0.00     0.054 A 
ATOM      9  C   UNL     1       5.808  -0.713   2.095  1.00  0.00     0.051 A 
ATOM     10  C   UNL     1       7.193  -0.729   0.156  1.00  0.00     0.166 A 
ATOM     11  C   UNL     1       6.768  -1.345   1.312  1.00  0.00     0.165 A 
ATOM     12  O   UNL     1       8.135  -1.545  -0.434  1.00  0.00    -0.454 OA
ATOM     13  O   UNL     1       7.465  -2.539   1.409  1.00  0.00    -0.454 OA
ATOM     14  C   UNL     1       8.275  -2.748   0.276  1.00  0.00     0.468 C 
ENDBRANCH   5   6
ENDBRANCH   1   5
TORSDOF 3
ENDMDL
MODEL 4
REMARK VINA RESULT:      -7.2      1.521      5.309
REMARK SMILES CC(=O)CCc1ccc2c(c1)OCO2
REMARK SMILES IDX 4 1 2 2 1 3 3 4 5 5 6 6 7 7 11 8 8 9 10 10 9 11 12 12 14 13
REMARK SMILES IDX 13 14
REMARK H PARENT
REMARK Flexibility Score: inf
ROOT
ATOM      1  C   UNL     1       7.079  -1.400  -0.910  1.00  0.00     0.080 C 
ENDROOT
BRANCH   1   2
ATOM      2  C   UNL     1       7.643  -1.664   0.443  1.00  0.00     0.130 C 
ATOM      3  C   UNL     1       6.773  -1.770   1.645  1.00  0.00     0.087 C 
ATOM      4  O   UNL     1       8.845  -1.801   0.606  1.00  0.00    -0.300 OA
ENDBRANCH   1   2
BRANCH   1   5
ATOM      5  C   UNL     1       7.533  -0.055  -1.442  1.00  0.00     0.043 C 
BRANCH   5   6
ATOM      6  C   UNL     1       7.008   1.059  -0.632  1.00  0.00    -0.044 A 
ATOM      7  C   UNL     1       5.641   1.353  -0.588  1.00  0.00     0.008 A 
ATOM      8  C   UNL     1       7.875   1.834   0.104  1.00  0.00     0.054 A 
ATOM      9  C   UNL     1       5.206   2.410   0.190  1.00  0.00     0.051 A 
ATOM     10  C   UNL     1       7.431   2.902   0.890  1.00  0.00     0.166 A 
ATOM     11  C   UNL     1       6.085   3.192   0.933  1.00  0.00     0.165 A 
ATOM     12  O   UNL     1       8.082   3.808   1.699  1.00  0.00    -0.454 OA
ATOM     13  O   UNL     1       5.937   4.281   1.778  1.00  0.00    -0.454 OA
ATOM     14  C   UNL     1       7.167   4.646   2.356  1.00  0.00     0.468 C 
ENDBRANCH   5   6
ENDBRANCH   1   5
TORSDOF 3
ENDMDL
MODEL 5
REMARK VINA RESULT:      -7.1      3.271      4.268
REMARK SMILES CC(=O)CCc1ccc2c(c1)OCO2
REMARK SMILES IDX 4 1 2 2 1 3 3 4 5 5 6 6 7 7 11 8 8 9 10 10 9 11 12 12 14 13
REMARK SMILES IDX 13 14
REMARK H PARENT
REMARK Flexibility Score: inf
ROOT
ATOM      1  C   UNL     1       5.373   1.552   0.602  1.00  0.00     0.080 C 
ENDROOT
BRANCH   1   2
ATOM      2  C   UNL     1       5.086   0.571   1.685  1.00  0.00     0.130 C 
ATOM      3  C   UNL     1       5.826  -0.715   1.789  1.00  0.00     0.087 C 
ATOM      4  O   UNL     1       4.228   0.795   2.523  1.00  0.00    -0.300 OA
ENDBRANCH   1   2
BRANCH   1   5
ATOM      5  C   UNL     1       6.471   2.515   1.009  1.00  0.00     0.043 C 
BRANCH   5   6
ATOM      6  C   UNL     1       7.803   1.890   0.928  1.00  0.00    -0.044 A 
ATOM      7  C   UNL     1       8.291   1.355  -0.270  1.00  0.00     0.008 A 
ATOM      8  C   UNL     1       8.596   1.826   2.051  1.00  0.00     0.054 A 
ATOM      9  C   UNL     1       9.549   0.782  -0.286  1.00  0.00     0.051 A 
ATOM     10  C   UNL     1       9.868   1.246   2.030  1.00  0.00     0.166 A 
ATOM     11  C   UNL     1      10.348   0.719   0.852  1.00  0.00     0.165 A 
ATOM     12  O   UNL     1      10.834   1.063   2.997  1.00  0.00    -0.454 OA
ATOM     13  O   UNL     1      11.612   0.219   1.122  1.00  0.00    -0.454 OA
ATOM     14  C   UNL     1      11.996   0.497   2.448  1.00  0.00     0.468 C 
ENDBRANCH   5   6
ENDBRANCH   1   5
TORSDOF 3
ENDMDL
