@<TRIPOS>MOLECULE
/home/cewinharhar/GITHUB/reincatalyze/data/processed/docking_pred/2023-May-22-1902_sub9_nm5_bs15_s42_ex16_mel10_mts1000_k50_ec02_g099_lra9e-4_lrc1e-3/dca47ac415302ce9f1313af6aebf6be1e2794cfe_ligand_9.pdbqt
 14 15 0 0 0
SMALL
GASTEIGER

@<TRIPOS>ATOM
      1  C          5.7050    3.1170    0.1750 C.3     1  UNL1        0.0800
      2  C          6.5400    3.7260    1.2470 C.2     1  UNL1        0.1300
      3  C          8.0040    3.4780    1.3320 C.3     1  UNL1        0.0870
      4  O          6.0430    4.4500    2.0940 O.2     1  UNL1       -0.3000
      5  C          5.1100    1.7970    0.6230 C.3     1  UNL1        0.0430
      6  C          5.9310    0.6520    0.1910 C.2     1  UNL1       -0.0440
      7  C          6.2400   -0.3990    1.0620 C.2     1  UNL1        0.0080
      8  C          6.4090    0.6040   -1.0990 C.2     1  UNL1        0.0540
      9  C          7.0150   -1.4470    0.6000 C.2     1  UNL1        0.0510
     10  C          7.1920   -0.4590   -1.5610 C.2     1  UNL1        0.1660
     11  C          7.4970   -1.4920   -0.7040 C.2     1  UNL1        0.1650
     12  O          7.7780   -0.7340   -2.7780 O.2     1  UNL1       -0.4540
     13  O          8.2720   -2.3910   -1.4200 O.2     1  UNL1       -0.4540
     14  C          8.3990   -1.9940   -2.7650 C.3     1  UNL1        0.4680
@<TRIPOS>BOND
     1    12    14    1
     2    12    10    1
     3    14    13    1
     4    10     8    1
     5    10    11    2
     6    13    11    1
     7     8     6    2
     8    11     9    1
     9     1     5    1
    10     1     2    1
    11     6     5    1
    12     6     7    1
    13     9     7    2
    14     2     3    1
    15     2     4    2
