@<TRIPOS>MOLECULE
/home/cewinharhar/GITHUB/reincatalyze/data/processed/docking_pred/2023-May-22-1902_sub9_nm5_bs15_s42_ex16_mel10_mts1000_k50_ec02_g099_lra9e-4_lrc1e-3/dca47ac415302ce9f1313af6aebf6be1e2794cfe_ligand_9.pdbqt
 14 15 0 0 0
SMALL
GASTEIGER

@<TRIPOS>ATOM
      1  C          5.7430    3.1560    0.2130 C.3     1  UNL1        0.0800
      2  C          6.6210    3.6300    1.3190 C.2     1  UNL1        0.1300
      3  C          8.0870    3.3800    1.3140 C.3     1  UNL1        0.0870
      4  O          6.1580    4.2420    2.2680 O.2     1  UNL1       -0.3000
      5  C          5.1230    1.8110    0.5400 C.3     1  UNL1        0.0430
      6  C          5.9590    0.6940    0.0630 C.2     1  UNL1       -0.0440
      7  C          6.3720    0.6060   -1.2710 C.2     1  UNL1        0.0080
      8  C          6.3490   -0.2890    0.9430 C.2     1  UNL1        0.0540
      9  C          7.1560   -0.4650   -1.6610 C.2     1  UNL1        0.0510
     10  C          7.1420   -1.3700    0.5440 C.2     1  UNL1        0.1660
     11  C          7.5480   -1.4580   -0.7690 C.2     1  UNL1        0.1650
     12  O          7.6540   -2.4590    1.2160 O.2     1  UNL1       -0.4540
     13  O          8.3100   -2.6110   -0.8760 O.2     1  UNL1       -0.4540
     14  C          8.4780   -3.2280    0.3780 C.3     1  UNL1        0.4680
@<TRIPOS>BOND
     1     9     7    1
     2     9    11    2
     3     7     6    2
     4    13    11    1
     5    13    14    1
     6    11    10    1
     7     6     5    1
     8     6     8    1
     9     1     5    1
    10     1     2    1
    11    14    12    1
    12    10     8    2
    13    10    12    1
    14     3     2    1
    15     2     4    2
