@<TRIPOS>MOLECULE
/home/cewinharhar/GITHUB/reincatalyze/data/processed/docking_pred/2023-May-22-1902_sub9_nm5_bs15_s42_ex16_mel10_mts1000_k50_ec02_g099_lra9e-4_lrc1e-3/dcca543849eb83a4cf97fda16a0578d2b97a91da_ligand_9.pdbqt
 14 15 0 0 0
SMALL
GASTEIGER

@<TRIPOS>ATOM
      1  C          5.5570    1.9150    1.2910 C.3     1  UNL1        0.0800
      2  C          5.1150    0.6940    2.0190 C.2     1  UNL1        0.1300
      3  C          6.0120   -0.4800    2.1930 C.3     1  UNL1        0.0870
      4  O          3.9940    0.6200    2.4980 O.2     1  UNL1       -0.3000
      5  C          5.4240    1.7400   -0.2090 C.3     1  UNL1        0.0430
      6  C          6.5840    1.0340   -0.7820 C.2     1  UNL1       -0.0440
      7  C          7.8950    1.4620   -0.5400 C.2     1  UNL1        0.0080
      8  C          6.3860   -0.0740   -1.5730 C.2     1  UNL1        0.0540
      9  C          8.9440    0.7590   -1.1030 C.2     1  UNL1        0.0510
     10  C          7.4500   -0.7820   -2.1390 C.2     1  UNL1        0.1660
     11  C          8.7400   -0.3610   -1.9030 C.2     1  UNL1        0.1650
     12  O          7.5130   -1.8960   -2.9490 O.2     1  UNL1       -0.4540
     13  O          9.5770   -1.2360   -2.5780 O.2     1  UNL1       -0.4540
     14  C          8.8450   -2.2770   -3.1800 C.3     1  UNL1        0.4680
@<TRIPOS>BOND
     1    14    12    1
     2    14    13    1
     3    12    10    1
     4    13    11    1
     5    10    11    2
     6    10     8    1
     7    11     9    1
     8     8     6    2
     9     9     7    2
    10     6     7    1
    11     6     5    1
    12     5     1    1
    13     1     2    1
    14     2     3    1
    15     2     4    2
