@<TRIPOS>MOLECULE
/home/cewinharhar/GITHUB/reincatalyze/data/processed/docking_pred/2023-May-22-1902_sub9_nm5_bs15_s42_ex16_mel10_mts1000_k50_ec02_g099_lra9e-4_lrc1e-3/dcca543849eb83a4cf97fda16a0578d2b97a91da_ligand_9.pdbqt
 14 15 0 0 0
SMALL
GASTEIGER

@<TRIPOS>ATOM
      1  C          5.7000    2.4990    0.6400 C.3     1  UNL1        0.0800
      2  C          6.3350    3.7450    1.1540 C.2     1  UNL1        0.1300
      3  C          7.1160    4.6460    0.2660 C.3     1  UNL1        0.0870
      4  O          6.2320    4.0620    2.3280 O.2     1  UNL1       -0.3000
      5  C          6.3620    1.2640    1.2190 C.3     1  UNL1        0.0430
      6  C          6.7530    0.3100    0.1670 C.2     1  UNL1       -0.0440
      7  C          6.4840    0.5570   -1.1840 C.2     1  UNL1        0.0080
      8  C          7.4010   -0.8550    0.5090 C.2     1  UNL1        0.0540
      9  C          6.8750   -0.3750   -2.1280 C.2     1  UNL1        0.0510
     10  C          7.7960   -1.7940   -0.4490 C.2     1  UNL1        0.1660
     11  C          7.5300   -1.5520   -1.7790 C.2     1  UNL1        0.1650
     12  O          8.4430   -3.0080   -0.3640 O.2     1  UNL1       -0.4540
     13  O          8.0250   -2.6330   -2.4900 O.2     1  UNL1       -0.4540
     14  C          8.6930   -3.5370   -1.6410 C.3     1  UNL1        0.4680
@<TRIPOS>BOND
     1    13    11    1
     2    13    14    1
     3     9    11    2
     4     9     7    1
     5    11    10    1
     6    14    12    1
     7     7     6    2
     8    10    12    1
     9    10     8    2
    10     6     8    1
    11     6     5    1
    12     3     2    1
    13     1     2    1
    14     1     5    1
    15     2     4    2
