@<TRIPOS>MOLECULE
/home/cewinharhar/GITHUB/reincatalyze/data/processed/docking_pred/2023-May-22-1902_sub9_nm5_bs15_s42_ex16_mel10_mts1000_k50_ec02_g099_lra9e-4_lrc1e-3/dcca543849eb83a4cf97fda16a0578d2b97a91da_ligand_9.pdbqt
 14 15 0 0 0
SMALL
GASTEIGER

@<TRIPOS>ATOM
      1  C          5.4360    2.8730    0.2160 C.3     1  UNL1        0.0800
      2  C          6.2910    3.7870    1.0240 C.2     1  UNL1        0.1300
      3  C          7.2020    4.7730    0.3850 C.3     1  UNL1        0.0870
      4  O          6.2670    3.7510    2.2440 O.2     1  UNL1       -0.3000
      5  C          5.6690    1.4230    0.5930 C.3     1  UNL1        0.0430
      6  C          6.7280    0.8090   -0.2260 C.2     1  UNL1       -0.0440
      7  C          8.0030    1.3790   -0.3240 C.2     1  UNL1        0.0080
      8  C          6.4700   -0.3550   -0.9140 C.2     1  UNL1        0.0540
      9  C          8.9580    0.7570   -1.1080 C.2     1  UNL1        0.0510
     10  C          7.4390   -0.9810   -1.7040 C.2     1  UNL1        0.1660
     11  C          8.6930   -0.4200   -1.8020 C.2     1  UNL1        0.1650
     12  O          7.4290   -2.1250   -2.4730 O.2     1  UNL1       -0.4540
     13  O          9.4350   -1.2400   -2.6370 O.2     1  UNL1       -0.4540
     14  C          8.7000   -2.3810   -3.0130 C.3     1  UNL1        0.4680
@<TRIPOS>BOND
     1    14    13    1
     2    14    12    1
     3    13    11    1
     4    12    10    1
     5    11    10    2
     6    11     9    1
     7    10     8    1
     8     9     7    2
     9     8     6    2
    10     7     6    1
    11     6     5    1
    12     1     5    1
    13     1     2    1
    14     3     2    1
    15     2     4    2
