@<TRIPOS>MOLECULE
/home/cewinharhar/GITHUB/reincatalyze/data/processed/docking_pred/2023-May-22-1902_sub9_nm5_bs15_s42_ex16_mel10_mts1000_k50_ec02_g099_lra9e-4_lrc1e-3/dd626561b0241c753f5aa586a778cbbb50e2da15_ligand_9.pdbqt
 14 15 0 0 0
SMALL
GASTEIGER

@<TRIPOS>ATOM
      1  C          6.3790    1.0250    1.1670 C.3     1  UNL1        0.0800
      2  C          5.1100    1.7830    0.9790 C.2     1  UNL1        0.1300
      3  C          4.8820    2.6390   -0.2160 C.3     1  UNL1        0.0870
      4  O          4.2160    1.7230    1.8070 O.2     1  UNL1       -0.3000
      5  C          7.3100    1.2080   -0.0150 C.3     1  UNL1        0.0430
      6  C          7.6310   -0.0770   -0.6610 C.2     1  UNL1       -0.0440
      7  C          7.6090   -0.2240   -2.0530 C.2     1  UNL1        0.0080
      8  C          7.9640   -1.1660    0.1130 C.2     1  UNL1        0.0540
      9  C          7.9210   -1.4540   -2.6030 C.2     1  UNL1        0.0510
     10  C          8.2790   -2.4070   -0.4480 C.2     1  UNL1        0.1660
     11  C          8.2570   -2.5520   -1.8180 C.2     1  UNL1        0.1650
     12  O          8.6360   -3.6220    0.0970 O.2     1  UNL1       -0.4540
     13  O          8.6050   -3.8660   -2.0870 O.2     1  UNL1       -0.4540
     14  C          8.9420   -4.5550   -0.9070 C.3     1  UNL1        0.4680
@<TRIPOS>BOND
     1     9     7    1
     2     9    11    2
     3    13    11    1
     4    13    14    1
     5     7     6    2
     6    11    10    1
     7    14    12    1
     8     6     5    1
     9     6     8    1
    10    10    12    1
    11    10     8    2
    12     3     2    1
    13     5     1    1
    14     2     1    1
    15     2     4    2
