@<TRIPOS>MOLECULE
/home/cewinharhar/GITHUB/reincatalyze/data/processed/docking_pred/2023-May-22-1902_sub9_nm5_bs15_s42_ex16_mel10_mts1000_k50_ec02_g099_lra9e-4_lrc1e-3/df357a1c250a0cea862119ec51667dccc9d8d697_ligand_9.pdbqt
 14 15 0 0 0
SMALL
GASTEIGER

@<TRIPOS>ATOM
      1  C          5.7600    2.7320   -0.1560 C.3     1  UNL1        0.0800
      2  C          6.2960    3.7380    0.8020 C.2     1  UNL1        0.1300
      3  C          7.2750    4.7750    0.3790 C.3     1  UNL1        0.0870
      4  O          5.9450    3.7400    1.9710 O.2     1  UNL1       -0.3000
      5  C          4.9440    1.6720    0.5570 C.3     1  UNL1        0.0430
      6  C          5.7290    0.4480    0.7970 C.2     1  UNL1       -0.0440
      7  C          5.7500   -0.1740    2.0510 C.2     1  UNL1        0.0080
      8  C          6.4590   -0.1060   -0.2290 C.2     1  UNL1        0.0540
      9  C          6.5040   -1.3220    2.2170 C.2     1  UNL1        0.0510
     10  C          7.2190   -1.2670   -0.0560 C.2     1  UNL1        0.1660
     11  C          7.2420   -1.8790    1.1780 C.2     1  UNL1        0.1650
     12  O          8.0200   -2.0010   -0.9050 O.2     1  UNL1       -0.4540
     13  O          8.0640   -2.9890    1.0590 O.2     1  UNL1       -0.4540
     14  C          8.5050   -3.1550   -0.2680 C.3     1  UNL1        0.4680
@<TRIPOS>BOND
     1    12    14    1
     2    12    10    1
     3    14    13    1
     4     8    10    1
     5     8     6    2
     6     1     5    1
     7     1     2    1
     8    10    11    2
     9     3     2    1
    10     5     6    1
    11     6     7    1
    12     2     4    2
    13    13    11    1
    14    11     9    1
    15     7     9    2
