MODEL 1
REMARK VINA RESULT:      -7.8      0.000      0.000
REMARK SMILES CC(=O)CCc1ccc2c(c1)OCO2
REMARK SMILES IDX 4 1 2 2 1 3 3 4 5 5 6 6 7 7 11 8 8 9 10 10 9 11 12 12 14 13
REMARK SMILES IDX 13 14
REMARK H PARENT
REMARK Flexibility Score: inf
ROOT
ATOM      1  C   UNL     1       5.406   2.956   0.123  1.00  0.00     0.080 C 
ENDROOT
BRANCH   1   2
ATOM      2  C   UNL     1       6.271   3.835   0.958  1.00  0.00     0.130 C 
ATOM      3  C   UNL     1       7.249   4.775   0.347  1.00  0.00     0.087 C 
ATOM      4  O   UNL     1       6.203   3.808   2.176  1.00  0.00    -0.300 OA
ENDBRANCH   1   2
BRANCH   1   5
ATOM      5  C   UNL     1       5.097   1.652   0.833  1.00  0.00     0.043 C 
BRANCH   5   6
ATOM      6  C   UNL     1       5.920   0.542   0.321  1.00  0.00    -0.044 A 
ATOM      7  C   UNL     1       6.215  -0.576   1.108  1.00  0.00     0.008 A 
ATOM      8  C   UNL     1       6.414   0.596  -0.963  1.00  0.00     0.054 A 
ATOM      9  C   UNL     1       6.992  -1.588   0.573  1.00  0.00     0.051 A 
ATOM     10  C   UNL     1       7.198  -0.430  -1.500  1.00  0.00     0.166 A 
ATOM     11  C   UNL     1       7.490  -1.530  -0.725  1.00  0.00     0.165 A 
ATOM     12  O   UNL     1       7.799  -0.609  -2.728  1.00  0.00    -0.454 OA
ATOM     13  O   UNL     1       8.271  -2.372  -1.502  1.00  0.00    -0.454 OA
ATOM     14  C   UNL     1       8.415  -1.868  -2.809  1.00  0.00     0.468 C 
ENDBRANCH   5   6
ENDBRANCH   1   5
TORSDOF 3
ENDMDL
MODEL 2
REMARK VINA RESULT:      -7.8      0.987      1.973
REMARK SMILES CC(=O)CCc1ccc2c(c1)OCO2
REMARK SMILES IDX 4 1 2 2 1 3 3 4 5 5 6 6 7 7 11 8 8 9 10 10 9 11 12 12 14 13
REMARK SMILES IDX 13 14
REMARK H PARENT
REMARK Flexibility Score: inf
ROOT
ATOM      1  C   UNL     1       5.339   3.006   0.129  1.00  0.00     0.080 C 
ENDROOT
BRANCH   1   2
ATOM      2  C   UNL     1       6.282   3.806   0.960  1.00  0.00     0.130 C 
ATOM      3  C   UNL     1       7.231   4.775   0.350  1.00  0.00     0.087 C 
ATOM      4  O   UNL     1       6.302   3.687   2.174  1.00  0.00    -0.300 OA
ENDBRANCH   1   2
BRANCH   1   5
ATOM      5  C   UNL     1       5.037   1.668   0.772  1.00  0.00     0.043 C 
BRANCH   5   6
ATOM      6  C   UNL     1       5.896   0.597   0.235  1.00  0.00    -0.044 A 
ATOM      7  C   UNL     1       6.294   0.581  -1.106  1.00  0.00     0.008 A 
ATOM      8  C   UNL     1       6.324  -0.415   1.064  1.00  0.00     0.054 A 
ATOM      9  C   UNL     1       7.101  -0.449  -1.554  1.00  0.00     0.051 A 
ATOM     10  C   UNL     1       7.140  -1.454   0.607  1.00  0.00     0.166 A 
ATOM     11  C   UNL     1       7.531  -1.471  -0.713  1.00  0.00     0.165 A 
ATOM     12  O   UNL     1       7.689  -2.558   1.223  1.00  0.00    -0.454 OA
ATOM     13  O   UNL     1       8.322  -2.597  -0.882  1.00  0.00    -0.454 OA
ATOM     14  C   UNL     1       8.522  -3.266   0.341  1.00  0.00     0.468 C 
ENDBRANCH   5   6
ENDBRANCH   1   5
TORSDOF 3
ENDMDL
MODEL 3
REMARK VINA RESULT:      -7.6      1.890      2.662
REMARK SMILES CC(=O)CCc1ccc2c(c1)OCO2
REMARK SMILES IDX 4 1 2 2 1 3 3 4 5 5 6 6 7 7 11 8 8 9 10 10 9 11 12 12 14 13
REMARK SMILES IDX 13 14
REMARK H PARENT
REMARK Flexibility Score: inf
ROOT
ATOM      1  C   UNL     1       5.483   1.931   1.260  1.00  0.00     0.080 C 
ENDROOT
BRANCH   1   2
ATOM      2  C   UNL     1       5.008   0.719   1.985  1.00  0.00     0.130 C 
ATOM      3  C   UNL     1       5.859  -0.493   2.120  1.00  0.00     0.087 C 
ATOM      4  O   UNL     1       3.898   0.686   2.491  1.00  0.00    -0.300 OA
ENDBRANCH   1   2
BRANCH   1   5
ATOM      5  C   UNL     1       5.371   1.754  -0.241  1.00  0.00     0.043 C 
BRANCH   5   6
ATOM      6  C   UNL     1       6.540   1.047  -0.796  1.00  0.00    -0.044 A 
ATOM      7  C   UNL     1       7.847   1.472  -0.532  1.00  0.00     0.008 A 
ATOM      8  C   UNL     1       6.352  -0.061  -1.591  1.00  0.00     0.054 A 
ATOM      9  C   UNL     1       8.904   0.768  -1.080  1.00  0.00     0.051 A 
ATOM     10  C   UNL     1       7.425  -0.769  -2.142  1.00  0.00     0.166 A 
ATOM     11  C   UNL     1       8.711  -0.351  -1.884  1.00  0.00     0.165 A 
ATOM     12  O   UNL     1       7.499  -1.882  -2.952  1.00  0.00    -0.454 OA
ATOM     13  O   UNL     1       9.557  -1.225  -2.547  1.00  0.00    -0.454 OA
ATOM     14  C   UNL     1       8.834  -2.265  -3.162  1.00  0.00     0.468 C 
ENDBRANCH   5   6
ENDBRANCH   1   5
TORSDOF 3
ENDMDL
MODEL 4
REMARK VINA RESULT:      -7.6      1.208      1.537
REMARK SMILES CC(=O)CCc1ccc2c(c1)OCO2
REMARK SMILES IDX 4 1 2 2 1 3 3 4 5 5 6 6 7 7 11 8 8 9 10 10 9 11 12 12 14 13
REMARK SMILES IDX 13 14
REMARK H PARENT
REMARK Flexibility Score: inf
ROOT
ATOM      1  C   UNL     1       5.760   2.732  -0.156  1.00  0.00     0.080 C 
ENDROOT
BRANCH   1   2
ATOM      2  C   UNL     1       6.296   3.738   0.802  1.00  0.00     0.130 C 
ATOM      3  C   UNL     1       7.275   4.775   0.379  1.00  0.00     0.087 C 
ATOM      4  O   UNL     1       5.945   3.740   1.971  1.00  0.00    -0.300 OA
ENDBRANCH   1   2
BRANCH   1   5
ATOM      5  C   UNL     1       4.944   1.672   0.557  1.00  0.00     0.043 C 
BRANCH   5   6
ATOM      6  C   UNL     1       5.729   0.448   0.797  1.00  0.00    -0.044 A 
ATOM      7  C   UNL     1       5.750  -0.174   2.051  1.00  0.00     0.008 A 
ATOM      8  C   UNL     1       6.459  -0.106  -0.229  1.00  0.00     0.054 A 
ATOM      9  C   UNL     1       6.504  -1.322   2.217  1.00  0.00     0.051 A 
ATOM     10  C   UNL     1       7.219  -1.267  -0.056  1.00  0.00     0.166 A 
ATOM     11  C   UNL     1       7.242  -1.879   1.178  1.00  0.00     0.165 A 
ATOM     12  O   UNL     1       8.020  -2.001  -0.905  1.00  0.00    -0.454 OA
ATOM     13  O   UNL     1       8.064  -2.989   1.059  1.00  0.00    -0.454 OA
ATOM     14  C   UNL     1       8.505  -3.155  -0.268  1.00  0.00     0.468 C 
ENDBRANCH   5   6
ENDBRANCH   1   5
TORSDOF 3
ENDMDL
MODEL 5
REMARK VINA RESULT:      -7.4      1.986      3.059
REMARK SMILES CC(=O)CCc1ccc2c(c1)OCO2
REMARK SMILES IDX 4 1 2 2 1 3 3 4 5 5 6 6 7 7 11 8 8 9 10 10 9 11 12 12 14 13
REMARK SMILES IDX 13 14
REMARK H PARENT
REMARK Flexibility Score: inf
ROOT
ATOM      1  C   UNL     1       5.716   1.334  -0.293  1.00  0.00     0.080 C 
ENDROOT
BRANCH   1   2
ATOM      2  C   UNL     1       5.053   1.247   1.037  1.00  0.00     0.130 C 
ATOM      3  C   UNL     1       5.257   0.080   1.937  1.00  0.00     0.087 C 
ATOM      4  O   UNL     1       4.316   2.137   1.430  1.00  0.00    -0.300 OA
ENDBRANCH   1   2
BRANCH   1   5
ATOM      5  C   UNL     1       7.206   1.078  -0.183  1.00  0.00     0.043 C 
BRANCH   5   6
ATOM      6  C   UNL     1       7.589  -0.201  -0.806  1.00  0.00    -0.044 A 
ATOM      7  C   UNL     1       7.662  -0.347  -2.196  1.00  0.00     0.008 A 
ATOM      8  C   UNL     1       7.886  -1.285  -0.011  1.00  0.00     0.054 A 
ATOM      9  C   UNL     1       8.028  -1.572  -2.724  1.00  0.00     0.051 A 
ATOM     10  C   UNL     1       8.255  -2.521  -0.550  1.00  0.00     0.166 A 
ATOM     11  C   UNL     1       8.327  -2.666  -1.918  1.00  0.00     0.165 A 
ATOM     12  O   UNL     1       8.593  -3.731   0.019  1.00  0.00    -0.454 OA
ATOM     13  O   UNL     1       8.711  -3.974  -2.163  1.00  0.00    -0.454 OA
ATOM     14  C   UNL     1       8.979  -4.659  -0.962  1.00  0.00     0.468 C 
ENDBRANCH   5   6
ENDBRANCH   1   5
TORSDOF 3
ENDMDL
