@<TRIPOS>MOLECULE
/home/cewinharhar/GITHUB/reincatalyze/data/processed/docking_pred/2023-May-22-1902_sub9_nm5_bs15_s42_ex16_mel10_mts1000_k50_ec02_g099_lra9e-4_lrc1e-3/df357a1c250a0cea862119ec51667dccc9d8d697_ligand_9.pdbqt
 14 15 0 0 0
SMALL
GASTEIGER

@<TRIPOS>ATOM
      1  C          5.3390    3.0060    0.1290 C.3     1  UNL1        0.0800
      2  C          6.2820    3.8060    0.9600 C.2     1  UNL1        0.1300
      3  C          7.2310    4.7750    0.3500 C.3     1  UNL1        0.0870
      4  O          6.3020    3.6870    2.1740 O.2     1  UNL1       -0.3000
      5  C          5.0370    1.6680    0.7720 C.3     1  UNL1        0.0430
      6  C          5.8960    0.5970    0.2350 C.2     1  UNL1       -0.0440
      7  C          6.2940    0.5810   -1.1060 C.2     1  UNL1        0.0080
      8  C          6.3240   -0.4150    1.0640 C.2     1  UNL1        0.0540
      9  C          7.1010   -0.4490   -1.5540 C.2     1  UNL1        0.0510
     10  C          7.1400   -1.4540    0.6070 C.2     1  UNL1        0.1660
     11  C          7.5310   -1.4710   -0.7130 C.2     1  UNL1        0.1650
     12  O          7.6890   -2.5580    1.2230 O.2     1  UNL1       -0.4540
     13  O          8.3220   -2.5970   -0.8820 O.2     1  UNL1       -0.4540
     14  C          8.5220   -3.2660    0.3410 C.3     1  UNL1        0.4680
@<TRIPOS>BOND
     1     9     7    1
     2     9    11    2
     3     7     6    2
     4    13    11    1
     5    13    14    1
     6    11    10    1
     7     1     5    1
     8     1     2    1
     9     6     5    1
    10     6     8    1
    11    14    12    1
    12     3     2    1
    13    10     8    2
    14    10    12    1
    15     2     4    2
