@<TRIPOS>MOLECULE
/home/cewinharhar/GITHUB/reincatalyze/data/processed/docking_pred/2023-May-22-1902_sub9_nm5_bs15_s42_ex16_mel10_mts1000_k50_ec02_g099_lra9e-4_lrc1e-3/e1ac879641feb84a16575019a922afe40680d27c_ligand_9.pdbqt
 14 15 0 0 0
SMALL
GASTEIGER

@<TRIPOS>ATOM
      1  C          5.1520    2.5780    0.2640 C.3     1  UNL1        0.0800
      2  C          6.1610    3.4550    0.9220 C.2     1  UNL1        0.1300
      3  C          6.9740    4.4290    0.1450 C.3     1  UNL1        0.0870
      4  O          6.3520    3.3970    2.1260 O.2     1  UNL1       -0.3000
      5  C          5.8140    1.5730   -0.6570 C.3     1  UNL1        0.0430
      6  C          6.2240    0.3560    0.0650 C.2     1  UNL1       -0.0440
      7  C          5.6990    0.0390    1.3240 C.2     1  UNL1        0.0080
      8  C          7.1410   -0.4980   -0.5020 C.2     1  UNL1        0.0540
      9  C          6.1210   -1.1170    1.9550 C.2     1  UNL1        0.0510
     10  C          7.5640   -1.6670    0.1390 C.2     1  UNL1        0.1660
     11  C          7.0490   -1.9780    1.3780 C.2     1  UNL1        0.1650
     12  O          8.4510   -2.6620   -0.2100 O.2     1  UNL1       -0.4540
     13  O          7.6370   -3.1720    1.7670 O.2     1  UNL1       -0.4540
     14  C          8.4640   -3.6860    0.7510 C.3     1  UNL1        0.4680
@<TRIPOS>BOND
     1     5     6    1
     2     5     1    1
     3     8     6    2
     4     8    10    1
     5    12    10    1
     6    12    14    1
     7     6     7    1
     8    10    11    2
     9     3     2    1
    10     1     2    1
    11    14    13    1
    12     2     4    2
    13     7     9    2
    14    11    13    1
    15    11     9    1
