@<TRIPOS>MOLECULE
/home/cewinharhar/GITHUB/reincatalyze/data/processed/docking_pred/2023-May-22-1902_sub9_nm5_bs15_s42_ex16_mel10_mts1000_k50_ec02_g099_lra9e-4_lrc1e-3/e1ac879641feb84a16575019a922afe40680d27c_ligand_9.pdbqt
 14 15 0 0 0
SMALL
GASTEIGER

@<TRIPOS>ATOM
      1  C          5.5170    1.9200    1.2690 C.3     1  UNL1        0.0800
      2  C          5.0650    0.7040    2.0010 C.2     1  UNL1        0.1300
      3  C          5.9420   -0.4880    2.1530 C.3     1  UNL1        0.0870
      4  O          3.9520    0.6500    2.4990 O.2     1  UNL1       -0.3000
      5  C          5.3940    1.7370   -0.2310 C.3     1  UNL1        0.0430
      6  C          6.5620    1.0370   -0.7940 C.2     1  UNL1       -0.0440
      7  C          7.8680    1.4750   -0.5480 C.2     1  UNL1        0.0080
      8  C          6.3760   -0.0770   -1.5810 C.2     1  UNL1        0.0540
      9  C          8.9260    0.7780   -1.1020 C.2     1  UNL1        0.0510
     10  C          7.4490   -0.7790   -2.1390 C.2     1  UNL1        0.1660
     11  C          8.7340   -0.3480   -1.8980 C.2     1  UNL1        0.1650
     12  O          7.5240   -1.8960   -2.9430 O.2     1  UNL1       -0.4540
     13  O          9.5810   -1.2190   -2.5640 O.2     1  UNL1       -0.4540
     14  C          8.8600   -2.2690   -3.1650 C.3     1  UNL1        0.4680
@<TRIPOS>BOND
     1    14    12    1
     2    14    13    1
     3    12    10    1
     4    13    11    1
     5    10    11    2
     6    10     8    1
     7    11     9    1
     8     8     6    2
     9     9     7    2
    10     6     7    1
    11     6     5    1
    12     5     1    1
    13     1     2    1
    14     2     3    1
    15     2     4    2
