@<TRIPOS>MOLECULE
/home/cewinharhar/GITHUB/reincatalyze/data/processed/docking_pred/2023-May-22-1902_sub9_nm5_bs15_s42_ex16_mel10_mts1000_k50_ec02_g099_lra9e-4_lrc1e-3/e1ac879641feb84a16575019a922afe40680d27c_ligand_9.pdbqt
 14 15 0 0 0
SMALL
GASTEIGER

@<TRIPOS>ATOM
      1  C          5.3560    2.9740    0.1720 C.3     1  UNL1        0.0800
      2  C          6.3020    3.7920    0.9820 C.2     1  UNL1        0.1300
      3  C          7.2230    4.7750    0.3500 C.3     1  UNL1        0.0870
      4  O          6.3490    3.6770    2.1960 O.2     1  UNL1       -0.3000
      5  C          5.0570    1.6500    0.8470 C.3     1  UNL1        0.0430
      6  C          5.9350    0.5750    0.3540 C.2     1  UNL1       -0.0440
      7  C          6.4360    0.5780   -0.9530 C.2     1  UNL1        0.0080
      8  C          6.2810   -0.4620    1.1910 C.2     1  UNL1        0.0540
      9  C          7.2570   -0.4580   -1.3600 C.2     1  UNL1        0.0510
     10  C          7.1120   -1.5060    0.7750 C.2     1  UNL1        0.1660
     11  C          7.6030   -1.5040   -0.5110 C.2     1  UNL1        0.1650
     12  O          7.5930   -2.6330    1.4080 O.2     1  UNL1       -0.4540
     13  O          8.3850   -2.6410   -0.6430 O.2     1  UNL1       -0.4540
     14  C          8.4790   -3.3380    0.5770 C.3     1  UNL1        0.4680
@<TRIPOS>BOND
     1     9     7    1
     2     9    11    2
     3     7     6    2
     4    13    11    1
     5    13    14    1
     6    11    10    1
     7     1     5    1
     8     1     2    1
     9     3     2    1
    10     6     5    1
    11     6     8    1
    12    14    12    1
    13    10     8    2
    14    10    12    1
    15     2     4    2
