@<TRIPOS>MOLECULE
/home/cewinharhar/GITHUB/reincatalyze/data/processed/docking_pred/2023-May-22-1902_sub9_nm5_bs15_s42_ex16_mel10_mts1000_k50_ec02_g099_lra9e-4_lrc1e-3/e1ac879641feb84a16575019a922afe40680d27c_ligand_9.pdbqt
 14 15 0 0 0
SMALL
GASTEIGER

@<TRIPOS>ATOM
      1  C          5.4120    2.7970    0.2470 C.3     1  UNL1        0.0800
      2  C          6.3520    3.6030    1.0730 C.2     1  UNL1        0.1300
      3  C          7.1070    4.7510    0.5020 C.3     1  UNL1        0.0870
      4  O          6.5320    3.3430    2.2520 O.2     1  UNL1       -0.3000
      5  C          5.5780    1.3140    0.5120 C.3     1  UNL1        0.0430
      6  C          6.6720    0.7350   -0.2870 C.2     1  UNL1       -0.0440
      7  C          7.9280    1.3480   -0.3640 C.2     1  UNL1        0.0080
      8  C          6.4670   -0.4390   -0.9760 C.2     1  UNL1        0.0540
      9  C          8.9170    0.7590   -1.1300 C.2     1  UNL1        0.0510
     10  C          7.4700   -1.0310   -1.7480 C.2     1  UNL1        0.1660
     11  C          8.7060   -0.4280   -1.8260 C.2     1  UNL1        0.1650
     12  O          7.5130   -2.1760   -2.5150 O.2     1  UNL1       -0.4540
     13  O          9.4900   -1.2230   -2.6460 O.2     1  UNL1       -0.4540
     14  C          8.8020   -2.3890   -3.0320 C.3     1  UNL1        0.4680
@<TRIPOS>BOND
     1    14    13    1
     2    14    12    1
     3    13    11    1
     4    12    10    1
     5    11    10    2
     6    11     9    1
     7    10     8    1
     8     9     7    2
     9     8     6    2
    10     7     6    1
    11     6     5    1
    12     1     5    1
    13     1     2    1
    14     3     2    1
    15     2     4    2
