@<TRIPOS>MOLECULE
/home/cewinharhar/GITHUB/reincatalyze/data/processed/docking_pred/2023-May-22-1902_sub9_nm5_bs15_s42_ex16_mel10_mts1000_k50_ec02_g099_lra9e-4_lrc1e-3/e1ac879641feb84a16575019a922afe40680d27c_ligand_9.pdbqt
 14 15 0 0 0
SMALL
GASTEIGER

@<TRIPOS>ATOM
      1  C          5.4500    2.8920    0.0690 C.3     1  UNL1        0.0800
      2  C          6.2720    3.8000    0.9160 C.2     1  UNL1        0.1300
      3  C          7.2270    4.7720    0.3200 C.3     1  UNL1        0.0870
      4  O          6.1850    3.7720    2.1330 O.2     1  UNL1       -0.3000
      5  C          5.1600    1.5860    0.7830 C.3     1  UNL1        0.0430
      6  C          6.0000    0.4870    0.2730 C.2     1  UNL1       -0.0440
      7  C          6.3420   -0.6070    1.0770 C.2     1  UNL1        0.0080
      8  C          6.4610    0.5250   -1.0230 C.2     1  UNL1        0.0540
      9  C          7.1320   -1.6090    0.5440 C.2     1  UNL1        0.0510
     10  C          7.2590   -0.4910   -1.5570 C.2     1  UNL1        0.1660
     11  C          7.5970   -1.5670   -0.7670 C.2     1  UNL1        0.1650
     12  O          7.8340   -0.6820   -2.7950 O.2     1  UNL1       -0.4540
     13  O          8.3810   -2.4050   -1.5450 O.2     1  UNL1       -0.4540
     14  C          8.4810   -1.9260   -2.8650 C.3     1  UNL1        0.4680
@<TRIPOS>BOND
     1    14    12    1
     2    14    13    1
     3    12    10    1
     4    10     8    1
     5    10    11    2
     6    13    11    1
     7     8     6    2
     8    11     9    1
     9     1     5    1
    10     1     2    1
    11     6     5    1
    12     6     7    1
    13     3     2    1
    14     9     7    2
    15     2     4    2
