MODEL 1
REMARK VINA RESULT:      -7.8      0.000      0.000
REMARK SMILES CC(=O)CCc1ccc2c(c1)OCO2
REMARK SMILES IDX 4 1 2 2 1 3 3 4 5 5 6 6 7 7 11 8 8 9 10 10 9 11 12 12 14 13
REMARK SMILES IDX 13 14
REMARK H PARENT
REMARK Flexibility Score: inf
ROOT
ATOM      1  C   UNL     1       5.450   2.892   0.069  1.00  0.00     0.080 C 
ENDROOT
BRANCH   1   2
ATOM      2  C   UNL     1       6.272   3.800   0.916  1.00  0.00     0.130 C 
ATOM      3  C   UNL     1       7.227   4.772   0.320  1.00  0.00     0.087 C 
ATOM      4  O   UNL     1       6.185   3.772   2.133  1.00  0.00    -0.300 OA
ENDBRANCH   1   2
BRANCH   1   5
ATOM      5  C   UNL     1       5.160   1.586   0.783  1.00  0.00     0.043 C 
BRANCH   5   6
ATOM      6  C   UNL     1       6.000   0.487   0.273  1.00  0.00    -0.044 A 
ATOM      7  C   UNL     1       6.342  -0.607   1.077  1.00  0.00     0.008 A 
ATOM      8  C   UNL     1       6.461   0.525  -1.023  1.00  0.00     0.054 A 
ATOM      9  C   UNL     1       7.132  -1.609   0.544  1.00  0.00     0.051 A 
ATOM     10  C   UNL     1       7.259  -0.491  -1.557  1.00  0.00     0.166 A 
ATOM     11  C   UNL     1       7.597  -1.567  -0.767  1.00  0.00     0.165 A 
ATOM     12  O   UNL     1       7.834  -0.682  -2.795  1.00  0.00    -0.454 OA
ATOM     13  O   UNL     1       8.381  -2.405  -1.545  1.00  0.00    -0.454 OA
ATOM     14  C   UNL     1       8.481  -1.926  -2.865  1.00  0.00     0.468 C 
ENDBRANCH   5   6
ENDBRANCH   1   5
TORSDOF 3
ENDMDL
MODEL 2
REMARK VINA RESULT:      -7.6      1.066      2.058
REMARK SMILES CC(=O)CCc1ccc2c(c1)OCO2
REMARK SMILES IDX 4 1 2 2 1 3 3 4 5 5 6 6 7 7 11 8 8 9 10 10 9 11 12 12 14 13
REMARK SMILES IDX 13 14
REMARK H PARENT
REMARK Flexibility Score: inf
ROOT
ATOM      1  C   UNL     1       5.356   2.974   0.172  1.00  0.00     0.080 C 
ENDROOT
BRANCH   1   2
ATOM      2  C   UNL     1       6.302   3.792   0.982  1.00  0.00     0.130 C 
ATOM      3  C   UNL     1       7.223   4.775   0.350  1.00  0.00     0.087 C 
ATOM      4  O   UNL     1       6.349   3.677   2.196  1.00  0.00    -0.300 OA
ENDBRANCH   1   2
BRANCH   1   5
ATOM      5  C   UNL     1       5.057   1.650   0.847  1.00  0.00     0.043 C 
BRANCH   5   6
ATOM      6  C   UNL     1       5.935   0.575   0.354  1.00  0.00    -0.044 A 
ATOM      7  C   UNL     1       6.436   0.578  -0.953  1.00  0.00     0.008 A 
ATOM      8  C   UNL     1       6.281  -0.462   1.191  1.00  0.00     0.054 A 
ATOM      9  C   UNL     1       7.257  -0.458  -1.360  1.00  0.00     0.051 A 
ATOM     10  C   UNL     1       7.112  -1.506   0.775  1.00  0.00     0.166 A 
ATOM     11  C   UNL     1       7.603  -1.504  -0.511  1.00  0.00     0.165 A 
ATOM     12  O   UNL     1       7.593  -2.633   1.408  1.00  0.00    -0.454 OA
ATOM     13  O   UNL     1       8.385  -2.641  -0.643  1.00  0.00    -0.454 OA
ATOM     14  C   UNL     1       8.479  -3.338   0.577  1.00  0.00     0.468 C 
ENDBRANCH   5   6
ENDBRANCH   1   5
TORSDOF 3
ENDMDL
MODEL 3
REMARK VINA RESULT:      -7.5      1.880      2.632
REMARK SMILES CC(=O)CCc1ccc2c(c1)OCO2
REMARK SMILES IDX 4 1 2 2 1 3 3 4 5 5 6 6 7 7 11 8 8 9 10 10 9 11 12 12 14 13
REMARK SMILES IDX 13 14
REMARK H PARENT
REMARK Flexibility Score: inf
ROOT
ATOM      1  C   UNL     1       5.517   1.920   1.269  1.00  0.00     0.080 C 
ENDROOT
BRANCH   1   2
ATOM      2  C   UNL     1       5.065   0.704   2.001  1.00  0.00     0.130 C 
ATOM      3  C   UNL     1       5.942  -0.488   2.153  1.00  0.00     0.087 C 
ATOM      4  O   UNL     1       3.952   0.650   2.499  1.00  0.00    -0.300 OA
ENDBRANCH   1   2
BRANCH   1   5
ATOM      5  C   UNL     1       5.394   1.737  -0.231  1.00  0.00     0.043 C 
BRANCH   5   6
ATOM      6  C   UNL     1       6.562   1.037  -0.794  1.00  0.00    -0.044 A 
ATOM      7  C   UNL     1       7.868   1.475  -0.548  1.00  0.00     0.008 A 
ATOM      8  C   UNL     1       6.376  -0.077  -1.581  1.00  0.00     0.054 A 
ATOM      9  C   UNL     1       8.926   0.778  -1.102  1.00  0.00     0.051 A 
ATOM     10  C   UNL     1       7.449  -0.779  -2.139  1.00  0.00     0.166 A 
ATOM     11  C   UNL     1       8.734  -0.348  -1.898  1.00  0.00     0.165 A 
ATOM     12  O   UNL     1       7.524  -1.896  -2.943  1.00  0.00    -0.454 OA
ATOM     13  O   UNL     1       9.581  -1.219  -2.564  1.00  0.00    -0.454 OA
ATOM     14  C   UNL     1       8.860  -2.269  -3.165  1.00  0.00     0.468 C 
ENDBRANCH   5   6
ENDBRANCH   1   5
TORSDOF 3
ENDMDL
MODEL 4
REMARK VINA RESULT:      -7.4      1.128      1.540
REMARK SMILES CC(=O)CCc1ccc2c(c1)OCO2
REMARK SMILES IDX 4 1 2 2 1 3 3 4 5 5 6 6 7 7 11 8 8 9 10 10 9 11 12 12 14 13
REMARK SMILES IDX 13 14
REMARK H PARENT
REMARK Flexibility Score: inf
ROOT
ATOM      1  C   UNL     1       5.412   2.797   0.247  1.00  0.00     0.080 C 
ENDROOT
BRANCH   1   2
ATOM      2  C   UNL     1       6.352   3.603   1.073  1.00  0.00     0.130 C 
ATOM      3  C   UNL     1       7.107   4.751   0.502  1.00  0.00     0.087 C 
ATOM      4  O   UNL     1       6.532   3.343   2.252  1.00  0.00    -0.300 OA
ENDBRANCH   1   2
BRANCH   1   5
ATOM      5  C   UNL     1       5.578   1.314   0.512  1.00  0.00     0.043 C 
BRANCH   5   6
ATOM      6  C   UNL     1       6.672   0.735  -0.287  1.00  0.00    -0.044 A 
ATOM      7  C   UNL     1       7.928   1.348  -0.364  1.00  0.00     0.008 A 
ATOM      8  C   UNL     1       6.467  -0.439  -0.976  1.00  0.00     0.054 A 
ATOM      9  C   UNL     1       8.917   0.759  -1.130  1.00  0.00     0.051 A 
ATOM     10  C   UNL     1       7.470  -1.031  -1.748  1.00  0.00     0.166 A 
ATOM     11  C   UNL     1       8.706  -0.428  -1.826  1.00  0.00     0.165 A 
ATOM     12  O   UNL     1       7.513  -2.176  -2.515  1.00  0.00    -0.454 OA
ATOM     13  O   UNL     1       9.490  -1.223  -2.646  1.00  0.00    -0.454 OA
ATOM     14  C   UNL     1       8.802  -2.389  -3.032  1.00  0.00     0.468 C 
ENDBRANCH   5   6
ENDBRANCH   1   5
TORSDOF 3
ENDMDL
MODEL 5
REMARK VINA RESULT:      -7.2      1.435      2.035
REMARK SMILES CC(=O)CCc1ccc2c(c1)OCO2
REMARK SMILES IDX 4 1 2 2 1 3 3 4 5 5 6 6 7 7 11 8 8 9 10 10 9 11 12 12 14 13
REMARK SMILES IDX 13 14
REMARK H PARENT
REMARK Flexibility Score: inf
ROOT
ATOM      1  C   UNL     1       5.152   2.578   0.264  1.00  0.00     0.080 C 
ENDROOT
BRANCH   1   2
ATOM      2  C   UNL     1       6.161   3.455   0.922  1.00  0.00     0.130 C 
ATOM      3  C   UNL     1       6.974   4.429   0.145  1.00  0.00     0.087 C 
ATOM      4  O   UNL     1       6.352   3.397   2.126  1.00  0.00    -0.300 OA
ENDBRANCH   1   2
BRANCH   1   5
ATOM      5  C   UNL     1       5.814   1.573  -0.657  1.00  0.00     0.043 C 
BRANCH   5   6
ATOM      6  C   UNL     1       6.224   0.356   0.065  1.00  0.00    -0.044 A 
ATOM      7  C   UNL     1       5.699   0.039   1.324  1.00  0.00     0.008 A 
ATOM      8  C   UNL     1       7.141  -0.498  -0.502  1.00  0.00     0.054 A 
ATOM      9  C   UNL     1       6.121  -1.117   1.955  1.00  0.00     0.051 A 
ATOM     10  C   UNL     1       7.564  -1.667   0.139  1.00  0.00     0.166 A 
ATOM     11  C   UNL     1       7.049  -1.978   1.378  1.00  0.00     0.165 A 
ATOM     12  O   UNL     1       8.451  -2.662  -0.210  1.00  0.00    -0.454 OA
ATOM     13  O   UNL     1       7.637  -3.172   1.767  1.00  0.00    -0.454 OA
ATOM     14  C   UNL     1       8.464  -3.686   0.751  1.00  0.00     0.468 C 
ENDBRANCH   5   6
ENDBRANCH   1   5
TORSDOF 3
ENDMDL
