@<TRIPOS>MOLECULE
/home/cewinharhar/GITHUB/reincatalyze/data/processed/docking_pred/2023-May-22-1902_sub9_nm5_bs15_s42_ex16_mel10_mts1000_k50_ec02_g099_lra9e-4_lrc1e-3/e3e0f9713a2c6d1770d60d03407d62bfa70f046f_ligand_9.pdbqt
 14 15 0 0 0
SMALL
GASTEIGER

@<TRIPOS>ATOM
      1  C          6.2160    2.4550    1.4340 C.3     1  UNL1        0.0800
      2  C          6.4630    3.9170    1.2940 C.2     1  UNL1        0.1300
      3  C          6.9090    4.7470    2.4440 C.3     1  UNL1        0.0870
      4  O          6.3050    4.4790    0.2220 O.2     1  UNL1       -0.3000
      5  C          5.7260    1.8520    0.1320 C.3     1  UNL1        0.0430
      6  C          6.7840    1.0780   -0.5430 C.2     1  UNL1       -0.0440
      7  C          8.1230    1.4840   -0.5120 C.2     1  UNL1        0.0080
      8  C          6.4580   -0.0740   -1.2220 C.2     1  UNL1        0.0540
      9  C          9.0720    0.7170   -1.1630 C.2     1  UNL1        0.0510
     10  C          7.4210   -0.8460   -1.8780 C.2     1  UNL1        0.1660
     11  C          8.7390   -0.4470   -1.8480 C.2     1  UNL1        0.1650
     12  O          7.3520   -2.0130   -2.6100 O.2     1  UNL1       -0.4540
     13  O          9.4590   -1.3870   -2.5700 O.2     1  UNL1       -0.4540
     14  C          8.6320   -2.4450   -2.9930 C.3     1  UNL1        0.4680
@<TRIPOS>BOND
     1    14    12    1
     2    14    13    1
     3    12    10    1
     4    13    11    1
     5    10    11    2
     6    10     8    1
     7    11     9    1
     8     8     6    2
     9     9     7    2
    10     6     7    1
    11     6     5    1
    12     5     1    1
    13     4     2    2
    14     2     1    1
    15     2     3    1
