@<TRIPOS>MOLECULE
/home/cewinharhar/GITHUB/reincatalyze/data/processed/docking_pred/2023-May-22-1902_sub9_nm5_bs15_s42_ex16_mel10_mts1000_k50_ec02_g099_lra9e-4_lrc1e-3/e3e0f9713a2c6d1770d60d03407d62bfa70f046f_ligand_9.pdbqt
 14 15 0 0 0
SMALL
GASTEIGER

@<TRIPOS>ATOM
      1  C          5.4220    1.1180    1.1530 C.3     1  UNL1        0.0800
      2  C          5.3970    2.5150    0.6380 C.2     1  UNL1        0.1300
      3  C          6.6090    3.3770    0.6570 C.3     1  UNL1        0.0870
      4  O          4.3720    2.9970    0.1840 O.2     1  UNL1       -0.3000
      5  C          6.8430    0.6420    1.3830 C.3     1  UNL1        0.0430
      6  C          7.2470   -0.3720    0.3920 C.2     1  UNL1       -0.0440
      7  C          7.1300   -0.1400   -0.9840 C.2     1  UNL1        0.0080
      8  C          7.7550   -1.5780    0.8180 C.2     1  UNL1        0.0540
      9  C          7.5260   -1.1280   -1.8670 C.2     1  UNL1        0.0510
     10  C          8.1540   -2.5730   -0.0790 C.2     1  UNL1        0.1660
     11  C          8.0380   -2.3460   -1.4330 C.2     1  UNL1        0.1650
     12  O          8.6810   -3.8360    0.0920 O.2     1  UNL1       -0.4540
     13  O          8.5020   -3.4860   -2.0710 O.2     1  UNL1       -0.4540
     14  C          9.0040   -4.4190   -1.1450 C.3     1  UNL1        0.4680
@<TRIPOS>BOND
     1    13    11    1
     2    13    14    1
     3     9    11    2
     4     9     7    1
     5    11    10    1
     6    14    12    1
     7     7     6    2
     8    10    12    1
     9    10     8    2
    10     4     2    2
    11     6     8    1
    12     6     5    1
    13     2     3    1
    14     2     1    1
    15     1     5    1
