MODEL 1
REMARK VINA RESULT:      -7.5      0.000      0.000
REMARK SMILES CC(=O)CCc1ccc2c(c1)OCO2
REMARK SMILES IDX 4 1 2 2 1 3 3 4 5 5 6 6 7 7 11 8 8 9 10 10 9 11 12 12 14 13
REMARK SMILES IDX 13 14
REMARK H PARENT
REMARK Flexibility Score: inf
ROOT
ATOM      1  C   UNL     1       6.393   0.958   1.071  1.00  0.00     0.080 C 
ENDROOT
BRANCH   1   2
ATOM      2  C   UNL     1       5.124   1.732   0.969  1.00  0.00     0.130 C 
ATOM      3  C   UNL     1       4.853   2.639  -0.178  1.00  0.00     0.087 C 
ATOM      4  O   UNL     1       4.265   1.643   1.831  1.00  0.00    -0.300 OA
ENDBRANCH   1   2
BRANCH   1   5
ATOM      5  C   UNL     1       7.253   1.145  -0.163  1.00  0.00     0.043 C 
BRANCH   5   6
ATOM      6  C   UNL     1       7.617  -0.144  -0.776  1.00  0.00    -0.044 A 
ATOM      7  C   UNL     1       7.690  -0.301  -2.165  1.00  0.00     0.008 A 
ATOM      8  C   UNL     1       7.898  -1.227   0.027  1.00  0.00     0.054 A 
ATOM      9  C   UNL     1       8.038  -1.535  -2.684  1.00  0.00     0.051 A 
ATOM     10  C   UNL     1       8.250  -2.472  -0.503  1.00  0.00     0.166 A 
ATOM     11  C   UNL     1       8.320  -2.627  -1.869  1.00  0.00     0.165 A 
ATOM     12  O   UNL     1       8.569  -3.682   0.075  1.00  0.00    -0.454 OA
ATOM     13  O   UNL     1       8.686  -3.943  -2.104  1.00  0.00    -0.454 OA
ATOM     14  C   UNL     1       8.942  -4.623  -0.899  1.00  0.00     0.468 C 
ENDBRANCH   5   6
ENDBRANCH   1   5
TORSDOF 3
ENDMDL
MODEL 2
REMARK VINA RESULT:      -7.4      0.965      1.855
REMARK SMILES CC(=O)CCc1ccc2c(c1)OCO2
REMARK SMILES IDX 4 1 2 2 1 3 3 4 5 5 6 6 7 7 11 8 8 9 10 10 9 11 12 12 14 13
REMARK SMILES IDX 13 14
REMARK H PARENT
REMARK Flexibility Score: inf
ROOT
ATOM      1  C   UNL     1       5.571   1.292  -0.499  1.00  0.00     0.080 C 
ENDROOT
BRANCH   1   2
ATOM      2  C   UNL     1       5.342   2.293   0.581  1.00  0.00     0.130 C 
ATOM      3  C   UNL     1       6.185   3.512   0.707  1.00  0.00     0.087 C 
ATOM      4  O   UNL     1       4.449   2.139   1.398  1.00  0.00    -0.300 OA
ENDBRANCH   1   2
BRANCH   1   5
ATOM      5  C   UNL     1       7.051   1.108  -0.772  1.00  0.00     0.043 C 
BRANCH   5   6
ATOM      6  C   UNL     1       7.500  -0.258  -0.448  1.00  0.00    -0.044 A 
ATOM      7  C   UNL     1       7.624  -0.693   0.877  1.00  0.00     0.008 A 
ATOM      8  C   UNL     1       7.805  -1.135  -1.463  1.00  0.00     0.054 A 
ATOM      9  C   UNL     1       8.049  -1.987   1.121  1.00  0.00     0.051 A 
ATOM     10  C   UNL     1       8.234  -2.442  -1.211  1.00  0.00     0.166 A 
ATOM     11  C   UNL     1       8.358  -2.871   0.091  1.00  0.00     0.165 A 
ATOM     12  O   UNL     1       8.594  -3.488  -2.034  1.00  0.00    -0.454 OA
ATOM     13  O   UNL     1       8.794  -4.185   0.041  1.00  0.00    -0.454 OA
ATOM     14  C   UNL     1       8.869  -4.645  -1.287  1.00  0.00     0.468 C 
ENDBRANCH   5   6
ENDBRANCH   1   5
TORSDOF 3
ENDMDL
MODEL 3
REMARK VINA RESULT:      -7.4      1.023      1.182
REMARK SMILES CC(=O)CCc1ccc2c(c1)OCO2
REMARK SMILES IDX 4 1 2 2 1 3 3 4 5 5 6 6 7 7 11 8 8 9 10 10 9 11 12 12 14 13
REMARK SMILES IDX 13 14
REMARK H PARENT
REMARK Flexibility Score: inf
ROOT
ATOM      1  C   UNL     1       5.422   1.118   1.153  1.00  0.00     0.080 C 
ENDROOT
BRANCH   1   2
ATOM      2  C   UNL     1       5.397   2.515   0.638  1.00  0.00     0.130 C 
ATOM      3  C   UNL     1       6.609   3.377   0.657  1.00  0.00     0.087 C 
ATOM      4  O   UNL     1       4.372   2.997   0.184  1.00  0.00    -0.300 OA
ENDBRANCH   1   2
BRANCH   1   5
ATOM      5  C   UNL     1       6.843   0.642   1.383  1.00  0.00     0.043 C 
BRANCH   5   6
ATOM      6  C   UNL     1       7.247  -0.372   0.392  1.00  0.00    -0.044 A 
ATOM      7  C   UNL     1       7.130  -0.140  -0.984  1.00  0.00     0.008 A 
ATOM      8  C   UNL     1       7.755  -1.578   0.818  1.00  0.00     0.054 A 
ATOM      9  C   UNL     1       7.526  -1.128  -1.867  1.00  0.00     0.051 A 
ATOM     10  C   UNL     1       8.154  -2.573  -0.079  1.00  0.00     0.166 A 
ATOM     11  C   UNL     1       8.038  -2.346  -1.433  1.00  0.00     0.165 A 
ATOM     12  O   UNL     1       8.681  -3.836   0.092  1.00  0.00    -0.454 OA
ATOM     13  O   UNL     1       8.502  -3.486  -2.071  1.00  0.00    -0.454 OA
ATOM     14  C   UNL     1       9.004  -4.419  -1.145  1.00  0.00     0.468 C 
ENDBRANCH   5   6
ENDBRANCH   1   5
TORSDOF 3
ENDMDL
MODEL 4
REMARK VINA RESULT:      -7.2      1.022      1.057
REMARK SMILES CC(=O)CCc1ccc2c(c1)OCO2
REMARK SMILES IDX 4 1 2 2 1 3 3 4 5 5 6 6 7 7 11 8 8 9 10 10 9 11 12 12 14 13
REMARK SMILES IDX 13 14
REMARK H PARENT
REMARK Flexibility Score: inf
ROOT
ATOM      1  C   UNL     1       6.977   1.759   0.255  1.00  0.00     0.080 C 
ENDROOT
BRANCH   1   2
ATOM      2  C   UNL     1       6.132   2.766   0.956  1.00  0.00     0.130 C 
ATOM      3  C   UNL     1       6.553   4.187   1.082  1.00  0.00     0.087 C 
ATOM      4  O   UNL     1       5.062   2.451   1.451  1.00  0.00    -0.300 OA
ENDBRANCH   1   2
BRANCH   1   5
ATOM      5  C   UNL     1       6.151   0.909  -0.690  1.00  0.00     0.043 C 
BRANCH   5   6
ATOM      6  C   UNL     1       6.879  -0.299  -1.116  1.00  0.00    -0.044 A 
ATOM      7  C   UNL     1       7.221  -0.514  -2.457  1.00  0.00     0.008 A 
ATOM      8  C   UNL     1       7.239  -1.244  -0.183  1.00  0.00     0.054 A 
ATOM      9  C   UNL     1       7.906  -1.666  -2.798  1.00  0.00     0.051 A 
ATOM     10  C   UNL     1       7.931  -2.407  -0.533  1.00  0.00     0.166 A 
ATOM     11  C   UNL     1       8.268  -2.620  -1.852  1.00  0.00     0.165 A 
ATOM     12  O   UNL     1       8.394  -3.481   0.197  1.00  0.00    -0.454 OA
ATOM     13  O   UNL     1       8.938  -3.832  -1.904  1.00  0.00    -0.454 OA
ATOM     14  C   UNL     1       9.120  -4.368  -0.616  1.00  0.00     0.468 C 
ENDBRANCH   5   6
ENDBRANCH   1   5
TORSDOF 3
ENDMDL
MODEL 5
REMARK VINA RESULT:      -7.2      2.081      2.703
REMARK SMILES CC(=O)CCc1ccc2c(c1)OCO2
REMARK SMILES IDX 4 1 2 2 1 3 3 4 5 5 6 6 7 7 11 8 8 9 10 10 9 11 12 12 14 13
REMARK SMILES IDX 13 14
REMARK H PARENT
REMARK Flexibility Score: inf
ROOT
ATOM      1  C   UNL     1       6.216   2.455   1.434  1.00  0.00     0.080 C 
ENDROOT
BRANCH   1   2
ATOM      2  C   UNL     1       6.463   3.917   1.294  1.00  0.00     0.130 C 
ATOM      3  C   UNL     1       6.909   4.747   2.444  1.00  0.00     0.087 C 
ATOM      4  O   UNL     1       6.305   4.479   0.222  1.00  0.00    -0.300 OA
ENDBRANCH   1   2
BRANCH   1   5
ATOM      5  C   UNL     1       5.726   1.852   0.132  1.00  0.00     0.043 C 
BRANCH   5   6
ATOM      6  C   UNL     1       6.784   1.078  -0.543  1.00  0.00    -0.044 A 
ATOM      7  C   UNL     1       8.123   1.484  -0.512  1.00  0.00     0.008 A 
ATOM      8  C   UNL     1       6.458  -0.074  -1.222  1.00  0.00     0.054 A 
ATOM      9  C   UNL     1       9.072   0.717  -1.163  1.00  0.00     0.051 A 
ATOM     10  C   UNL     1       7.421  -0.846  -1.878  1.00  0.00     0.166 A 
ATOM     11  C   UNL     1       8.739  -0.447  -1.848  1.00  0.00     0.165 A 
ATOM     12  O   UNL     1       7.352  -2.013  -2.610  1.00  0.00    -0.454 OA
ATOM     13  O   UNL     1       9.459  -1.387  -2.570  1.00  0.00    -0.454 OA
ATOM     14  C   UNL     1       8.632  -2.445  -2.993  1.00  0.00     0.468 C 
ENDBRANCH   5   6
ENDBRANCH   1   5
TORSDOF 3
ENDMDL
