@<TRIPOS>MOLECULE
/home/cewinharhar/GITHUB/reincatalyze/data/processed/docking_pred/2023-May-22-1902_sub9_nm5_bs15_s42_ex16_mel10_mts1000_k50_ec02_g099_lra9e-4_lrc1e-3/e3e0f9713a2c6d1770d60d03407d62bfa70f046f_ligand_9.pdbqt
 14 15 0 0 0
SMALL
GASTEIGER

@<TRIPOS>ATOM
      1  C          6.9770    1.7590    0.2550 C.3     1  UNL1        0.0800
      2  C          6.1320    2.7660    0.9560 C.2     1  UNL1        0.1300
      3  C          6.5530    4.1870    1.0820 C.3     1  UNL1        0.0870
      4  O          5.0620    2.4510    1.4510 O.2     1  UNL1       -0.3000
      5  C          6.1510    0.9090   -0.6900 C.3     1  UNL1        0.0430
      6  C          6.8790   -0.2990   -1.1160 C.2     1  UNL1       -0.0440
      7  C          7.2210   -0.5140   -2.4570 C.2     1  UNL1        0.0080
      8  C          7.2390   -1.2440   -0.1830 C.2     1  UNL1        0.0540
      9  C          7.9060   -1.6660   -2.7980 C.2     1  UNL1        0.0510
     10  C          7.9310   -2.4070   -0.5330 C.2     1  UNL1        0.1660
     11  C          8.2680   -2.6200   -1.8520 C.2     1  UNL1        0.1650
     12  O          8.3940   -3.4810    0.1970 O.2     1  UNL1       -0.4540
     13  O          8.9380   -3.8320   -1.9040 O.2     1  UNL1       -0.4540
     14  C          9.1200   -4.3680   -0.6160 C.3     1  UNL1        0.4680
@<TRIPOS>BOND
     1     9     7    1
     2     9    11    2
     3     7     6    2
     4    13    11    1
     5    13    14    1
     6    11    10    1
     7     6     5    1
     8     6     8    1
     9     5     1    1
    10    14    12    1
    11    10     8    2
    12    10    12    1
    13     1     2    1
    14     2     3    1
    15     2     4    2
