@<TRIPOS>MOLECULE
/home/cewinharhar/GITHUB/reincatalyze/data/processed/docking_pred/2023-May-22-1902_sub9_nm5_bs15_s42_ex16_mel10_mts1000_k50_ec02_g099_lra9e-4_lrc1e-3/e3e0f9713a2c6d1770d60d03407d62bfa70f046f_ligand_9.pdbqt
 14 15 0 0 0
SMALL
GASTEIGER

@<TRIPOS>ATOM
      1  C          5.5710    1.2920   -0.4990 C.3     1  UNL1        0.0800
      2  C          5.3420    2.2930    0.5810 C.2     1  UNL1        0.1300
      3  C          6.1850    3.5120    0.7070 C.3     1  UNL1        0.0870
      4  O          4.4490    2.1390    1.3980 O.2     1  UNL1       -0.3000
      5  C          7.0510    1.1080   -0.7720 C.3     1  UNL1        0.0430
      6  C          7.5000   -0.2580   -0.4480 C.2     1  UNL1       -0.0440
      7  C          7.6240   -0.6930    0.8770 C.2     1  UNL1        0.0080
      8  C          7.8050   -1.1350   -1.4630 C.2     1  UNL1        0.0540
      9  C          8.0490   -1.9870    1.1210 C.2     1  UNL1        0.0510
     10  C          8.2340   -2.4420   -1.2110 C.2     1  UNL1        0.1660
     11  C          8.3580   -2.8710    0.0910 C.2     1  UNL1        0.1650
     12  O          8.5940   -3.4880   -2.0340 O.2     1  UNL1       -0.4540
     13  O          8.7940   -4.1850    0.0410 O.2     1  UNL1       -0.4540
     14  C          8.8690   -4.6450   -1.2870 C.3     1  UNL1        0.4680
@<TRIPOS>BOND
     1    12    14    1
     2    12    10    1
     3     8    10    1
     4     8     6    2
     5    14    13    1
     6    10    11    2
     7     5     1    1
     8     5     6    1
     9     1     2    1
    10     6     7    1
    11    13    11    1
    12    11     9    1
    13     2     3    1
    14     2     4    2
    15     7     9    2
