@<TRIPOS>MOLECULE
/home/cewinharhar/GITHUB/reincatalyze/data/processed/docking_pred/2023-May-22-1902_sub9_nm5_bs15_s42_ex16_mel10_mts1000_k50_ec02_g099_lra9e-4_lrc1e-3/e3e22a08cc3fa656d2264310e8071e645bf38a06_ligand_9.pdbqt
 14 15 0 0 0
SMALL
GASTEIGER

@<TRIPOS>ATOM
      1  C          5.5850    2.8430    0.0950 C.3     1  UNL1        0.0800
      2  C          6.2570    3.8440    0.9700 C.2     1  UNL1        0.1300
      3  C          7.2890    4.7750    0.4410 C.3     1  UNL1        0.0870
      4  O          5.9770    3.9290    2.1550 O.2     1  UNL1       -0.3000
      5  C          5.3320    1.5450    0.8370 C.3     1  UNL1        0.0430
      6  C          6.1450    0.4410    0.2980 C.2     1  UNL1       -0.0440
      7  C          6.4940   -0.6640    1.0830 C.2     1  UNL1        0.0080
      8  C          6.5750    0.4850   -1.0090 C.2     1  UNL1        0.0540
      9  C          7.2580   -1.6710    0.5220 C.2     1  UNL1        0.0510
     10  C          7.3470   -0.5360   -1.5710 C.2     1  UNL1        0.1660
     11  C          7.6920   -1.6230   -0.7990 C.2     1  UNL1        0.1650
     12  O          7.8900   -0.7230   -2.8250 O.2     1  UNL1       -0.4540
     13  O          8.4450   -2.4630   -1.6030 O.2     1  UNL1       -0.4540
     14  C          8.5190   -1.9750   -2.9210 C.3     1  UNL1        0.4680
@<TRIPOS>BOND
     1    14    12    1
     2    14    13    1
     3    12    10    1
     4    13    11    1
     5    10     8    1
     6    10    11    2
     7     8     6    2
     8    11     9    1
     9     1     5    1
    10     1     2    1
    11     6     5    1
    12     6     7    1
    13     3     2    1
    14     9     7    2
    15     2     4    2
