@<TRIPOS>MOLECULE
/home/cewinharhar/GITHUB/reincatalyze/data/processed/docking_pred/2023-May-22-1902_sub9_nm5_bs15_s42_ex16_mel10_mts1000_k50_ec02_g099_lra9e-4_lrc1e-3/e3e22a08cc3fa656d2264310e8071e645bf38a06_ligand_9.pdbqt
 14 15 0 0 0
SMALL
GASTEIGER

@<TRIPOS>ATOM
      1  C          5.3560    2.8540    0.1710 C.3     1  UNL1        0.0800
      2  C          6.2620    3.6940    1.0030 C.2     1  UNL1        0.1300
      3  C          7.0930    4.7740    0.4070 C.3     1  UNL1        0.0870
      4  O          6.3480    3.5180    2.2080 O.2     1  UNL1       -0.3000
      5  C          5.5270    1.3810    0.4860 C.3     1  UNL1        0.0430
      6  C          6.6290    0.7810   -0.2870 C.2     1  UNL1       -0.0440
      7  C          7.8940    1.3770   -0.3440 C.2     1  UNL1        0.0080
      8  C          6.4210   -0.3960   -0.9700 C.2     1  UNL1        0.0540
      9  C          8.8900    0.7670   -1.0850 C.2     1  UNL1        0.0510
     10  C          7.4320   -1.0080   -1.7170 C.2     1  UNL1        0.1660
     11  C          8.6760   -0.4220   -1.7750 C.2     1  UNL1        0.1650
     12  O          7.4740   -2.1600   -2.4730 O.2     1  UNL1       -0.4540
     13  O          9.4660   -1.2350   -2.5730 O.2     1  UNL1       -0.4540
     14  C          8.7700   -2.3950   -2.9630 C.3     1  UNL1        0.4680
@<TRIPOS>BOND
     1    14    13    1
     2    14    12    1
     3    13    11    1
     4    12    10    1
     5    11    10    2
     6    11     9    1
     7    10     8    1
     8     9     7    2
     9     8     6    2
    10     7     6    1
    11     6     5    1
    12     1     5    1
    13     1     2    1
    14     3     2    1
    15     2     4    2
