MODEL 1
REMARK VINA RESULT:      -7.8      0.000      0.000
REMARK SMILES CC(=O)CCc1ccc2c(c1)OCO2
REMARK SMILES IDX 4 1 2 2 1 3 3 4 5 5 6 6 7 7 11 8 8 9 10 10 9 11 12 12 14 13
REMARK SMILES IDX 13 14
REMARK H PARENT
REMARK Flexibility Score: inf
ROOT
ATOM      1  C   UNL     1       5.509   2.858   0.245  1.00  0.00     0.080 C 
ENDROOT
BRANCH   1   2
ATOM      2  C   UNL     1       6.287   3.859   1.027  1.00  0.00     0.130 C 
ATOM      3  C   UNL     1       7.260   4.775   0.374  1.00  0.00     0.087 C 
ATOM      4  O   UNL     1       6.146   3.957   2.235  1.00  0.00    -0.300 OA
ENDBRANCH   1   2
BRANCH   1   5
ATOM      5  C   UNL     1       5.338   1.566   1.020  1.00  0.00     0.043 C 
BRANCH   5   6
ATOM      6  C   UNL     1       6.138   0.472   0.441  1.00  0.00    -0.044 A 
ATOM      7  C   UNL     1       6.531  -0.632   1.205  1.00  0.00     0.008 A 
ATOM      8  C   UNL     1       6.509   0.525  -0.884  1.00  0.00     0.054 A 
ATOM      9  C   UNL     1       7.280  -1.630   0.608  1.00  0.00     0.051 A 
ATOM     10  C   UNL     1       7.266  -0.486  -1.483  1.00  0.00     0.166 A 
ATOM     11  C   UNL     1       7.655  -1.573  -0.731  1.00  0.00     0.165 A 
ATOM     12  O   UNL     1       7.754  -0.663  -2.760  1.00  0.00    -0.454 OA
ATOM     13  O   UNL     1       8.381  -2.402  -1.571  1.00  0.00    -0.454 OA
ATOM     14  C   UNL     1       8.391  -1.908  -2.889  1.00  0.00     0.468 C 
ENDBRANCH   5   6
ENDBRANCH   1   5
TORSDOF 3
ENDMDL
MODEL 2
REMARK VINA RESULT:      -7.7      1.908      2.647
REMARK SMILES CC(=O)CCc1ccc2c(c1)OCO2
REMARK SMILES IDX 4 1 2 2 1 3 3 4 5 5 6 6 7 7 11 8 8 9 10 10 9 11 12 12 14 13
REMARK SMILES IDX 13 14
REMARK H PARENT
REMARK Flexibility Score: inf
ROOT
ATOM      1  C   UNL     1       5.533   1.926   1.275  1.00  0.00     0.080 C 
ENDROOT
BRANCH   1   2
ATOM      2  C   UNL     1       5.091   0.708   2.009  1.00  0.00     0.130 C 
ATOM      3  C   UNL     1       5.986  -0.468   2.181  1.00  0.00     0.087 C 
ATOM      4  O   UNL     1       3.974   0.640   2.495  1.00  0.00    -0.300 OA
ENDBRANCH   1   2
BRANCH   1   5
ATOM      5  C   UNL     1       5.404   1.742  -0.224  1.00  0.00     0.043 C 
BRANCH   5   6
ATOM      6  C   UNL     1       6.569   1.039  -0.791  1.00  0.00    -0.044 A 
ATOM      7  C   UNL     1       7.877   1.475  -0.549  1.00  0.00     0.008 A 
ATOM      8  C   UNL     1       6.378  -0.075  -1.576  1.00  0.00     0.054 A 
ATOM      9  C   UNL     1       8.931   0.775  -1.107  1.00  0.00     0.051 A 
ATOM     10  C   UNL     1       7.448  -0.779  -2.137  1.00  0.00     0.166 A 
ATOM     11  C   UNL     1       8.735  -0.350  -1.901  1.00  0.00     0.165 A 
ATOM     12  O   UNL     1       7.518  -1.898  -2.940  1.00  0.00    -0.454 OA
ATOM     13  O   UNL     1       9.577  -1.224  -2.570  1.00  0.00    -0.454 OA
ATOM     14  C   UNL     1       8.853  -2.272  -3.167  1.00  0.00     0.468 C 
ENDBRANCH   5   6
ENDBRANCH   1   5
TORSDOF 3
ENDMDL
MODEL 3
REMARK VINA RESULT:      -7.5      1.963      3.016
REMARK SMILES CC(=O)CCc1ccc2c(c1)OCO2
REMARK SMILES IDX 4 1 2 2 1 3 3 4 5 5 6 6 7 7 11 8 8 9 10 10 9 11 12 12 14 13
REMARK SMILES IDX 13 14
REMARK H PARENT
REMARK Flexibility Score: inf
ROOT
ATOM      1  C   UNL     1       5.739   1.328  -0.391  1.00  0.00     0.080 C 
ENDROOT
BRANCH   1   2
ATOM      2  C   UNL     1       5.166   1.326   0.984  1.00  0.00     0.130 C 
ATOM      3  C   UNL     1       5.371   0.184   1.914  1.00  0.00     0.087 C 
ATOM      4  O   UNL     1       4.506   2.269   1.389  1.00  0.00    -0.300 OA
ENDBRANCH   1   2
BRANCH   1   5
ATOM      5  C   UNL     1       7.239   1.112  -0.363  1.00  0.00     0.043 C 
BRANCH   5   6
ATOM      6  C   UNL     1       7.615  -0.192  -0.936  1.00  0.00    -0.044 A 
ATOM      7  C   UNL     1       7.695  -0.390  -2.319  1.00  0.00     0.008 A 
ATOM      8  C   UNL     1       7.898  -1.248  -0.100  1.00  0.00     0.054 A 
ATOM      9  C   UNL     1       8.053  -1.636  -2.799  1.00  0.00     0.051 A 
ATOM     10  C   UNL     1       8.261  -2.506  -0.591  1.00  0.00     0.166 A 
ATOM     11  C   UNL     1       8.339  -2.702  -1.952  1.00  0.00     0.165 A 
ATOM     12  O   UNL     1       8.585  -3.697   0.024  1.00  0.00    -0.454 OA
ATOM     13  O   UNL     1       8.714  -4.022  -2.146  1.00  0.00    -0.454 OA
ATOM     14  C   UNL     1       8.969  -4.664  -0.920  1.00  0.00     0.468 C 
ENDBRANCH   5   6
ENDBRANCH   1   5
TORSDOF 3
ENDMDL
MODEL 4
REMARK VINA RESULT:      -7.5      1.843      2.813
REMARK SMILES CC(=O)CCc1ccc2c(c1)OCO2
REMARK SMILES IDX 4 1 2 2 1 3 3 4 5 5 6 6 7 7 11 8 8 9 10 10 9 11 12 12 14 13
REMARK SMILES IDX 13 14
REMARK H PARENT
REMARK Flexibility Score: inf
ROOT
ATOM      1  C   UNL     1       6.453   1.024   1.007  1.00  0.00     0.080 C 
ENDROOT
BRANCH   1   2
ATOM      2  C   UNL     1       5.162   1.763   0.930  1.00  0.00     0.130 C 
ATOM      3  C   UNL     1       4.839   2.654  -0.217  1.00  0.00     0.087 C 
ATOM      4  O   UNL     1       4.326   1.659   1.813  1.00  0.00    -0.300 OA
ENDBRANCH   1   2
BRANCH   1   5
ATOM      5  C   UNL     1       7.261   1.193  -0.264  1.00  0.00     0.043 C 
BRANCH   5   6
ATOM      6  C   UNL     1       7.633  -0.106  -0.852  1.00  0.00    -0.044 A 
ATOM      7  C   UNL     1       7.757  -0.275  -2.236  1.00  0.00     0.008 A 
ATOM      8  C   UNL     1       7.870  -1.184  -0.030  1.00  0.00     0.054 A 
ATOM      9  C   UNL     1       8.110  -1.518  -2.731  1.00  0.00     0.051 A 
ATOM     10  C   UNL     1       8.228  -2.437  -0.535  1.00  0.00     0.166 A 
ATOM     11  C   UNL     1       8.348  -2.606  -1.897  1.00  0.00     0.165 A 
ATOM     12  O   UNL     1       8.511  -3.646   0.065  1.00  0.00    -0.454 OA
ATOM     13  O   UNL     1       8.707  -3.928  -2.107  1.00  0.00    -0.454 OA
ATOM     14  C   UNL     1       8.910  -4.600  -0.886  1.00  0.00     0.468 C 
ENDBRANCH   5   6
ENDBRANCH   1   5
TORSDOF 3
ENDMDL
MODEL 5
REMARK VINA RESULT:      -7.4      1.317      1.800
REMARK SMILES CC(=O)CCc1ccc2c(c1)OCO2
REMARK SMILES IDX 4 1 2 2 1 3 3 4 5 5 6 6 7 7 11 8 8 9 10 10 9 11 12 12 14 13
REMARK SMILES IDX 13 14
REMARK H PARENT
REMARK Flexibility Score: inf
ROOT
ATOM      1  C   UNL     1       5.369   1.586   0.199  1.00  0.00     0.080 C 
ENDROOT
BRANCH   1   2
ATOM      2  C   UNL     1       6.108   2.673   0.900  1.00  0.00     0.130 C 
ATOM      3  C   UNL     1       6.486   3.933   0.206  1.00  0.00     0.087 C 
ATOM      4  O   UNL     1       6.429   2.558   2.072  1.00  0.00    -0.300 OA
ENDBRANCH   1   2
BRANCH   1   5
ATOM      5  C   UNL     1       6.182   1.016  -0.946  1.00  0.00     0.043 C 
BRANCH   5   6
ATOM      6  C   UNL     1       6.828  -0.256  -0.578  1.00  0.00    -0.044 A 
ATOM      7  C   UNL     1       6.935  -0.665   0.756  1.00  0.00     0.008 A 
ATOM      8  C   UNL     1       7.339  -1.071  -1.562  1.00  0.00     0.054 A 
ATOM      9  C   UNL     1       7.551  -1.870   1.042  1.00  0.00     0.051 A 
ATOM     10  C   UNL     1       7.960  -2.289  -1.268  1.00  0.00     0.166 A 
ATOM     11  C   UNL     1       8.067  -2.691   0.044  1.00  0.00     0.165 A 
ATOM     12  O   UNL     1       8.540  -3.262  -2.055  1.00  0.00    -0.454 OA
ATOM     13  O   UNL     1       8.717  -3.916   0.037  1.00  0.00    -0.454 OA
ATOM     14  C   UNL     1       8.953  -4.357  -1.279  1.00  0.00     0.468 C 
ENDBRANCH   5   6
ENDBRANCH   1   5
TORSDOF 3
ENDMDL
