@<TRIPOS>MOLECULE
/home/cewinharhar/GITHUB/reincatalyze/data/processed/docking_pred/2023-May-22-1902_sub9_nm5_bs15_s42_ex16_mel10_mts1000_k50_ec02_g099_lra9e-4_lrc1e-3/e4036567ae6c7c824a0e93db279f74886267d276_ligand_9.pdbqt
 14 15 0 0 0
SMALL
GASTEIGER

@<TRIPOS>ATOM
      1  C          5.3690    1.5860    0.1990 C.3     1  UNL1        0.0800
      2  C          6.1080    2.6730    0.9000 C.2     1  UNL1        0.1300
      3  C          6.4860    3.9330    0.2060 C.3     1  UNL1        0.0870
      4  O          6.4290    2.5580    2.0720 O.2     1  UNL1       -0.3000
      5  C          6.1820    1.0160   -0.9460 C.3     1  UNL1        0.0430
      6  C          6.8280   -0.2560   -0.5780 C.2     1  UNL1       -0.0440
      7  C          6.9350   -0.6650    0.7560 C.2     1  UNL1        0.0080
      8  C          7.3390   -1.0710   -1.5620 C.2     1  UNL1        0.0540
      9  C          7.5510   -1.8700    1.0420 C.2     1  UNL1        0.0510
     10  C          7.9600   -2.2890   -1.2680 C.2     1  UNL1        0.1660
     11  C          8.0670   -2.6910    0.0440 C.2     1  UNL1        0.1650
     12  O          8.5400   -3.2620   -2.0550 O.2     1  UNL1       -0.4540
     13  O          8.7170   -3.9160    0.0370 O.2     1  UNL1       -0.4540
     14  C          8.9530   -4.3570   -1.2790 C.3     1  UNL1        0.4680
@<TRIPOS>BOND
     1    12    14    1
     2    12    10    1
     3     8    10    1
     4     8     6    2
     5    14    13    1
     6    10    11    2
     7     5     6    1
     8     5     1    1
     9     6     7    1
    10    13    11    1
    11    11     9    1
    12     1     2    1
    13     3     2    1
    14     7     9    2
    15     2     4    2
