@<TRIPOS>MOLECULE
/home/cewinharhar/GITHUB/reincatalyze/data/processed/docking_pred/2023-May-22-1902_sub9_nm5_bs15_s42_ex16_mel10_mts1000_k50_ec02_g099_lra9e-4_lrc1e-3/e4036567ae6c7c824a0e93db279f74886267d276_ligand_9.pdbqt
 14 15 0 0 0
SMALL
GASTEIGER

@<TRIPOS>ATOM
      1  C          5.5330    1.9260    1.2750 C.3     1  UNL1        0.0800
      2  C          5.0910    0.7080    2.0090 C.2     1  UNL1        0.1300
      3  C          5.9860   -0.4680    2.1810 C.3     1  UNL1        0.0870
      4  O          3.9740    0.6400    2.4950 O.2     1  UNL1       -0.3000
      5  C          5.4040    1.7420   -0.2240 C.3     1  UNL1        0.0430
      6  C          6.5690    1.0390   -0.7910 C.2     1  UNL1       -0.0440
      7  C          7.8770    1.4750   -0.5490 C.2     1  UNL1        0.0080
      8  C          6.3780   -0.0750   -1.5760 C.2     1  UNL1        0.0540
      9  C          8.9310    0.7750   -1.1070 C.2     1  UNL1        0.0510
     10  C          7.4480   -0.7790   -2.1370 C.2     1  UNL1        0.1660
     11  C          8.7350   -0.3500   -1.9010 C.2     1  UNL1        0.1650
     12  O          7.5180   -1.8980   -2.9400 O.2     1  UNL1       -0.4540
     13  O          9.5770   -1.2240   -2.5700 O.2     1  UNL1       -0.4540
     14  C          8.8530   -2.2720   -3.1670 C.3     1  UNL1        0.4680
@<TRIPOS>BOND
     1    14    12    1
     2    14    13    1
     3    12    10    1
     4    13    11    1
     5    10    11    2
     6    10     8    1
     7    11     9    1
     8     8     6    2
     9     9     7    2
    10     6     7    1
    11     6     5    1
    12     5     1    1
    13     1     2    1
    14     2     3    1
    15     2     4    2
