MODEL 1
REMARK VINA RESULT:      -7.9      0.000      0.000
REMARK SMILES CC(=O)CCc1ccc2c(c1)OCO2
REMARK SMILES IDX 4 1 2 2 1 3 3 4 5 5 6 6 7 7 11 8 8 9 10 10 9 11 12 12 14 13
REMARK SMILES IDX 13 14
REMARK H PARENT
REMARK Flexibility Score: inf
ROOT
ATOM      1  C   UNL     1       5.431   2.916   0.085  1.00  0.00     0.080 C 
ENDROOT
BRANCH   1   2
ATOM      2  C   UNL     1       6.267   3.827   0.915  1.00  0.00     0.130 C 
ATOM      3  C   UNL     1       7.236   4.775   0.302  1.00  0.00     0.087 C 
ATOM      4  O   UNL     1       6.180   3.822   2.133  1.00  0.00    -0.300 OA
ENDBRANCH   1   2
BRANCH   1   5
ATOM      5  C   UNL     1       5.154   1.613   0.806  1.00  0.00     0.043 C 
BRANCH   5   6
ATOM      6  C   UNL     1       6.006   0.519   0.306  1.00  0.00    -0.044 A 
ATOM      7  C   UNL     1       6.378  -0.553   1.124  1.00  0.00     0.008 A 
ATOM      8  C   UNL     1       6.449   0.542  -0.997  1.00  0.00     0.054 A 
ATOM      9  C   UNL     1       7.179  -1.552   0.599  1.00  0.00     0.051 A 
ATOM     10  C   UNL     1       7.258  -0.470  -1.523  1.00  0.00     0.166 A 
ATOM     11  C   UNL     1       7.626  -1.525  -0.718  1.00  0.00     0.165 A 
ATOM     12  O   UNL     1       7.821  -0.673  -2.765  1.00  0.00    -0.454 OA
ATOM     13  O   UNL     1       8.414  -2.363  -1.491  1.00  0.00    -0.454 OA
ATOM     14  C   UNL     1       8.488  -1.908  -2.821  1.00  0.00     0.468 C 
ENDBRANCH   5   6
ENDBRANCH   1   5
TORSDOF 3
ENDMDL
MODEL 2
REMARK VINA RESULT:      -7.7      1.897      2.635
REMARK SMILES CC(=O)CCc1ccc2c(c1)OCO2
REMARK SMILES IDX 4 1 2 2 1 3 3 4 5 5 6 6 7 7 11 8 8 9 10 10 9 11 12 12 14 13
REMARK SMILES IDX 13 14
REMARK H PARENT
REMARK Flexibility Score: inf
ROOT
ATOM      1  C   UNL     1       5.539   1.898   1.285  1.00  0.00     0.080 C 
ENDROOT
BRANCH   1   2
ATOM      2  C   UNL     1       5.110   0.675   2.020  1.00  0.00     0.130 C 
ATOM      3  C   UNL     1       6.010  -0.498   2.176  1.00  0.00     0.087 C 
ATOM      4  O   UNL     1       3.998   0.601   2.518  1.00  0.00    -0.300 OA
ENDBRANCH   1   2
BRANCH   1   5
ATOM      5  C   UNL     1       5.407   1.714  -0.213  1.00  0.00     0.043 C 
BRANCH   5   6
ATOM      6  C   UNL     1       6.572   1.014  -0.783  1.00  0.00    -0.044 A 
ATOM      7  C   UNL     1       7.880   1.443  -0.532  1.00  0.00     0.008 A 
ATOM      8  C   UNL     1       6.380  -0.092  -1.580  1.00  0.00     0.054 A 
ATOM      9  C   UNL     1       8.934   0.746  -1.093  1.00  0.00     0.051 A 
ATOM     10  C   UNL     1       7.450  -0.794  -2.144  1.00  0.00     0.166 A 
ATOM     11  C   UNL     1       8.737  -0.371  -1.899  1.00  0.00     0.165 A 
ATOM     12  O   UNL     1       7.520  -1.904  -2.959  1.00  0.00    -0.454 OA
ATOM     13  O   UNL     1       9.580  -1.240  -2.574  1.00  0.00    -0.454 OA
ATOM     14  C   UNL     1       8.854  -2.280  -3.185  1.00  0.00     0.468 C 
ENDBRANCH   5   6
ENDBRANCH   1   5
TORSDOF 3
ENDMDL
MODEL 3
REMARK VINA RESULT:      -7.5      1.939      3.025
REMARK SMILES CC(=O)CCc1ccc2c(c1)OCO2
REMARK SMILES IDX 4 1 2 2 1 3 3 4 5 5 6 6 7 7 11 8 8 9 10 10 9 11 12 12 14 13
REMARK SMILES IDX 13 14
REMARK H PARENT
REMARK Flexibility Score: inf
ROOT
ATOM      1  C   UNL     1       5.724   1.278  -0.315  1.00  0.00     0.080 C 
ENDROOT
BRANCH   1   2
ATOM      2  C   UNL     1       5.186   1.295   1.074  1.00  0.00     0.130 C 
ATOM      3  C   UNL     1       5.315   0.119   1.976  1.00  0.00     0.087 C 
ATOM      4  O   UNL     1       4.618   2.281   1.514  1.00  0.00    -0.300 OA
ENDBRANCH   1   2
BRANCH   1   5
ATOM      5  C   UNL     1       7.228   1.087  -0.320  1.00  0.00     0.043 C 
BRANCH   5   6
ATOM      6  C   UNL     1       7.613  -0.208  -0.909  1.00  0.00    -0.044 A 
ATOM      7  C   UNL     1       7.712  -0.383  -2.294  1.00  0.00     0.008 A 
ATOM      8  C   UNL     1       7.886  -1.277  -0.086  1.00  0.00     0.054 A 
ATOM      9  C   UNL     1       8.078  -1.621  -2.789  1.00  0.00     0.051 A 
ATOM     10  C   UNL     1       8.257  -2.527  -0.592  1.00  0.00     0.166 A 
ATOM     11  C   UNL     1       8.353  -2.700  -1.955  1.00  0.00     0.165 A 
ATOM     12  O   UNL     1       8.574  -3.727   0.008  1.00  0.00    -0.454 OA
ATOM     13  O   UNL     1       8.733  -4.016  -2.166  1.00  0.00    -0.454 OA
ATOM     14  C   UNL     1       8.972  -4.678  -0.947  1.00  0.00     0.468 C 
ENDBRANCH   5   6
ENDBRANCH   1   5
TORSDOF 3
ENDMDL
MODEL 4
REMARK VINA RESULT:      -7.4      1.803      2.807
REMARK SMILES CC(=O)CCc1ccc2c(c1)OCO2
REMARK SMILES IDX 4 1 2 2 1 3 3 4 5 5 6 6 7 7 11 8 8 9 10 10 9 11 12 12 14 13
REMARK SMILES IDX 13 14
REMARK H PARENT
REMARK Flexibility Score: inf
ROOT
ATOM      1  C   UNL     1       6.079   0.753   1.157  1.00  0.00     0.080 C 
ENDROOT
BRANCH   1   2
ATOM      2  C   UNL     1       4.980   1.741   0.974  1.00  0.00     0.130 C 
ATOM      3  C   UNL     1       4.926   2.639  -0.211  1.00  0.00     0.087 C 
ATOM      4  O   UNL     1       4.085   1.843   1.797  1.00  0.00    -0.300 OA
ENDBRANCH   1   2
BRANCH   1   5
ATOM      5  C   UNL     1       7.195   0.979   0.155  1.00  0.00     0.043 C 
BRANCH   5   6
ATOM      6  C   UNL     1       7.556  -0.264  -0.550  1.00  0.00    -0.044 A 
ATOM      7  C   UNL     1       7.545  -0.343  -1.947  1.00  0.00     0.008 A 
ATOM      8  C   UNL     1       7.917  -1.378   0.173  1.00  0.00     0.054 A 
ATOM      9  C   UNL     1       7.894  -1.536  -2.554  1.00  0.00     0.051 A 
ATOM     10  C   UNL     1       8.270  -2.581  -0.446  1.00  0.00     0.166 A 
ATOM     11  C   UNL     1       8.258  -2.661  -1.820  1.00  0.00     0.165 A 
ATOM     12  O   UNL     1       8.659  -3.810   0.043  1.00  0.00    -0.454 OA
ATOM     13  O   UNL     1       8.645  -3.950  -2.151  1.00  0.00    -0.454 OA
ATOM     14  C   UNL     1       8.996  -4.685  -1.003  1.00  0.00     0.468 C 
ENDBRANCH   5   6
ENDBRANCH   1   5
TORSDOF 3
ENDMDL
MODEL 5
REMARK VINA RESULT:      -7.4      1.155      1.604
REMARK SMILES CC(=O)CCc1ccc2c(c1)OCO2
REMARK SMILES IDX 4 1 2 2 1 3 3 4 5 5 6 6 7 7 11 8 8 9 10 10 9 11 12 12 14 13
REMARK SMILES IDX 13 14
REMARK H PARENT
REMARK Flexibility Score: inf
ROOT
ATOM      1  C   UNL     1       5.091   2.616   0.513  1.00  0.00     0.080 C 
ENDROOT
BRANCH   1   2
ATOM      2  C   UNL     1       6.208   3.431   1.066  1.00  0.00     0.130 C 
ATOM      3  C   UNL     1       6.931   4.431   0.236  1.00  0.00     0.087 C 
ATOM      4  O   UNL     1       6.565   3.299   2.226  1.00  0.00    -0.300 OA
ENDBRANCH   1   2
BRANCH   1   5
ATOM      5  C   UNL     1       5.575   1.696  -0.590  1.00  0.00     0.043 C 
BRANCH   5   6
ATOM      6  C   UNL     1       6.173   0.462  -0.050  1.00  0.00    -0.044 A 
ATOM      7  C   UNL     1       5.948   0.055   1.270  1.00  0.00     0.008 A 
ATOM      8  C   UNL     1       6.972  -0.318  -0.855  1.00  0.00     0.054 A 
ATOM      9  C   UNL     1       6.535  -1.112   1.722  1.00  0.00     0.051 A 
ATOM     10  C   UNL     1       7.563  -1.499  -0.393  1.00  0.00     0.166 A 
ATOM     11  C   UNL     1       7.343  -1.899   0.906  1.00  0.00     0.165 A 
ATOM     12  O   UNL     1       8.384  -2.433  -0.987  1.00  0.00    -0.454 OA
ATOM     13  O   UNL     1       8.040  -3.083   1.085  1.00  0.00    -0.454 OA
ATOM     14  C   UNL     1       8.641  -3.505  -0.117  1.00  0.00     0.468 C 
ENDBRANCH   5   6
ENDBRANCH   1   5
TORSDOF 3
ENDMDL
