@<TRIPOS>MOLECULE
/home/cewinharhar/GITHUB/reincatalyze/data/processed/docking_pred/2023-May-22-1902_sub9_nm5_bs15_s42_ex16_mel10_mts1000_k50_ec02_g099_lra9e-4_lrc1e-3/e5153a6a2872aa0f73be7da8df97a591d10f8a10_ligand_9.pdbqt
 14 15 0 0 0
SMALL
GASTEIGER

@<TRIPOS>ATOM
      1  C          5.5390    1.8980    1.2850 C.3     1  UNL1        0.0800
      2  C          5.1100    0.6750    2.0200 C.2     1  UNL1        0.1300
      3  C          6.0100   -0.4980    2.1760 C.3     1  UNL1        0.0870
      4  O          3.9980    0.6010    2.5180 O.2     1  UNL1       -0.3000
      5  C          5.4070    1.7140   -0.2130 C.3     1  UNL1        0.0430
      6  C          6.5720    1.0140   -0.7830 C.2     1  UNL1       -0.0440
      7  C          7.8800    1.4430   -0.5320 C.2     1  UNL1        0.0080
      8  C          6.3800   -0.0920   -1.5800 C.2     1  UNL1        0.0540
      9  C          8.9340    0.7460   -1.0930 C.2     1  UNL1        0.0510
     10  C          7.4500   -0.7940   -2.1440 C.2     1  UNL1        0.1660
     11  C          8.7370   -0.3710   -1.8990 C.2     1  UNL1        0.1650
     12  O          7.5200   -1.9040   -2.9590 O.2     1  UNL1       -0.4540
     13  O          9.5800   -1.2400   -2.5740 O.2     1  UNL1       -0.4540
     14  C          8.8540   -2.2800   -3.1850 C.3     1  UNL1        0.4680
@<TRIPOS>BOND
     1    14    12    1
     2    14    13    1
     3    12    10    1
     4    13    11    1
     5    10    11    2
     6    10     8    1
     7    11     9    1
     8     8     6    2
     9     9     7    2
    10     6     7    1
    11     6     5    1
    12     5     1    1
    13     1     2    1
    14     2     3    1
    15     2     4    2
