@<TRIPOS>MOLECULE
/home/cewinharhar/GITHUB/reincatalyze/data/processed/docking_pred/2023-May-22-1902_sub9_nm5_bs15_s42_ex16_mel10_mts1000_k50_ec02_g099_lra9e-4_lrc1e-3/e69dee760b6a4f483691253cffcee702e9155e2b_ligand_9.pdbqt
 14 15 0 0 0
SMALL
GASTEIGER

@<TRIPOS>ATOM
      1  C          5.7550    1.3080   -0.3250 C.3     1  UNL1        0.0800
      2  C          5.1660    1.2980    1.0430 C.2     1  UNL1        0.1300
      3  C          5.3240    0.1310    1.9530 C.3     1  UNL1        0.0870
      4  O          4.5330    2.2540    1.4600 O.2     1  UNL1       -0.3000
      5  C          7.2490    1.0550   -0.2840 C.3     1  UNL1        0.0430
      6  C          7.6000   -0.2420   -0.8900 C.2     1  UNL1       -0.0440
      7  C          7.6200   -0.4210   -2.2780 C.2     1  UNL1        0.0080
      8  C          7.9200   -1.3080   -0.0810 C.2     1  UNL1        0.0540
      9  C          7.9590   -1.6600   -2.7900 C.2     1  UNL1        0.0510
     10  C          8.2620   -2.5590   -0.6040 C.2     1  UNL1        0.1660
     11  C          8.2810   -2.7370   -1.9690 C.2     1  UNL1        0.1650
     12  O          8.6140   -3.7580   -0.0190 O.2     1  UNL1       -0.4540
     13  O          8.6490   -4.0540   -2.1970 O.2     1  UNL1       -0.4540
     14  C          8.9570   -4.7110   -0.9910 C.3     1  UNL1        0.4680
@<TRIPOS>BOND
     1     9     7    1
     2     9    11    2
     3     7     6    2
     4    13    11    1
     5    13    14    1
     6    11    10    1
     7    14    12    1
     8     6     5    1
     9     6     8    1
    10    10     8    2
    11    10    12    1
    12     1     5    1
    13     1     2    1
    14     2     4    2
    15     2     3    1
