@<TRIPOS>MOLECULE
/home/cewinharhar/GITHUB/reincatalyze/data/processed/docking_pred/2023-May-22-1902_sub9_nm5_bs15_s42_ex16_mel10_mts1000_k50_ec02_g099_lra9e-4_lrc1e-3/e69dee760b6a4f483691253cffcee702e9155e2b_ligand_9.pdbqt
 14 15 0 0 0
SMALL
GASTEIGER

@<TRIPOS>ATOM
      1  C          5.4220    2.9790    0.0350 C.3     1  UNL1        0.0800
      2  C          6.3320    3.7330    0.9410 C.2     1  UNL1        0.1300
      3  C          7.2610    4.7750    0.4270 C.3     1  UNL1        0.0870
      4  O          6.3420    3.5150    2.1420 O.2     1  UNL1       -0.3000
      5  C          5.0470    1.6340    0.6250 C.3     1  UNL1        0.0430
      6  C          5.9300    0.5590    0.1380 C.2     1  UNL1       -0.0440
      7  C          6.4000    0.5370   -1.1800 C.2     1  UNL1        0.0080
      8  C          6.3100   -0.4510    0.9930 C.2     1  UNL1        0.0540
      9  C          7.2270   -0.4970   -1.5800 C.2     1  UNL1        0.0510
     10  C          7.1470   -1.4940    0.5830 C.2     1  UNL1        0.1660
     11  C          7.6090   -1.5170   -0.7140 C.2     1  UNL1        0.1650
     12  O          7.6590   -2.5970    1.2320 O.2     1  UNL1       -0.4540
     13  O          8.4040   -2.6460   -0.8360 O.2     1  UNL1       -0.4540
     14  C          8.5370   -3.3100    0.3990 C.3     1  UNL1        0.4680
@<TRIPOS>BOND
     1     9     7    1
     2     9    11    2
     3     7     6    2
     4    13    11    1
     5    13    14    1
     6    11    10    1
     7     1     5    1
     8     1     2    1
     9     6     5    1
    10     6     8    1
    11    14    12    1
    12     3     2    1
    13    10     8    2
    14    10    12    1
    15     2     4    2
