@<TRIPOS>MOLECULE
/home/cewinharhar/GITHUB/reincatalyze/data/processed/docking_pred/2023-May-22-1902_sub9_nm5_bs15_s42_ex16_mel10_mts1000_k50_ec02_g099_lra9e-4_lrc1e-3/e69dee760b6a4f483691253cffcee702e9155e2b_ligand_9.pdbqt
 14 15 0 0 0
SMALL
GASTEIGER

@<TRIPOS>ATOM
      1  C          5.4810    2.8980    0.2210 C.3     1  UNL1        0.0800
      2  C          6.3070    3.8520    1.0130 C.2     1  UNL1        0.1300
      3  C          7.2760    4.7730    0.3600 C.3     1  UNL1        0.0870
      4  O          6.2110    3.9050    2.2280 O.2     1  UNL1       -0.3000
      5  C          5.2450    1.6100    0.9850 C.3     1  UNL1        0.0430
      6  C          6.0710    0.5060    0.4640 C.2     1  UNL1       -0.0440
      7  C          6.4720   -0.5580    1.2790 C.2     1  UNL1        0.0080
      8  C          6.4600    0.5100   -0.8560 C.2     1  UNL1        0.0540
      9  C          7.2460   -1.5670    0.7350 C.2     1  UNL1        0.0510
     10  C          7.2420   -0.5120   -1.4030 C.2     1  UNL1        0.1660
     11  C          7.6380   -1.5590   -0.6000 C.2     1  UNL1        0.1650
     12  O          7.7520   -0.7330   -2.6640 O.2     1  UNL1       -0.4540
     13  O          8.3900   -2.4100   -1.3950 O.2     1  UNL1       -0.4540
     14  C          8.4110   -1.9710   -2.7320 C.3     1  UNL1        0.4680
@<TRIPOS>BOND
     1    14    12    1
     2    14    13    1
     3    12    10    1
     4    10     8    1
     5    10    11    2
     6    13    11    1
     7     8     6    2
     8    11     9    1
     9     1     5    1
    10     1     2    1
    11     3     2    1
    12     6     5    1
    13     6     7    1
    14     9     7    2
    15     2     4    2
