@<TRIPOS>MOLECULE
/home/cewinharhar/GITHUB/reincatalyze/data/processed/docking_pred/2023-May-22-1902_sub9_nm5_bs15_s42_ex16_mel10_mts1000_k50_ec02_g099_lra9e-4_lrc1e-3/e72dfb9ce69b60d9dd63e32278a4acfac8a78322_ligand_9.pdbqt
 14 15 0 0 0
SMALL
GASTEIGER

@<TRIPOS>ATOM
      1  C          6.3010    0.9070    1.0960 C.3     1  UNL1        0.0800
      2  C          5.0860    1.7540    0.9440 C.2     1  UNL1        0.1300
      3  C          4.8840    2.6230   -0.2460 C.3     1  UNL1        0.0870
      4  O          4.2150    1.7600    1.7990 O.2     1  UNL1       -0.3000
      5  C          7.2530    1.0960   -0.0690 C.3     1  UNL1        0.0430
      6  C          7.5770   -0.1840   -0.7230 C.2     1  UNL1       -0.0440
      7  C          7.5320   -0.3280   -2.1150 C.2     1  UNL1        0.0080
      8  C          7.9360   -1.2700    0.0420 C.2     1  UNL1        0.0540
      9  C          7.8470   -1.5530   -2.6740 C.2     1  UNL1        0.0510
     10  C          8.2540   -2.5070   -0.5280 C.2     1  UNL1        0.1660
     11  C          8.2090   -2.6490   -1.8970 C.2     1  UNL1        0.1650
     12  O          8.6340   -3.7190    0.0080 O.2     1  UNL1       -0.4540
     13  O          8.5660   -3.9590   -2.1760 O.2     1  UNL1       -0.4540
     14  C          8.9320   -4.6470   -1.0030 C.3     1  UNL1        0.4680
@<TRIPOS>BOND
     1     9     7    1
     2     9    11    2
     3    13    11    1
     4    13    14    1
     5     7     6    2
     6    11    10    1
     7    14    12    1
     8     6     5    1
     9     6     8    1
    10    10    12    1
    11    10     8    2
    12     3     2    1
    13     5     1    1
    14     2     1    1
    15     2     4    2
