@<TRIPOS>MOLECULE
/home/cewinharhar/GITHUB/reincatalyze/data/processed/docking_pred/2023-May-22-1902_sub9_nm5_bs15_s42_ex16_mel10_mts1000_k50_ec02_g099_lra9e-4_lrc1e-3/e72dfb9ce69b60d9dd63e32278a4acfac8a78322_ligand_9.pdbqt
 14 15 0 0 0
SMALL
GASTEIGER

@<TRIPOS>ATOM
      1  C          5.4210    2.8920    0.1060 C.3     1  UNL1        0.0800
      2  C          6.2270    3.8320    0.9340 C.2     1  UNL1        0.1300
      3  C          7.2020    4.7740    0.3210 C.3     1  UNL1        0.0870
      4  O          6.1110    3.8550    2.1490 O.2     1  UNL1       -0.3000
      5  C          5.1600    1.5940    0.8430 C.3     1  UNL1        0.0430
      6  C          5.9890    0.4930    0.3210 C.2     1  UNL1       -0.0440
      7  C          6.3350   -0.6060    1.1160 C.2     1  UNL1        0.0080
      8  C          6.4380    0.5350   -0.9800 C.2     1  UNL1        0.0540
      9  C          7.1150   -1.6100    0.5710 C.2     1  UNL1        0.0510
     10  C          7.2250   -0.4830   -1.5260 C.2     1  UNL1        0.1660
     11  C          7.5670   -1.5640   -0.7440 C.2     1  UNL1        0.1650
     12  O          7.7870   -0.6710   -2.7710 O.2     1  UNL1       -0.4540
     13  O          8.3390   -2.4020   -1.5330 O.2     1  UNL1       -0.4540
     14  C          8.4280   -1.9190   -2.8520 C.3     1  UNL1        0.4680
@<TRIPOS>BOND
     1    14    12    1
     2    14    13    1
     3    12    10    1
     4    13    11    1
     5    10     8    1
     6    10    11    2
     7     8     6    2
     8    11     9    1
     9     1     5    1
    10     1     2    1
    11     3     2    1
    12     6     5    1
    13     6     7    1
    14     9     7    2
    15     2     4    2
