@<TRIPOS>MOLECULE
/home/cewinharhar/GITHUB/reincatalyze/data/processed/docking_pred/2023-May-22-1902_sub9_nm5_bs15_s42_ex16_mel10_mts1000_k50_ec02_g099_lra9e-4_lrc1e-3/e72dfb9ce69b60d9dd63e32278a4acfac8a78322_ligand_9.pdbqt
 14 15 0 0 0
SMALL
GASTEIGER

@<TRIPOS>ATOM
      1  C          5.6520    2.8960   -0.2130 C.3     1  UNL1        0.0800
      2  C          6.2960    3.7780    0.8000 C.2     1  UNL1        0.1300
      3  C          7.3370    4.7700    0.4220 C.3     1  UNL1        0.0870
      4  O          5.9860    3.7090    1.9790 O.2     1  UNL1       -0.3000
      5  C          5.2300    1.5740    0.3970 C.3     1  UNL1        0.0430
      6  C          6.0800    0.4630   -0.0670 C.2     1  UNL1       -0.0440
      7  C          6.5110    0.3750   -1.3960 C.2     1  UNL1        0.0080
      8  C          6.4660   -0.5170    0.8190 C.2     1  UNL1        0.0540
      9  C          7.3080   -0.6900   -1.7740 C.2     1  UNL1        0.0510
     10  C          7.2720   -1.5920    0.4320 C.2     1  UNL1        0.1660
     11  C          7.6960   -1.6790   -0.8750 C.2     1  UNL1        0.1650
     12  O          7.7830   -2.6760    1.1130 O.2     1  UNL1       -0.4540
     13  O          8.4680   -2.8270   -0.9700 O.2     1  UNL1       -0.4540
     14  C          8.6240   -3.4400    0.2870 C.3     1  UNL1        0.4680
@<TRIPOS>BOND
     1     9     7    1
     2     9    11    2
     3     7     6    2
     4    13    11    1
     5    13    14    1
     6    11    10    1
     7     1     5    1
     8     1     2    1
     9     6     5    1
    10     6     8    1
    11    14    12    1
    12     3     2    1
    13    10     8    2
    14    10    12    1
    15     2     4    2
