@<TRIPOS>MOLECULE
/home/cewinharhar/GITHUB/reincatalyze/data/processed/docking_pred/2023-May-22-1902_sub9_nm5_bs15_s42_ex16_mel10_mts1000_k50_ec02_g099_lra9e-4_lrc1e-3/e72dfb9ce69b60d9dd63e32278a4acfac8a78322_ligand_9.pdbqt
 14 15 0 0 0
SMALL
GASTEIGER

@<TRIPOS>ATOM
      1  C          5.7160    1.2830   -0.3150 C.3     1  UNL1        0.0800
      2  C          5.1700    1.2850    1.0710 C.2     1  UNL1        0.1300
      3  C          5.2990    0.1010    1.9630 C.3     1  UNL1        0.0870
      4  O          4.5970    2.2660    1.5180 O.2     1  UNL1       -0.3000
      5  C          7.2200    1.0930   -0.3140 C.3     1  UNL1        0.0430
      6  C          7.6070   -0.2020   -0.9010 C.2     1  UNL1       -0.0440
      7  C          7.7110   -0.3780   -2.2860 C.2     1  UNL1        0.0080
      8  C          7.8780   -1.2710   -0.0770 C.2     1  UNL1        0.0540
      9  C          8.0800   -1.6160   -2.7790 C.2     1  UNL1        0.0510
     10  C          8.2510   -2.5210   -0.5810 C.2     1  UNL1        0.1660
     11  C          8.3520   -2.6950   -1.9440 C.2     1  UNL1        0.1650
     12  O          8.5660   -3.7210    0.0200 O.2     1  UNL1       -0.4540
     13  O          8.7330   -4.0110   -2.1520 O.2     1  UNL1       -0.4540
     14  C          8.9680   -4.6720   -0.9320 C.3     1  UNL1        0.4680
@<TRIPOS>BOND
     1     9     7    1
     2     9    11    2
     3     7     6    2
     4    13    11    1
     5    13    14    1
     6    11    10    1
     7    14    12    1
     8     6     5    1
     9     6     8    1
    10    10     8    2
    11    10    12    1
    12     1     5    1
    13     1     2    1
    14     2     4    2
    15     2     3    1
