MODEL 1
REMARK VINA RESULT:      -7.9      0.000      0.000
REMARK SMILES CC(=O)CCc1ccc2c(c1)OCO2
REMARK SMILES IDX 4 1 2 2 1 3 3 4 5 5 6 6 7 7 11 8 8 9 10 10 9 11 12 12 14 13
REMARK SMILES IDX 13 14
REMARK H PARENT
REMARK Flexibility Score: inf
ROOT
ATOM      1  C   UNL     1       5.449   2.928   0.131  1.00  0.00     0.080 C 
ENDROOT
BRANCH   1   2
ATOM      2  C   UNL     1       6.280   3.851   0.952  1.00  0.00     0.130 C 
ATOM      3  C   UNL     1       7.267   4.775   0.331  1.00  0.00     0.087 C 
ATOM      4  O   UNL     1       6.174   3.876   2.168  1.00  0.00    -0.300 OA
ENDBRANCH   1   2
BRANCH   1   5
ATOM      5  C   UNL     1       5.183   1.628   0.864  1.00  0.00     0.043 C 
BRANCH   5   6
ATOM      6  C   UNL     1       6.010   0.526   0.341  1.00  0.00    -0.044 A 
ATOM      7  C   UNL     1       6.362  -0.569   1.138  1.00  0.00     0.008 A 
ATOM      8  C   UNL     1       6.449   0.563  -0.963  1.00  0.00     0.054 A 
ATOM      9  C   UNL     1       7.140  -1.574   0.592  1.00  0.00     0.051 A 
ATOM     10  C   UNL     1       7.235  -0.456  -1.511  1.00  0.00     0.166 A 
ATOM     11  C   UNL     1       7.583  -1.533  -0.726  1.00  0.00     0.165 A 
ATOM     12  O   UNL     1       7.789  -0.648  -2.758  1.00  0.00    -0.454 OA
ATOM     13  O   UNL     1       8.351  -2.373  -1.517  1.00  0.00    -0.454 OA
ATOM     14  C   UNL     1       8.430  -1.895  -2.839  1.00  0.00     0.468 C 
ENDBRANCH   5   6
ENDBRANCH   1   5
TORSDOF 3
ENDMDL
MODEL 2
REMARK VINA RESULT:      -7.8      0.981      1.974
REMARK SMILES CC(=O)CCc1ccc2c(c1)OCO2
REMARK SMILES IDX 4 1 2 2 1 3 3 4 5 5 6 6 7 7 11 8 8 9 10 10 9 11 12 12 14 13
REMARK SMILES IDX 13 14
REMARK H PARENT
REMARK Flexibility Score: inf
ROOT
ATOM      1  C   UNL     1       5.370   2.987   0.172  1.00  0.00     0.080 C 
ENDROOT
BRANCH   1   2
ATOM      2  C   UNL     1       6.273   3.851   0.983  1.00  0.00     0.130 C 
ATOM      3  C   UNL     1       7.250   4.774   0.346  1.00  0.00     0.087 C 
ATOM      4  O   UNL     1       6.236   3.826   2.203  1.00  0.00    -0.300 OA
ENDBRANCH   1   2
BRANCH   1   5
ATOM      5  C   UNL     1       5.128   1.654   0.852  1.00  0.00     0.043 C 
BRANCH   5   6
ATOM      6  C   UNL     1       5.979   0.591   0.289  1.00  0.00    -0.044 A 
ATOM      7  C   UNL     1       6.387   0.611  -1.050  1.00  0.00     0.008 A 
ATOM      8  C   UNL     1       6.389  -0.450   1.090  1.00  0.00     0.054 A 
ATOM      9  C   UNL     1       7.187  -0.414  -1.523  1.00  0.00     0.051 A 
ATOM     10  C   UNL     1       7.198  -1.483   0.607  1.00  0.00     0.166 A 
ATOM     11  C   UNL     1       7.600  -1.465  -0.710  1.00  0.00     0.165 A 
ATOM     12  O   UNL     1       7.731  -2.612   1.194  1.00  0.00    -0.454 OA
ATOM     13  O   UNL     1       8.380  -2.594  -0.907  1.00  0.00    -0.454 OA
ATOM     14  C   UNL     1       8.564  -3.301   0.297  1.00  0.00     0.468 C 
ENDBRANCH   5   6
ENDBRANCH   1   5
TORSDOF 3
ENDMDL
MODEL 3
REMARK VINA RESULT:      -7.7      1.899      2.641
REMARK SMILES CC(=O)CCc1ccc2c(c1)OCO2
REMARK SMILES IDX 4 1 2 2 1 3 3 4 5 5 6 6 7 7 11 8 8 9 10 10 9 11 12 12 14 13
REMARK SMILES IDX 13 14
REMARK H PARENT
REMARK Flexibility Score: inf
ROOT
ATOM      1  C   UNL     1       5.503   1.929   1.255  1.00  0.00     0.080 C 
ENDROOT
BRANCH   1   2
ATOM      2  C   UNL     1       5.071   0.713   1.999  1.00  0.00     0.130 C 
ATOM      3  C   UNL     1       5.970  -0.460   2.167  1.00  0.00     0.087 C 
ATOM      4  O   UNL     1       3.958   0.644   2.494  1.00  0.00    -0.300 OA
ENDBRANCH   1   2
BRANCH   1   5
ATOM      5  C   UNL     1       5.380   1.732  -0.242  1.00  0.00     0.043 C 
BRANCH   5   6
ATOM      6  C   UNL     1       6.549   1.029  -0.799  1.00  0.00    -0.044 A 
ATOM      7  C   UNL     1       7.855   1.460  -0.539  1.00  0.00     0.008 A 
ATOM      8  C   UNL     1       6.365  -0.080  -1.593  1.00  0.00     0.054 A 
ATOM      9  C   UNL     1       8.914   0.760  -1.088  1.00  0.00     0.051 A 
ATOM     10  C   UNL     1       7.439  -0.784  -2.146  1.00  0.00     0.166 A 
ATOM     11  C   UNL     1       8.724  -0.360  -1.891  1.00  0.00     0.165 A 
ATOM     12  O   UNL     1       7.516  -1.898  -2.955  1.00  0.00    -0.454 OA
ATOM     13  O   UNL     1       9.572  -1.232  -2.556  1.00  0.00    -0.454 OA
ATOM     14  C   UNL     1       8.852  -2.275  -3.168  1.00  0.00     0.468 C 
ENDBRANCH   5   6
ENDBRANCH   1   5
TORSDOF 3
ENDMDL
MODEL 4
REMARK VINA RESULT:      -7.6      1.127      1.532
REMARK SMILES CC(=O)CCc1ccc2c(c1)OCO2
REMARK SMILES IDX 4 1 2 2 1 3 3 4 5 5 6 6 7 7 11 8 8 9 10 10 9 11 12 12 14 13
REMARK SMILES IDX 13 14
REMARK H PARENT
REMARK Flexibility Score: inf
ROOT
ATOM      1  C   UNL     1       5.441   2.870   0.254  1.00  0.00     0.080 C 
ENDROOT
BRANCH   1   2
ATOM      2  C   UNL     1       6.263   3.826   1.048  1.00  0.00     0.130 C 
ATOM      3  C   UNL     1       7.205   4.775   0.396  1.00  0.00     0.087 C 
ATOM      4  O   UNL     1       6.187   3.857   2.266  1.00  0.00    -0.300 OA
ENDBRANCH   1   2
BRANCH   1   5
ATOM      5  C   UNL     1       5.711   1.437   0.667  1.00  0.00     0.043 C 
BRANCH   5   6
ATOM      6  C   UNL     1       6.752   0.814  -0.169  1.00  0.00    -0.044 A 
ATOM      7  C   UNL     1       8.019   1.391  -0.314  1.00  0.00     0.008 A 
ATOM      8  C   UNL     1       6.484  -0.365  -0.827  1.00  0.00     0.054 A 
ATOM      9  C   UNL     1       8.957   0.760  -1.111  1.00  0.00     0.051 A 
ATOM     10  C   UNL     1       7.435  -0.999  -1.632  1.00  0.00     0.166 A 
ATOM     11  C   UNL     1       8.682  -0.431  -1.775  1.00  0.00     0.165 A 
ATOM     12  O   UNL     1       7.412  -2.157  -2.379  1.00  0.00    -0.454 OA
ATOM     13  O   UNL     1       9.406  -1.263  -2.615  1.00  0.00    -0.454 OA
ATOM     14  C   UNL     1       8.670  -2.415  -2.948  1.00  0.00     0.468 C 
ENDBRANCH   5   6
ENDBRANCH   1   5
TORSDOF 3
ENDMDL
MODEL 5
REMARK VINA RESULT:      -7.5      1.964      3.034
REMARK SMILES CC(=O)CCc1ccc2c(c1)OCO2
REMARK SMILES IDX 4 1 2 2 1 3 3 4 5 5 6 6 7 7 11 8 8 9 10 10 9 11 12 12 14 13
REMARK SMILES IDX 13 14
REMARK H PARENT
REMARK Flexibility Score: inf
ROOT
ATOM      1  C   UNL     1       5.747   1.340  -0.332  1.00  0.00     0.080 C 
ENDROOT
BRANCH   1   2
ATOM      2  C   UNL     1       5.141   1.287   1.028  1.00  0.00     0.130 C 
ATOM      3  C   UNL     1       5.365   0.132   1.938  1.00  0.00     0.087 C 
ATOM      4  O   UNL     1       4.437   2.196   1.437  1.00  0.00    -0.300 OA
ENDBRANCH   1   2
BRANCH   1   5
ATOM      5  C   UNL     1       7.243   1.104  -0.277  1.00  0.00     0.043 C 
BRANCH   5   6
ATOM      6  C   UNL     1       7.614  -0.191  -0.874  1.00  0.00    -0.044 A 
ATOM      7  C   UNL     1       7.680  -0.367  -2.261  1.00  0.00     0.008 A 
ATOM      8  C   UNL     1       7.908  -1.259  -0.057  1.00  0.00     0.054 A 
ATOM      9  C   UNL     1       8.035  -1.606  -2.764  1.00  0.00     0.051 A 
ATOM     10  C   UNL     1       8.266  -2.509  -0.571  1.00  0.00     0.166 A 
ATOM     11  C   UNL     1       8.330  -2.684  -1.935  1.00  0.00     0.165 A 
ATOM     12  O   UNL     1       8.598  -3.709   0.022  1.00  0.00    -0.454 OA
ATOM     13  O   UNL     1       8.705  -4.000  -2.154  1.00  0.00    -0.454 OA
ATOM     14  C   UNL     1       8.973  -4.661  -0.940  1.00  0.00     0.468 C 
ENDBRANCH   5   6
ENDBRANCH   1   5
TORSDOF 3
ENDMDL
