@<TRIPOS>MOLECULE
/home/cewinharhar/GITHUB/reincatalyze/data/processed/docking_pred/2023-May-22-1902_sub9_nm5_bs15_s42_ex16_mel10_mts1000_k50_ec02_g099_lra9e-4_lrc1e-3/e8fc6854485d68a8d0bf78bf523603f1a9cbeca9_ligand_9.pdbqt
 14 15 0 0 0
SMALL
GASTEIGER

@<TRIPOS>ATOM
      1  C          5.3700    2.9870    0.1720 C.3     1  UNL1        0.0800
      2  C          6.2730    3.8510    0.9830 C.2     1  UNL1        0.1300
      3  C          7.2500    4.7740    0.3460 C.3     1  UNL1        0.0870
      4  O          6.2360    3.8260    2.2030 O.2     1  UNL1       -0.3000
      5  C          5.1280    1.6540    0.8520 C.3     1  UNL1        0.0430
      6  C          5.9790    0.5910    0.2890 C.2     1  UNL1       -0.0440
      7  C          6.3870    0.6110   -1.0500 C.2     1  UNL1        0.0080
      8  C          6.3890   -0.4500    1.0900 C.2     1  UNL1        0.0540
      9  C          7.1870   -0.4140   -1.5230 C.2     1  UNL1        0.0510
     10  C          7.1980   -1.4830    0.6070 C.2     1  UNL1        0.1660
     11  C          7.6000   -1.4650   -0.7100 C.2     1  UNL1        0.1650
     12  O          7.7310   -2.6120    1.1940 O.2     1  UNL1       -0.4540
     13  O          8.3800   -2.5940   -0.9070 O.2     1  UNL1       -0.4540
     14  C          8.5640   -3.3010    0.2970 C.3     1  UNL1        0.4680
@<TRIPOS>BOND
     1     9     7    1
     2     9    11    2
     3     7     6    2
     4    13    11    1
     5    13    14    1
     6    11    10    1
     7     1     5    1
     8     1     2    1
     9     6     5    1
    10     6     8    1
    11    14    12    1
    12     3     2    1
    13    10     8    2
    14    10    12    1
    15     2     4    2
