@<TRIPOS>MOLECULE
/home/cewinharhar/GITHUB/reincatalyze/data/processed/docking_pred/2023-May-22-1902_sub9_nm5_bs15_s42_ex16_mel10_mts1000_k50_ec02_g099_lra9e-4_lrc1e-3/ea9f39b4277e7ba3f00603e8654b95ed05d2571c_ligand_9.pdbqt
 14 15 0 0 0
SMALL
GASTEIGER

@<TRIPOS>ATOM
      1  C          8.0580   -6.0410   11.5550 C.3     1  UNL1        0.0800
      2  C          8.2610   -4.6230   11.9640 C.2     1  UNL1        0.1300
      3  C          7.1610   -3.6250   11.8930 C.3     1  UNL1        0.0870
      4  O          9.3450   -4.2380   12.3720 O.2     1  UNL1       -0.3000
      5  C          8.7920   -6.3520   10.2650 C.3     1  UNL1        0.0430
      6  C         10.0150   -7.1380   10.5070 C.2     1  UNL1       -0.0440
      7  C          9.9640   -8.5140   10.7560 C.2     1  UNL1        0.0080
      8  C         11.2410   -6.5140   10.4880 C.2     1  UNL1        0.0540
      9  C         11.1450   -9.2000   10.9750 C.2     1  UNL1        0.0510
     10  C         12.4320   -7.2110   10.7100 C.2     1  UNL1        0.1660
     11  C         12.3840   -8.5650   10.9560 C.2     1  UNL1        0.1650
     12  O         13.7550   -6.8250   10.7440 O.2     1  UNL1       -0.4540
     13  O         13.6920   -8.9870   11.1360 O.2     1  UNL1       -0.4540
     14  C         14.6000   -7.9340   10.9200 C.3     1  UNL1        0.4680
@<TRIPOS>BOND
     1     5     6    1
     2     5     1    1
     3     8     6    2
     4     8    10    1
     5     6     7    1
     6    10    12    1
     7    10    11    2
     8    12    14    1
     9     7     9    2
    10    14    13    1
    11    11     9    1
    12    11    13    1
    13     1     2    1
    14     3     2    1
    15     2     4    2
