@<TRIPOS>MOLECULE
/home/cewinharhar/GITHUB/reincatalyze/data/processed/docking_pred/2023-May-22-1902_sub9_nm5_bs15_s42_ex16_mel10_mts1000_k50_ec02_g099_lra9e-4_lrc1e-3/ea9f39b4277e7ba3f00603e8654b95ed05d2571c_ligand_9.pdbqt
 14 15 0 0 0
SMALL
GASTEIGER

@<TRIPOS>ATOM
      1  C          8.2670   -5.4920   11.9020 C.3     1  UNL1        0.0800
      2  C          7.6700   -4.2470   11.3420 C.2     1  UNL1        0.1300
      3  C          7.0340   -3.2250   12.2150 C.3     1  UNL1        0.0870
      4  O          7.6850   -4.0300   10.1410 O.2     1  UNL1       -0.3000
      5  C          8.6250   -6.4730   10.8030 C.3     1  UNL1        0.0430
      6  C         10.0560   -6.8270   10.8330 C.2     1  UNL1       -0.0440
      7  C         11.0180   -5.9480   11.3430 C.2     1  UNL1        0.0080
      8  C         10.4650   -8.0500   10.3520 C.2     1  UNL1        0.0540
      9  C         12.3460   -6.3360   11.3460 C.2     1  UNL1        0.0510
     10  C         11.8090   -8.4370   10.3580 C.2     1  UNL1        0.1660
     11  C         12.7570   -7.5730   10.8590 C.2     1  UNL1        0.1650
     12  O         12.4590   -9.5800    9.9430 O.2     1  UNL1       -0.4540
     13  O         13.9820   -8.2100   10.7410 O.2     1  UNL1       -0.4540
     14  C         13.8290   -9.5200   10.2490 C.3     1  UNL1        0.4680
@<TRIPOS>BOND
     1    12    14    1
     2    12    10    1
     3     4     2    2
     4    14    13    1
     5     8    10    1
     6     8     6    2
     7    10    11    2
     8    13    11    1
     9     5     6    1
    10     5     1    1
    11     6     7    1
    12    11     9    1
    13     2     1    1
    14     2     3    1
    15     7     9    2
