@<TRIPOS>MOLECULE
/home/cewinharhar/GITHUB/reincatalyze/data/processed/docking_pred/2023-May-22-1902_sub9_nm5_bs15_s42_ex16_mel10_mts1000_k50_ec02_g099_lra9e-4_lrc1e-3/ea9f39b4277e7ba3f00603e8654b95ed05d2571c_ligand_9.pdbqt
 14 15 0 0 0
SMALL
GASTEIGER

@<TRIPOS>ATOM
      1  C          8.7680   -5.4790   12.3570 C.3     1  UNL1        0.0800
      2  C          7.9470   -4.5670   11.5130 C.2     1  UNL1        0.1300
      3  C          7.1440   -3.4640   12.1070 C.3     1  UNL1        0.0870
      4  O          7.9080   -4.7000   10.3010 O.2     1  UNL1       -0.3000
      5  C         10.2450   -5.3290   12.0530 C.3     1  UNL1        0.0430
      6  C         10.7980   -6.5390   11.4190 C.2     1  UNL1       -0.0440
      7  C         10.0430   -7.7100   11.2910 C.2     1  UNL1        0.0080
      8  C         12.0870   -6.5270   10.9360 C.2     1  UNL1        0.0540
      9  C         10.6140   -8.8140   10.6860 C.2     1  UNL1        0.0510
     10  C         12.6600   -7.6460   10.3250 C.2     1  UNL1        0.1660
     11  C         11.9180   -8.8000   10.1990 C.2     1  UNL1        0.1650
     12  O         13.9010   -7.8830    9.7730 O.2     1  UNL1       -0.4540
     13  O         12.7260   -9.7300    9.5660 O.2     1  UNL1       -0.4540
     14  C         13.9610   -9.1630    9.1960 C.3     1  UNL1        0.4680
@<TRIPOS>BOND
     1    14    13    1
     2    14    12    1
     3    13    11    1
     4    12    10    1
     5    11    10    2
     6    11     9    1
     7     4     2    2
     8    10     8    1
     9     9     7    2
    10     8     6    2
    11     7     6    1
    12     6     5    1
    13     2     3    1
    14     2     1    1
    15     5     1    1
