@<TRIPOS>MOLECULE
/home/cewinharhar/GITHUB/reincatalyze/data/processed/docking_pred/2023-May-22-1902_sub9_nm5_bs15_s42_ex16_mel10_mts1000_k50_ec02_g099_lra9e-4_lrc1e-3/ea9f39b4277e7ba3f00603e8654b95ed05d2571c_ligand_9.pdbqt
 14 15 0 0 0
SMALL
GASTEIGER

@<TRIPOS>ATOM
      1  C          8.5880   -5.6380   12.3260 C.3     1  UNL1        0.0800
      2  C          7.8950   -4.6210   11.4880 C.2     1  UNL1        0.1300
      3  C          7.1680   -3.4740   12.0950 C.3     1  UNL1        0.0870
      4  O          7.9040   -4.7010   10.2700 O.2     1  UNL1       -0.3000
      5  C          8.2310   -7.0460   11.8920 C.3     1  UNL1        0.0430
      6  C          9.4250   -7.8210   11.5120 C.2     1  UNL1       -0.0440
      7  C          9.5220   -9.1930   11.7710 C.2     1  UNL1        0.0080
      8  C         10.4760   -7.1910   10.8850 C.2     1  UNL1        0.0540
      9  C         10.6680   -9.8680   11.3910 C.2     1  UNL1        0.0510
     10  C         11.6320   -7.8790   10.5020 C.2     1  UNL1        0.1660
     11  C         11.7280   -9.2280   10.7580 C.2     1  UNL1        0.1650
     12  O         12.7950   -7.4850    9.8760 O.2     1  UNL1       -0.4540
     13  O         12.9620   -9.6400   10.2770 O.2     1  UNL1       -0.4540
     14  C         13.6320   -8.5860    9.6290 C.3     1  UNL1        0.4680
@<TRIPOS>BOND
     1    14    12    1
     2    14    13    1
     3    12    10    1
     4     4     2    2
     5    13    11    1
     6    10    11    2
     7    10     8    1
     8    11     9    1
     9     8     6    2
    10     9     7    2
    11     2     3    1
    12     2     1    1
    13     6     7    1
    14     6     5    1
    15     5     1    1
