MODEL 1
REMARK VINA RESULT:      -4.3      0.000      0.000
REMARK SMILES CC(=O)CCc1ccc2c(c1)OCO2
REMARK SMILES IDX 4 1 2 2 1 3 3 4 5 5 6 6 7 7 11 8 8 9 10 10 9 11 12 12 14 13
REMARK SMILES IDX 13 14
REMARK H PARENT
REMARK Flexibility Score: inf
ROOT
ATOM      1  C   UNL     1       8.267  -5.492  11.902  1.00  0.00     0.080 C 
ENDROOT
BRANCH   1   2
ATOM      2  C   UNL     1       7.670  -4.247  11.342  1.00  0.00     0.130 C 
ATOM      3  C   UNL     1       7.034  -3.225  12.215  1.00  0.00     0.087 C 
ATOM      4  O   UNL     1       7.685  -4.030  10.141  1.00  0.00    -0.300 OA
ENDBRANCH   1   2
BRANCH   1   5
ATOM      5  C   UNL     1       8.625  -6.473  10.803  1.00  0.00     0.043 C 
BRANCH   5   6
ATOM      6  C   UNL     1      10.056  -6.827  10.833  1.00  0.00    -0.044 A 
ATOM      7  C   UNL     1      11.018  -5.948  11.343  1.00  0.00     0.008 A 
ATOM      8  C   UNL     1      10.465  -8.050  10.352  1.00  0.00     0.054 A 
ATOM      9  C   UNL     1      12.346  -6.336  11.346  1.00  0.00     0.051 A 
ATOM     10  C   UNL     1      11.809  -8.437  10.358  1.00  0.00     0.166 A 
ATOM     11  C   UNL     1      12.757  -7.573  10.859  1.00  0.00     0.165 A 
ATOM     12  O   UNL     1      12.459  -9.580   9.943  1.00  0.00    -0.454 OA
ATOM     13  O   UNL     1      13.982  -8.210  10.741  1.00  0.00    -0.454 OA
ATOM     14  C   UNL     1      13.829  -9.520  10.249  1.00  0.00     0.468 C 
ENDBRANCH   5   6
ENDBRANCH   1   5
TORSDOF 3
ENDMDL
MODEL 2
REMARK VINA RESULT:      -4.2      1.238      1.855
REMARK SMILES CC(=O)CCc1ccc2c(c1)OCO2
REMARK SMILES IDX 4 1 2 2 1 3 3 4 5 5 6 6 7 7 11 8 8 9 10 10 9 11 12 12 14 13
REMARK SMILES IDX 13 14
REMARK H PARENT
REMARK Flexibility Score: inf
ROOT
ATOM      1  C   UNL     1       8.058  -6.041  11.555  1.00  0.00     0.080 C 
ENDROOT
BRANCH   1   2
ATOM      2  C   UNL     1       8.261  -4.623  11.964  1.00  0.00     0.130 C 
ATOM      3  C   UNL     1       7.161  -3.625  11.893  1.00  0.00     0.087 C 
ATOM      4  O   UNL     1       9.345  -4.238  12.372  1.00  0.00    -0.300 OA
ENDBRANCH   1   2
BRANCH   1   5
ATOM      5  C   UNL     1       8.792  -6.352  10.265  1.00  0.00     0.043 C 
BRANCH   5   6
ATOM      6  C   UNL     1      10.015  -7.138  10.507  1.00  0.00    -0.044 A 
ATOM      7  C   UNL     1       9.964  -8.514  10.756  1.00  0.00     0.008 A 
ATOM      8  C   UNL     1      11.241  -6.514  10.488  1.00  0.00     0.054 A 
ATOM      9  C   UNL     1      11.145  -9.200  10.975  1.00  0.00     0.051 A 
ATOM     10  C   UNL     1      12.432  -7.211  10.710  1.00  0.00     0.166 A 
ATOM     11  C   UNL     1      12.384  -8.565  10.956  1.00  0.00     0.165 A 
ATOM     12  O   UNL     1      13.755  -6.825  10.744  1.00  0.00    -0.454 OA
ATOM     13  O   UNL     1      13.692  -8.987  11.136  1.00  0.00    -0.454 OA
ATOM     14  C   UNL     1      14.600  -7.934  10.920  1.00  0.00     0.468 C 
ENDBRANCH   5   6
ENDBRANCH   1   5
TORSDOF 3
ENDMDL
MODEL 3
REMARK VINA RESULT:      -4.2      0.848      1.736
REMARK SMILES CC(=O)CCc1ccc2c(c1)OCO2
REMARK SMILES IDX 4 1 2 2 1 3 3 4 5 5 6 6 7 7 11 8 8 9 10 10 9 11 12 12 14 13
REMARK SMILES IDX 13 14
REMARK H PARENT
REMARK Flexibility Score: inf
ROOT
ATOM      1  C   UNL     1       8.768  -5.479  12.357  1.00  0.00     0.080 C 
ENDROOT
BRANCH   1   2
ATOM      2  C   UNL     1       7.947  -4.567  11.513  1.00  0.00     0.130 C 
ATOM      3  C   UNL     1       7.144  -3.464  12.107  1.00  0.00     0.087 C 
ATOM      4  O   UNL     1       7.908  -4.700  10.301  1.00  0.00    -0.300 OA
ENDBRANCH   1   2
BRANCH   1   5
ATOM      5  C   UNL     1      10.245  -5.329  12.053  1.00  0.00     0.043 C 
BRANCH   5   6
ATOM      6  C   UNL     1      10.798  -6.539  11.419  1.00  0.00    -0.044 A 
ATOM      7  C   UNL     1      10.043  -7.710  11.291  1.00  0.00     0.008 A 
ATOM      8  C   UNL     1      12.087  -6.527  10.936  1.00  0.00     0.054 A 
ATOM      9  C   UNL     1      10.614  -8.814  10.686  1.00  0.00     0.051 A 
ATOM     10  C   UNL     1      12.660  -7.646  10.325  1.00  0.00     0.166 A 
ATOM     11  C   UNL     1      11.918  -8.800  10.199  1.00  0.00     0.165 A 
ATOM     12  O   UNL     1      13.901  -7.883   9.773  1.00  0.00    -0.454 OA
ATOM     13  O   UNL     1      12.726  -9.730   9.566  1.00  0.00    -0.454 OA
ATOM     14  C   UNL     1      13.961  -9.163   9.196  1.00  0.00     0.468 C 
ENDBRANCH   5   6
ENDBRANCH   1   5
TORSDOF 3
ENDMDL
MODEL 4
REMARK VINA RESULT:      -4.1      1.167      1.836
REMARK SMILES CC(=O)CCc1ccc2c(c1)OCO2
REMARK SMILES IDX 4 1 2 2 1 3 3 4 5 5 6 6 7 7 11 8 8 9 10 10 9 11 12 12 14 13
REMARK SMILES IDX 13 14
REMARK H PARENT
REMARK Flexibility Score: inf
ROOT
ATOM      1  C   UNL     1       8.588  -5.638  12.326  1.00  0.00     0.080 C 
ENDROOT
BRANCH   1   2
ATOM      2  C   UNL     1       7.895  -4.621  11.488  1.00  0.00     0.130 C 
ATOM      3  C   UNL     1       7.168  -3.474  12.095  1.00  0.00     0.087 C 
ATOM      4  O   UNL     1       7.904  -4.701  10.270  1.00  0.00    -0.300 OA
ENDBRANCH   1   2
BRANCH   1   5
ATOM      5  C   UNL     1       8.231  -7.046  11.892  1.00  0.00     0.043 C 
BRANCH   5   6
ATOM      6  C   UNL     1       9.425  -7.821  11.512  1.00  0.00    -0.044 A 
ATOM      7  C   UNL     1       9.522  -9.193  11.771  1.00  0.00     0.008 A 
ATOM      8  C   UNL     1      10.476  -7.191  10.885  1.00  0.00     0.054 A 
ATOM      9  C   UNL     1      10.668  -9.868  11.391  1.00  0.00     0.051 A 
ATOM     10  C   UNL     1      11.632  -7.879  10.502  1.00  0.00     0.166 A 
ATOM     11  C   UNL     1      11.728  -9.228  10.758  1.00  0.00     0.165 A 
ATOM     12  O   UNL     1      12.795  -7.485   9.876  1.00  0.00    -0.454 OA
ATOM     13  O   UNL     1      12.962  -9.640  10.277  1.00  0.00    -0.454 OA
ATOM     14  C   UNL     1      13.632  -8.586   9.629  1.00  0.00     0.468 C 
ENDBRANCH   5   6
ENDBRANCH   1   5
TORSDOF 3
ENDMDL
MODEL 5
REMARK VINA RESULT:      -4.0      0.976      1.847
REMARK SMILES CC(=O)CCc1ccc2c(c1)OCO2
REMARK SMILES IDX 4 1 2 2 1 3 3 4 5 5 6 6 7 7 11 8 8 9 10 10 9 11 12 12 14 13
REMARK SMILES IDX 13 14
REMARK H PARENT
REMARK Flexibility Score: inf
ROOT
ATOM      1  C   UNL     1       8.104  -5.725  11.243  1.00  0.00     0.080 C 
ENDROOT
BRANCH   1   2
ATOM      2  C   UNL     1       7.632  -4.320  11.102  1.00  0.00     0.130 C 
ATOM      3  C   UNL     1       7.228  -3.510  12.282  1.00  0.00     0.087 C 
ATOM      4  O   UNL     1       7.562  -3.789  10.005  1.00  0.00    -0.300 OA
ENDBRANCH   1   2
BRANCH   1   5
ATOM      5  C   UNL     1       9.275  -5.819  12.201  1.00  0.00     0.043 C 
BRANCH   5   6
ATOM      6  C   UNL     1      10.410  -6.549  11.607  1.00  0.00    -0.044 A 
ATOM      7  C   UNL     1      10.228  -7.761  10.930  1.00  0.00     0.008 A 
ATOM      8  C   UNL     1      11.682  -6.036  11.714  1.00  0.00     0.054 A 
ATOM      9  C   UNL     1      11.329  -8.401  10.393  1.00  0.00     0.051 A 
ATOM     10  C   UNL     1      12.793  -6.688  11.169  1.00  0.00     0.166 A 
ATOM     11  C   UNL     1      12.615  -7.880  10.503  1.00  0.00     0.165 A 
ATOM     12  O   UNL     1      14.138  -6.388  11.142  1.00  0.00    -0.454 OA
ATOM     13  O   UNL     1      13.868  -8.291  10.076  1.00  0.00    -0.454 OA
ATOM     14  C   UNL     1      14.850  -7.330  10.380  1.00  0.00     0.468 C 
ENDBRANCH   5   6
ENDBRANCH   1   5
TORSDOF 3
ENDMDL
