@<TRIPOS>MOLECULE
/home/cewinharhar/GITHUB/reincatalyze/data/processed/docking_pred/2023-May-22-1902_sub9_nm5_bs15_s42_ex16_mel10_mts1000_k50_ec02_g099_lra9e-4_lrc1e-3/ea9f39b4277e7ba3f00603e8654b95ed05d2571c_ligand_9.pdbqt
 14 15 0 0 0
SMALL
GASTEIGER

@<TRIPOS>ATOM
      1  C          8.1040   -5.7250   11.2430 C.3     1  UNL1        0.0800
      2  C          7.6320   -4.3200   11.1020 C.2     1  UNL1        0.1300
      3  C          7.2280   -3.5100   12.2820 C.3     1  UNL1        0.0870
      4  O          7.5620   -3.7890   10.0050 O.2     1  UNL1       -0.3000
      5  C          9.2750   -5.8190   12.2010 C.3     1  UNL1        0.0430
      6  C         10.4100   -6.5490   11.6070 C.2     1  UNL1       -0.0440
      7  C         10.2280   -7.7610   10.9300 C.2     1  UNL1        0.0080
      8  C         11.6820   -6.0360   11.7140 C.2     1  UNL1        0.0540
      9  C         11.3290   -8.4010   10.3930 C.2     1  UNL1        0.0510
     10  C         12.7930   -6.6880   11.1690 C.2     1  UNL1        0.1660
     11  C         12.6150   -7.8800   10.5030 C.2     1  UNL1        0.1650
     12  O         14.1380   -6.3880   11.1420 O.2     1  UNL1       -0.4540
     13  O         13.8680   -8.2910   10.0760 O.2     1  UNL1       -0.4540
     14  C         14.8500   -7.3300   10.3800 C.3     1  UNL1        0.4680
@<TRIPOS>BOND
     1     4     2    2
     2    13    14    1
     3    13    11    1
     4    14    12    1
     5     9    11    2
     6     9     7    1
     7    11    10    1
     8     7     6    2
     9     2     1    1
    10     2     3    1
    11    12    10    1
    12    10     8    2
    13     1     5    1
    14     6     8    1
    15     6     5    1
