@<TRIPOS>MOLECULE
/home/cewinharhar/GITHUB/reincatalyze/data/processed/docking_pred/2023-May-22-1902_sub9_nm5_bs15_s42_ex16_mel10_mts1000_k50_ec02_g099_lra9e-4_lrc1e-3/eb53456adf8787420c4e8f25112cf644d6bf88f9_ligand_9.pdbqt
 14 15 0 0 0
SMALL
GASTEIGER

@<TRIPOS>ATOM
      1  C          5.4480    2.8750    0.1090 C.3     1  UNL1        0.0800
      2  C          6.2560    3.8260    0.9230 C.2     1  UNL1        0.1300
      3  C          7.2130    4.7750    0.2940 C.3     1  UNL1        0.0870
      4  O          6.1550    3.8530    2.1390 O.2     1  UNL1       -0.3000
      5  C          5.1910    1.5860    0.8630 C.3     1  UNL1        0.0430
      6  C          6.0260    0.4820    0.3580 C.2     1  UNL1       -0.0440
      7  C          6.4200   -0.5770    1.1850 C.2     1  UNL1        0.0080
      8  C          6.4320    0.4800   -0.9570 C.2     1  UNL1        0.0540
      9  C          7.2040   -1.5860    0.6550 C.2     1  UNL1        0.0510
     10  C          7.2230   -0.5430   -1.4880 C.2     1  UNL1        0.1660
     11  C          7.6130   -1.5850   -0.6750 C.2     1  UNL1        0.1650
     12  O          7.7490   -0.7700   -2.7420 O.2     1  UNL1       -0.4540
     13  O          8.3770   -2.4380   -1.4550 O.2     1  UNL1       -0.4540
     14  C          8.4130   -2.0070   -2.7940 C.3     1  UNL1        0.4680
@<TRIPOS>BOND
     1    14    12    1
     2    14    13    1
     3    12    10    1
     4    10     8    1
     5    10    11    2
     6    13    11    1
     7     8     6    2
     8    11     9    1
     9     1     5    1
    10     1     2    1
    11     3     2    1
    12     6     5    1
    13     6     7    1
    14     9     7    2
    15     2     4    2
