@<TRIPOS>MOLECULE
/home/cewinharhar/GITHUB/reincatalyze/data/processed/docking_pred/2023-May-22-1902_sub9_nm5_bs15_s42_ex16_mel10_mts1000_k50_ec02_g099_lra9e-4_lrc1e-3/eb53456adf8787420c4e8f25112cf644d6bf88f9_ligand_9.pdbqt
 14 15 0 0 0
SMALL
GASTEIGER

@<TRIPOS>ATOM
      1  C          5.7390    1.3610   -0.3650 C.3     1  UNL1        0.0800
      2  C          5.1190    1.3190    0.9880 C.2     1  UNL1        0.1300
      3  C          5.3750    0.1960    1.9300 C.3     1  UNL1        0.0870
      4  O          4.3780    2.2120    1.3660 O.2     1  UNL1       -0.3000
      5  C          7.2350    1.1310   -0.2930 C.3     1  UNL1        0.0430
      6  C          7.6180   -0.1640   -0.8850 C.2     1  UNL1       -0.0440
      7  C          7.7310   -0.3320   -2.2700 C.2     1  UNL1        0.0080
      8  C          7.8750   -1.2390   -0.0650 C.2     1  UNL1        0.0540
      9  C          8.0950   -1.5700   -2.7670 C.2     1  UNL1        0.0510
     10  C          8.2430   -2.4880   -0.5730 C.2     1  UNL1        0.1660
     11  C          8.3530   -2.6550   -1.9360 C.2     1  UNL1        0.1650
     12  O          8.5460   -3.6940    0.0240 O.2     1  UNL1       -0.4540
     13  O          8.7270   -3.9730   -2.1490 O.2     1  UNL1       -0.4540
     14  C          8.9480   -4.6420   -0.9310 C.3     1  UNL1        0.4680
@<TRIPOS>BOND
     1     9     7    1
     2     9    11    2
     3     7     6    2
     4    13    11    1
     5    13    14    1
     6    11    10    1
     7    14    12    1
     8     6     5    1
     9     6     8    1
    10    10     8    2
    11    10    12    1
    12     1     5    1
    13     1     2    1
    14     2     4    2
    15     2     3    1
