@<TRIPOS>MOLECULE
/home/cewinharhar/GITHUB/reincatalyze/data/processed/docking_pred/2023-May-22-1902_sub9_nm5_bs15_s42_ex16_mel10_mts1000_k50_ec02_g099_lra9e-4_lrc1e-3/eb53456adf8787420c4e8f25112cf644d6bf88f9_ligand_9.pdbqt
 14 15 0 0 0
SMALL
GASTEIGER

@<TRIPOS>ATOM
      1  C          5.4140    2.9210    0.2200 C.3     1  UNL1        0.0800
      2  C          6.3330    3.7800    1.0180 C.2     1  UNL1        0.1300
      3  C          7.2300    4.7750    0.3710 C.3     1  UNL1        0.0870
      4  O          6.3760    3.6910    2.2340 O.2     1  UNL1       -0.3000
      5  C          5.1840    1.5840    0.8970 C.3     1  UNL1        0.0430
      6  C          6.0150    0.5210    0.3040 C.2     1  UNL1       -0.0440
      7  C          6.3770    0.5430   -1.0480 C.2     1  UNL1        0.0080
      8  C          6.4520   -0.5210    1.0890 C.2     1  UNL1        0.0540
      9  C          7.1600   -0.4810   -1.5500 C.2     1  UNL1        0.0510
     10  C          7.2430   -1.5540    0.5770 C.2     1  UNL1        0.1660
     11  C          7.5990   -1.5340   -0.7530 C.2     1  UNL1        0.1650
     12  O          7.7950   -2.6840    1.1430 O.2     1  UNL1       -0.4540
     13  O          8.3720   -2.6630   -0.9780 O.2     1  UNL1       -0.4540
     14  C          8.5960   -3.3720    0.2170 C.3     1  UNL1        0.4680
@<TRIPOS>BOND
     1     9     7    1
     2     9    11    2
     3     7     6    2
     4    13    11    1
     5    13    14    1
     6    11    10    1
     7    14    12    1
     8     1     5    1
     9     1     2    1
    10     6     5    1
    11     6     8    1
    12     3     2    1
    13    10     8    2
    14    10    12    1
    15     2     4    2
