MODEL 1
REMARK VINA RESULT:      -7.9      0.000      0.000
REMARK SMILES CC(=O)CCc1ccc2c(c1)OCO2
REMARK SMILES IDX 4 1 2 2 1 3 3 4 5 5 6 6 7 7 11 8 8 9 10 10 9 11 12 12 14 13
REMARK SMILES IDX 13 14
REMARK H PARENT
REMARK Flexibility Score: inf
ROOT
ATOM      1  C   UNL     1       5.448   2.875   0.109  1.00  0.00     0.080 C 
ENDROOT
BRANCH   1   2
ATOM      2  C   UNL     1       6.256   3.826   0.923  1.00  0.00     0.130 C 
ATOM      3  C   UNL     1       7.213   4.775   0.294  1.00  0.00     0.087 C 
ATOM      4  O   UNL     1       6.155   3.853   2.139  1.00  0.00    -0.300 OA
ENDBRANCH   1   2
BRANCH   1   5
ATOM      5  C   UNL     1       5.191   1.586   0.863  1.00  0.00     0.043 C 
BRANCH   5   6
ATOM      6  C   UNL     1       6.026   0.482   0.358  1.00  0.00    -0.044 A 
ATOM      7  C   UNL     1       6.420  -0.577   1.185  1.00  0.00     0.008 A 
ATOM      8  C   UNL     1       6.432   0.480  -0.957  1.00  0.00     0.054 A 
ATOM      9  C   UNL     1       7.204  -1.586   0.655  1.00  0.00     0.051 A 
ATOM     10  C   UNL     1       7.223  -0.543  -1.488  1.00  0.00     0.166 A 
ATOM     11  C   UNL     1       7.613  -1.585  -0.675  1.00  0.00     0.165 A 
ATOM     12  O   UNL     1       7.749  -0.770  -2.742  1.00  0.00    -0.454 OA
ATOM     13  O   UNL     1       8.377  -2.438  -1.455  1.00  0.00    -0.454 OA
ATOM     14  C   UNL     1       8.413  -2.007  -2.794  1.00  0.00     0.468 C 
ENDBRANCH   5   6
ENDBRANCH   1   5
TORSDOF 3
ENDMDL
MODEL 2
REMARK VINA RESULT:      -7.8      0.949      1.944
REMARK SMILES CC(=O)CCc1ccc2c(c1)OCO2
REMARK SMILES IDX 4 1 2 2 1 3 3 4 5 5 6 6 7 7 11 8 8 9 10 10 9 11 12 12 14 13
REMARK SMILES IDX 13 14
REMARK H PARENT
REMARK Flexibility Score: inf
ROOT
ATOM      1  C   UNL     1       5.414   2.921   0.220  1.00  0.00     0.080 C 
ENDROOT
BRANCH   1   2
ATOM      2  C   UNL     1       6.333   3.780   1.018  1.00  0.00     0.130 C 
ATOM      3  C   UNL     1       7.230   4.775   0.371  1.00  0.00     0.087 C 
ATOM      4  O   UNL     1       6.376   3.691   2.234  1.00  0.00    -0.300 OA
ENDBRANCH   1   2
BRANCH   1   5
ATOM      5  C   UNL     1       5.184   1.584   0.897  1.00  0.00     0.043 C 
BRANCH   5   6
ATOM      6  C   UNL     1       6.015   0.521   0.304  1.00  0.00    -0.044 A 
ATOM      7  C   UNL     1       6.377   0.543  -1.048  1.00  0.00     0.008 A 
ATOM      8  C   UNL     1       6.452  -0.521   1.089  1.00  0.00     0.054 A 
ATOM      9  C   UNL     1       7.160  -0.481  -1.550  1.00  0.00     0.051 A 
ATOM     10  C   UNL     1       7.243  -1.554   0.577  1.00  0.00     0.166 A 
ATOM     11  C   UNL     1       7.599  -1.534  -0.753  1.00  0.00     0.165 A 
ATOM     12  O   UNL     1       7.795  -2.684   1.143  1.00  0.00    -0.454 OA
ATOM     13  O   UNL     1       8.372  -2.663  -0.978  1.00  0.00    -0.454 OA
ATOM     14  C   UNL     1       8.596  -3.372   0.217  1.00  0.00     0.468 C 
ENDBRANCH   5   6
ENDBRANCH   1   5
TORSDOF 3
ENDMDL
MODEL 3
REMARK VINA RESULT:      -7.7      1.890      2.634
REMARK SMILES CC(=O)CCc1ccc2c(c1)OCO2
REMARK SMILES IDX 4 1 2 2 1 3 3 4 5 5 6 6 7 7 11 8 8 9 10 10 9 11 12 12 14 13
REMARK SMILES IDX 13 14
REMARK H PARENT
REMARK Flexibility Score: inf
ROOT
ATOM      1  C   UNL     1       5.514   1.939   1.253  1.00  0.00     0.080 C 
ENDROOT
BRANCH   1   2
ATOM      2  C   UNL     1       5.087   0.723   2.001  1.00  0.00     0.130 C 
ATOM      3  C   UNL     1       5.994  -0.442   2.179  1.00  0.00     0.087 C 
ATOM      4  O   UNL     1       3.972   0.648   2.492  1.00  0.00    -0.300 OA
ENDBRANCH   1   2
BRANCH   1   5
ATOM      5  C   UNL     1       5.388   1.736  -0.244  1.00  0.00     0.043 C 
BRANCH   5   6
ATOM      6  C   UNL     1       6.558   1.034  -0.801  1.00  0.00    -0.044 A 
ATOM      7  C   UNL     1       7.864   1.466  -0.542  1.00  0.00     0.008 A 
ATOM      8  C   UNL     1       6.374  -0.076  -1.593  1.00  0.00     0.054 A 
ATOM      9  C   UNL     1       8.923   0.767  -1.091  1.00  0.00     0.051 A 
ATOM     10  C   UNL     1       7.448  -0.780  -2.145  1.00  0.00     0.166 A 
ATOM     11  C   UNL     1       8.734  -0.355  -1.892  1.00  0.00     0.165 A 
ATOM     12  O   UNL     1       7.526  -1.895  -2.952  1.00  0.00    -0.454 OA
ATOM     13  O   UNL     1       9.582  -1.227  -2.555  1.00  0.00    -0.454 OA
ATOM     14  C   UNL     1       8.862  -2.272  -3.165  1.00  0.00     0.468 C 
ENDBRANCH   5   6
ENDBRANCH   1   5
TORSDOF 3
ENDMDL
MODEL 4
REMARK VINA RESULT:      -7.6      1.127      1.516
REMARK SMILES CC(=O)CCc1ccc2c(c1)OCO2
REMARK SMILES IDX 4 1 2 2 1 3 3 4 5 5 6 6 7 7 11 8 8 9 10 10 9 11 12 12 14 13
REMARK SMILES IDX 13 14
REMARK H PARENT
REMARK Flexibility Score: inf
ROOT
ATOM      1  C   UNL     1       5.356   2.854   0.171  1.00  0.00     0.080 C 
ENDROOT
BRANCH   1   2
ATOM      2  C   UNL     1       6.262   3.694   1.003  1.00  0.00     0.130 C 
ATOM      3  C   UNL     1       7.093   4.774   0.407  1.00  0.00     0.087 C 
ATOM      4  O   UNL     1       6.348   3.518   2.208  1.00  0.00    -0.300 OA
ENDBRANCH   1   2
BRANCH   1   5
ATOM      5  C   UNL     1       5.527   1.381   0.486  1.00  0.00     0.043 C 
BRANCH   5   6
ATOM      6  C   UNL     1       6.629   0.781  -0.287  1.00  0.00    -0.044 A 
ATOM      7  C   UNL     1       7.894   1.377  -0.344  1.00  0.00     0.008 A 
ATOM      8  C   UNL     1       6.421  -0.396  -0.970  1.00  0.00     0.054 A 
ATOM      9  C   UNL     1       8.890   0.767  -1.085  1.00  0.00     0.051 A 
ATOM     10  C   UNL     1       7.432  -1.008  -1.717  1.00  0.00     0.166 A 
ATOM     11  C   UNL     1       8.676  -0.422  -1.775  1.00  0.00     0.165 A 
ATOM     12  O   UNL     1       7.474  -2.160  -2.473  1.00  0.00    -0.454 OA
ATOM     13  O   UNL     1       9.466  -1.235  -2.573  1.00  0.00    -0.454 OA
ATOM     14  C   UNL     1       8.770  -2.395  -2.963  1.00  0.00     0.468 C 
ENDBRANCH   5   6
ENDBRANCH   1   5
TORSDOF 3
ENDMDL
MODEL 5
REMARK VINA RESULT:      -7.5      1.938      2.992
REMARK SMILES CC(=O)CCc1ccc2c(c1)OCO2
REMARK SMILES IDX 4 1 2 2 1 3 3 4 5 5 6 6 7 7 11 8 8 9 10 10 9 11 12 12 14 13
REMARK SMILES IDX 13 14
REMARK H PARENT
REMARK Flexibility Score: inf
ROOT
ATOM      1  C   UNL     1       5.739   1.361  -0.365  1.00  0.00     0.080 C 
ENDROOT
BRANCH   1   2
ATOM      2  C   UNL     1       5.119   1.319   0.988  1.00  0.00     0.130 C 
ATOM      3  C   UNL     1       5.375   0.196   1.930  1.00  0.00     0.087 C 
ATOM      4  O   UNL     1       4.378   2.212   1.366  1.00  0.00    -0.300 OA
ENDBRANCH   1   2
BRANCH   1   5
ATOM      5  C   UNL     1       7.235   1.131  -0.293  1.00  0.00     0.043 C 
BRANCH   5   6
ATOM      6  C   UNL     1       7.618  -0.164  -0.885  1.00  0.00    -0.044 A 
ATOM      7  C   UNL     1       7.731  -0.332  -2.270  1.00  0.00     0.008 A 
ATOM      8  C   UNL     1       7.875  -1.239  -0.065  1.00  0.00     0.054 A 
ATOM      9  C   UNL     1       8.095  -1.570  -2.767  1.00  0.00     0.051 A 
ATOM     10  C   UNL     1       8.243  -2.488  -0.573  1.00  0.00     0.166 A 
ATOM     11  C   UNL     1       8.353  -2.655  -1.936  1.00  0.00     0.165 A 
ATOM     12  O   UNL     1       8.546  -3.694   0.024  1.00  0.00    -0.454 OA
ATOM     13  O   UNL     1       8.727  -3.973  -2.149  1.00  0.00    -0.454 OA
ATOM     14  C   UNL     1       8.948  -4.642  -0.931  1.00  0.00     0.468 C 
ENDBRANCH   5   6
ENDBRANCH   1   5
TORSDOF 3
ENDMDL
