@<TRIPOS>MOLECULE
/home/cewinharhar/GITHUB/reincatalyze/data/processed/docking_pred/2023-May-22-1902_sub9_nm5_bs15_s42_ex16_mel10_mts1000_k50_ec02_g099_lra9e-4_lrc1e-3/eb9358f7bad4db9539b7d0967c6d7dee777b6146_ligand_9.pdbqt
 14 15 0 0 0
SMALL
GASTEIGER

@<TRIPOS>ATOM
      1  C          5.7690    1.3680   -0.3530 C.3     1  UNL1        0.0800
      2  C          5.1360    1.3210    0.9950 C.2     1  UNL1        0.1300
      3  C          5.4050    0.2100    1.9460 C.3     1  UNL1        0.0870
      4  O          4.3720    2.2000    1.3590 O.2     1  UNL1       -0.3000
      5  C          7.2560    1.0820   -0.2720 C.3     1  UNL1        0.0430
      6  C          7.5970   -0.2160   -0.8810 C.2     1  UNL1       -0.0440
      7  C          7.5940   -0.3990   -2.2680 C.2     1  UNL1        0.0080
      8  C          7.9290   -1.2810   -0.0740 C.2     1  UNL1        0.0540
      9  C          7.9230   -1.6400   -2.7820 C.2     1  UNL1        0.0510
     10  C          8.2620   -2.5330   -0.5990 C.2     1  UNL1        0.1660
     11  C          8.2580   -2.7140   -1.9640 C.2     1  UNL1        0.1650
     12  O          8.6220   -3.7300   -0.0170 O.2     1  UNL1       -0.4540
     13  O          8.6210   -4.0320   -2.1950 O.2     1  UNL1       -0.4540
     14  C          8.9490   -4.6870   -0.9930 C.3     1  UNL1        0.4680
@<TRIPOS>BOND
     1     9     7    1
     2     9    11    2
     3     7     6    2
     4    13    11    1
     5    13    14    1
     6    11    10    1
     7    14    12    1
     8     6     5    1
     9     6     8    1
    10    10     8    2
    11    10    12    1
    12     1     5    1
    13     1     2    1
    14     2     4    2
    15     2     3    1
