MODEL 1
REMARK VINA RESULT:      -8.0      0.000      0.000
REMARK SMILES CC(=O)CCc1ccc2c(c1)OCO2
REMARK SMILES IDX 4 1 2 2 1 3 3 4 5 5 6 6 7 7 11 8 8 9 10 10 9 11 12 12 14 13
REMARK SMILES IDX 13 14
REMARK H PARENT
REMARK Flexibility Score: inf
ROOT
ATOM      1  C   UNL     1       5.429   2.935   0.069  1.00  0.00     0.080 C 
ENDROOT
BRANCH   1   2
ATOM      2  C   UNL     1       6.295   3.789   0.929  1.00  0.00     0.130 C 
ATOM      3  C   UNL     1       7.247   4.773   0.347  1.00  0.00     0.087 C 
ATOM      4  O   UNL     1       6.249   3.704   2.145  1.00  0.00    -0.300 OA
ENDBRANCH   1   2
BRANCH   1   5
ATOM      5  C   UNL     1       5.106   1.619   0.747  1.00  0.00     0.043 C 
BRANCH   5   6
ATOM      6  C   UNL     1       5.960   0.525   0.251  1.00  0.00    -0.044 A 
ATOM      7  C   UNL     1       6.313  -0.557   1.067  1.00  0.00     0.008 A 
ATOM      8  C   UNL     1       6.425   0.555  -1.044  1.00  0.00     0.054 A 
ATOM      9  C   UNL     1       7.116  -1.555   0.547  1.00  0.00     0.051 A 
ATOM     10  C   UNL     1       7.236  -0.457  -1.565  1.00  0.00     0.166 A 
ATOM     11  C   UNL     1       7.585  -1.521  -0.763  1.00  0.00     0.165 A 
ATOM     12  O   UNL     1       7.817  -0.653  -2.800  1.00  0.00    -0.454 OA
ATOM     13  O   UNL     1       8.380  -2.357  -1.530  1.00  0.00    -0.454 OA
ATOM     14  C   UNL     1       8.479  -1.891  -2.855  1.00  0.00     0.468 C 
ENDBRANCH   5   6
ENDBRANCH   1   5
TORSDOF 3
ENDMDL
MODEL 2
REMARK VINA RESULT:      -7.8      1.001      1.995
REMARK SMILES CC(=O)CCc1ccc2c(c1)OCO2
REMARK SMILES IDX 4 1 2 2 1 3 3 4 5 5 6 6 7 7 11 8 8 9 10 10 9 11 12 12 14 13
REMARK SMILES IDX 13 14
REMARK H PARENT
REMARK Flexibility Score: inf
ROOT
ATOM      1  C   UNL     1       5.411   2.931   0.139  1.00  0.00     0.080 C 
ENDROOT
BRANCH   1   2
ATOM      2  C   UNL     1       6.251   3.835   0.974  1.00  0.00     0.130 C 
ATOM      3  C   UNL     1       7.230   4.775   0.365  1.00  0.00     0.087 C 
ATOM      4  O   UNL     1       6.160   3.828   2.191  1.00  0.00    -0.300 OA
ENDBRANCH   1   2
BRANCH   1   5
ATOM      5  C   UNL     1       5.170   1.606   0.834  1.00  0.00     0.043 C 
BRANCH   5   6
ATOM      6  C   UNL     1       6.016   0.535   0.279  1.00  0.00    -0.044 A 
ATOM      7  C   UNL     1       6.457   0.564  -1.049  1.00  0.00     0.008 A 
ATOM      8  C   UNL     1       6.390  -0.522   1.077  1.00  0.00     0.054 A 
ATOM      9  C   UNL     1       7.251  -0.469  -1.515  1.00  0.00     0.051 A 
ATOM     10  C   UNL     1       7.193  -1.563   0.601  1.00  0.00     0.166 A 
ATOM     11  C   UNL     1       7.627  -1.536  -0.706  1.00  0.00     0.165 A 
ATOM     12  O   UNL     1       7.693  -2.707   1.187  1.00  0.00    -0.454 OA
ATOM     13  O   UNL     1       8.392  -2.676  -0.897  1.00  0.00    -0.454 OA
ATOM     14  C   UNL     1       8.535  -3.399   0.302  1.00  0.00     0.468 C 
ENDBRANCH   5   6
ENDBRANCH   1   5
TORSDOF 3
ENDMDL
MODEL 3
REMARK VINA RESULT:      -7.6      1.877      2.616
REMARK SMILES CC(=O)CCc1ccc2c(c1)OCO2
REMARK SMILES IDX 4 1 2 2 1 3 3 4 5 5 6 6 7 7 11 8 8 9 10 10 9 11 12 12 14 13
REMARK SMILES IDX 13 14
REMARK H PARENT
REMARK Flexibility Score: inf
ROOT
ATOM      1  C   UNL     1       5.531   1.927   1.255  1.00  0.00     0.080 C 
ENDROOT
BRANCH   1   2
ATOM      2  C   UNL     1       5.105   0.711   2.003  1.00  0.00     0.130 C 
ATOM      3  C   UNL     1       6.013  -0.453   2.181  1.00  0.00     0.087 C 
ATOM      4  O   UNL     1       3.990   0.635   2.493  1.00  0.00    -0.300 OA
ENDBRANCH   1   2
BRANCH   1   5
ATOM      5  C   UNL     1       5.398   1.728  -0.241  1.00  0.00     0.043 C 
BRANCH   5   6
ATOM      6  C   UNL     1       6.566   1.029  -0.806  1.00  0.00    -0.044 A 
ATOM      7  C   UNL     1       7.873   1.464  -0.554  1.00  0.00     0.008 A 
ATOM      8  C   UNL     1       6.380  -0.081  -1.598  1.00  0.00     0.054 A 
ATOM      9  C   UNL     1       8.930   0.768  -1.110  1.00  0.00     0.051 A 
ATOM     10  C   UNL     1       7.453  -0.781  -2.157  1.00  0.00     0.166 A 
ATOM     11  C   UNL     1       8.739  -0.353  -1.911  1.00  0.00     0.165 A 
ATOM     12  O   UNL     1       7.529  -1.895  -2.967  1.00  0.00    -0.454 OA
ATOM     13  O   UNL     1       9.586  -1.223  -2.581  1.00  0.00    -0.454 OA
ATOM     14  C   UNL     1       8.864  -2.268  -3.188  1.00  0.00     0.468 C 
ENDBRANCH   5   6
ENDBRANCH   1   5
TORSDOF 3
ENDMDL
MODEL 4
REMARK VINA RESULT:      -7.5      1.823      2.839
REMARK SMILES CC(=O)CCc1ccc2c(c1)OCO2
REMARK SMILES IDX 4 1 2 2 1 3 3 4 5 5 6 6 7 7 11 8 8 9 10 10 9 11 12 12 14 13
REMARK SMILES IDX 13 14
REMARK H PARENT
REMARK Flexibility Score: inf
ROOT
ATOM      1  C   UNL     1       6.356   0.922   1.008  1.00  0.00     0.080 C 
ENDROOT
BRANCH   1   2
ATOM      2  C   UNL     1       5.106   1.729   0.951  1.00  0.00     0.130 C 
ATOM      3  C   UNL     1       4.832   2.664  -0.173  1.00  0.00     0.087 C 
ATOM      4  O   UNL     1       4.265   1.646   1.831  1.00  0.00    -0.300 OA
ENDBRANCH   1   2
BRANCH   1   5
ATOM      5  C   UNL     1       7.194   1.113  -0.241  1.00  0.00     0.043 C 
BRANCH   5   6
ATOM      6  C   UNL     1       7.583  -0.175  -0.841  1.00  0.00    -0.044 A 
ATOM      7  C   UNL     1       7.683  -0.337  -2.228  1.00  0.00     0.008 A 
ATOM      8  C   UNL     1       7.858  -1.251  -0.029  1.00  0.00     0.054 A 
ATOM      9  C   UNL     1       8.053  -1.569  -2.735  1.00  0.00     0.051 A 
ATOM     10  C   UNL     1       8.232  -2.495  -0.546  1.00  0.00     0.166 A 
ATOM     11  C   UNL     1       8.330  -2.655  -1.910  1.00  0.00     0.165 A 
ATOM     12  O   UNL     1       8.552  -3.700   0.043  1.00  0.00    -0.454 OA
ATOM     13  O   UNL     1       8.713  -3.969  -2.133  1.00  0.00    -0.454 OA
ATOM     14  C   UNL     1       8.953  -4.641  -0.919  1.00  0.00     0.468 C 
ENDBRANCH   5   6
ENDBRANCH   1   5
TORSDOF 3
ENDMDL
MODEL 5
REMARK VINA RESULT:      -7.5      1.966      3.014
REMARK SMILES CC(=O)CCc1ccc2c(c1)OCO2
REMARK SMILES IDX 4 1 2 2 1 3 3 4 5 5 6 6 7 7 11 8 8 9 10 10 9 11 12 12 14 13
REMARK SMILES IDX 13 14
REMARK H PARENT
REMARK Flexibility Score: inf
ROOT
ATOM      1  C   UNL     1       5.769   1.368  -0.353  1.00  0.00     0.080 C 
ENDROOT
BRANCH   1   2
ATOM      2  C   UNL     1       5.136   1.321   0.995  1.00  0.00     0.130 C 
ATOM      3  C   UNL     1       5.405   0.210   1.946  1.00  0.00     0.087 C 
ATOM      4  O   UNL     1       4.372   2.200   1.359  1.00  0.00    -0.300 OA
ENDBRANCH   1   2
BRANCH   1   5
ATOM      5  C   UNL     1       7.256   1.082  -0.272  1.00  0.00     0.043 C 
BRANCH   5   6
ATOM      6  C   UNL     1       7.597  -0.216  -0.881  1.00  0.00    -0.044 A 
ATOM      7  C   UNL     1       7.594  -0.399  -2.268  1.00  0.00     0.008 A 
ATOM      8  C   UNL     1       7.929  -1.281  -0.074  1.00  0.00     0.054 A 
ATOM      9  C   UNL     1       7.923  -1.640  -2.782  1.00  0.00     0.051 A 
ATOM     10  C   UNL     1       8.262  -2.533  -0.599  1.00  0.00     0.166 A 
ATOM     11  C   UNL     1       8.258  -2.714  -1.964  1.00  0.00     0.165 A 
ATOM     12  O   UNL     1       8.622  -3.730  -0.017  1.00  0.00    -0.454 OA
ATOM     13  O   UNL     1       8.621  -4.032  -2.195  1.00  0.00    -0.454 OA
ATOM     14  C   UNL     1       8.949  -4.687  -0.993  1.00  0.00     0.468 C 
ENDBRANCH   5   6
ENDBRANCH   1   5
TORSDOF 3
ENDMDL
