@<TRIPOS>MOLECULE
/home/cewinharhar/GITHUB/reincatalyze/data/processed/docking_pred/2023-May-22-1902_sub9_nm5_bs15_s42_ex16_mel10_mts1000_k50_ec02_g099_lra9e-4_lrc1e-3/eb9358f7bad4db9539b7d0967c6d7dee777b6146_ligand_9.pdbqt
 14 15 0 0 0
SMALL
GASTEIGER

@<TRIPOS>ATOM
      1  C          6.3560    0.9220    1.0080 C.3     1  UNL1        0.0800
      2  C          5.1060    1.7290    0.9510 C.2     1  UNL1        0.1300
      3  C          4.8320    2.6640   -0.1730 C.3     1  UNL1        0.0870
      4  O          4.2650    1.6460    1.8310 O.2     1  UNL1       -0.3000
      5  C          7.1940    1.1130   -0.2410 C.3     1  UNL1        0.0430
      6  C          7.5830   -0.1750   -0.8410 C.2     1  UNL1       -0.0440
      7  C          7.6830   -0.3370   -2.2280 C.2     1  UNL1        0.0080
      8  C          7.8580   -1.2510   -0.0290 C.2     1  UNL1        0.0540
      9  C          8.0530   -1.5690   -2.7350 C.2     1  UNL1        0.0510
     10  C          8.2320   -2.4950   -0.5460 C.2     1  UNL1        0.1660
     11  C          8.3300   -2.6550   -1.9100 C.2     1  UNL1        0.1650
     12  O          8.5520   -3.7000    0.0430 O.2     1  UNL1       -0.4540
     13  O          8.7130   -3.9690   -2.1330 O.2     1  UNL1       -0.4540
     14  C          8.9530   -4.6410   -0.9190 C.3     1  UNL1        0.4680
@<TRIPOS>BOND
     1     9     7    1
     2     9    11    2
     3     7     6    2
     4    13    11    1
     5    13    14    1
     6    11    10    1
     7    14    12    1
     8     6     5    1
     9     6     8    1
    10    10     8    2
    11    10    12    1
    12     5     1    1
    13     3     2    1
    14     2     1    1
    15     2     4    2
