@<TRIPOS>MOLECULE
/home/cewinharhar/GITHUB/reincatalyze/data/processed/docking_pred/2023-May-22-1902_sub9_nm5_bs15_s42_ex16_mel10_mts1000_k50_ec02_g099_lra9e-4_lrc1e-3/f15420a79f585431148ea344134f913ab78e73cd_ligand_9.pdbqt
 14 15 0 0 0
SMALL
GASTEIGER

@<TRIPOS>ATOM
      1  C          5.7940    1.3130   -0.3520 C.3     1  UNL1        0.0800
      2  C          5.2050    1.3200    1.0160 C.2     1  UNL1        0.1300
      3  C          5.3300    0.1490    1.9250 C.3     1  UNL1        0.0870
      4  O          4.5990    2.2930    1.4320 O.2     1  UNL1       -0.3000
      5  C          7.2870    1.0510   -0.3080 C.3     1  UNL1        0.0430
      6  C          7.6310   -0.2500   -0.9100 C.2     1  UNL1       -0.0440
      7  C          7.6570   -0.4320   -2.2970 C.2     1  UNL1        0.0080
      8  C          7.9390   -1.3170   -0.0970 C.2     1  UNL1        0.0540
      9  C          7.9880   -1.6750   -2.8050 C.2     1  UNL1        0.0510
     10  C          8.2740   -2.5720   -0.6160 C.2     1  UNL1        0.1660
     11  C          8.2980   -2.7520   -1.9810 C.2     1  UNL1        0.1650
     12  O          8.6130   -3.7720   -0.0270 O.2     1  UNL1       -0.4540
     13  O          8.6570   -4.0720   -2.2050 O.2     1  UNL1       -0.4540
     14  C          8.9540   -4.7300   -0.9960 C.3     1  UNL1        0.4680
@<TRIPOS>BOND
     1     9     7    1
     2     9    11    2
     3     7     6    2
     4    13    11    1
     5    13    14    1
     6    11    10    1
     7    14    12    1
     8     6     5    1
     9     6     8    1
    10    10     8    2
    11    10    12    1
    12     1     5    1
    13     1     2    1
    14     2     4    2
    15     2     3    1
