@<TRIPOS>MOLECULE
/home/cewinharhar/GITHUB/reincatalyze/data/processed/docking_pred/2023-May-22-1902_sub9_nm5_bs15_s42_ex16_mel10_mts1000_k50_ec02_g099_lra9e-4_lrc1e-3/f1acaff2cf7a86b9bbc999bfeecc6491fc2a0881_ligand_9.pdbqt
 14 15 0 0 0
SMALL
GASTEIGER

@<TRIPOS>ATOM
      1  C          5.2500    3.1880    0.2500 C.3     1  UNL1        0.0800
      2  C          6.2680    3.9370    1.0390 C.2     1  UNL1        0.1300
      3  C          7.3060    4.7740    0.3800 C.3     1  UNL1        0.0870
      4  O          6.2790    3.8840    2.2580 O.2     1  UNL1       -0.3000
      5  C          4.9370    1.8480    0.8860 C.3     1  UNL1        0.0430
      6  C          5.8100    0.7800    0.3690 C.2     1  UNL1       -0.0440
      7  C          6.2370    0.7630   -0.9640 C.2     1  UNL1        0.0080
      8  C          6.2250   -0.2290    1.2090 C.2     1  UNL1        0.0540
      9  C          7.0570   -0.2650   -1.3920 C.2     1  UNL1        0.0510
     10  C          7.0550   -1.2650    0.7710 C.2     1  UNL1        0.1660
     11  C          7.4740   -1.2840   -0.5410 C.2     1  UNL1        0.1650
     12  O          7.5950   -2.3660    1.4010 O.2     1  UNL1       -0.4540
     13  O          8.2720   -2.4070   -0.6900 O.2     1  UNL1       -0.4540
     14  C          8.4500   -3.0710    0.5380 C.3     1  UNL1        0.4680
@<TRIPOS>BOND
     1     9     7    1
     2     9    11    2
     3     7     6    2
     4    13    11    1
     5    13    14    1
     6    11    10    1
     7     1     5    1
     8     1     2    1
     9     6     5    1
    10     6     8    1
    11     3     2    1
    12    14    12    1
    13    10     8    2
    14    10    12    1
    15     2     4    2
