@<TRIPOS>MOLECULE
/home/cewinharhar/GITHUB/reincatalyze/data/processed/docking_pred/2023-May-22-1902_sub9_nm5_bs15_s42_ex16_mel10_mts1000_k50_ec02_g099_lra9e-4_lrc1e-3/f1acaff2cf7a86b9bbc999bfeecc6491fc2a0881_ligand_9.pdbqt
 14 15 0 0 0
SMALL
GASTEIGER

@<TRIPOS>ATOM
      1  C          5.5350    1.9190    1.2710 C.3     1  UNL1        0.0800
      2  C          5.0940    0.7010    2.0060 C.2     1  UNL1        0.1300
      3  C          5.9930   -0.4710    2.1850 C.3     1  UNL1        0.0870
      4  O          3.9750    0.6300    2.4860 O.2     1  UNL1       -0.3000
      5  C          5.4070    1.7340   -0.2280 C.3     1  UNL1        0.0430
      6  C          6.5710    1.0280   -0.7930 C.2     1  UNL1       -0.0440
      7  C          7.8790    1.4610   -0.5500 C.2     1  UNL1        0.0080
      8  C          6.3780   -0.0860   -1.5790 C.2     1  UNL1        0.0540
      9  C          8.9330    0.7580   -1.1070 C.2     1  UNL1        0.0510
     10  C          7.4460   -0.7930   -2.1380 C.2     1  UNL1        0.1660
     11  C          8.7340   -0.3670   -1.9010 C.2     1  UNL1        0.1650
     12  O          7.5150   -1.9110   -2.9420 O.2     1  UNL1       -0.4540
     13  O          9.5760   -1.2430   -2.5690 O.2     1  UNL1       -0.4540
     14  C          8.8490   -2.2900   -3.1670 C.3     1  UNL1        0.4680
@<TRIPOS>BOND
     1    14    12    1
     2    14    13    1
     3    12    10    1
     4    13    11    1
     5    10    11    2
     6    10     8    1
     7    11     9    1
     8     8     6    2
     9     9     7    2
    10     6     7    1
    11     6     5    1
    12     5     1    1
    13     1     2    1
    14     2     3    1
    15     2     4    2
