@<TRIPOS>MOLECULE
/home/cewinharhar/GITHUB/reincatalyze/data/processed/docking_pred/2023-May-22-1902_sub9_nm5_bs15_s42_ex16_mel10_mts1000_k50_ec02_g099_lra9e-4_lrc1e-3/f1acaff2cf7a86b9bbc999bfeecc6491fc2a0881_ligand_9.pdbqt
 14 15 0 0 0
SMALL
GASTEIGER

@<TRIPOS>ATOM
      1  C          5.5050    2.8800    0.0810 C.3     1  UNL1        0.0800
      2  C          6.1750    3.9260    0.9030 C.2     1  UNL1        0.1300
      3  C          7.2650    4.7750    0.3500 C.3     1  UNL1        0.0870
      4  O          5.8470    4.1180    2.0630 O.2     1  UNL1       -0.3000
      5  C          5.2930    1.6080    0.8780 C.3     1  UNL1        0.0430
      6  C          6.1080    0.4950    0.3580 C.2     1  UNL1       -0.0440
      7  C          6.4810   -0.5820    1.1700 C.2     1  UNL1        0.0080
      8  C          6.5160    0.5040   -0.9560 C.2     1  UNL1        0.0540
      9  C          7.2460   -1.5980    0.6270 C.2     1  UNL1        0.0510
     10  C          7.2890   -0.5260   -1.5010 C.2     1  UNL1        0.1660
     11  C          7.6570   -1.5860   -0.7020 C.2     1  UNL1        0.1650
     12  O          7.8130   -0.7450   -2.7570 O.2     1  UNL1       -0.4540
     13  O          8.4060   -2.4420   -1.4930 O.2     1  UNL1       -0.4540
     14  C          8.4530   -1.9930   -2.8260 C.3     1  UNL1        0.4680
@<TRIPOS>BOND
     1    14    12    1
     2    14    13    1
     3    12    10    1
     4    10     8    1
     5    10    11    2
     6    13    11    1
     7     8     6    2
     8    11     9    1
     9     1     5    1
    10     1     2    1
    11     3     2    1
    12     6     5    1
    13     6     7    1
    14     9     7    2
    15     2     4    2
