@<TRIPOS>MOLECULE
/home/cewinharhar/GITHUB/reincatalyze/data/processed/docking_pred/2023-May-22-1902_sub9_nm5_bs15_s42_ex16_mel10_mts1000_k50_ec02_g099_lra9e-4_lrc1e-3/f1acaff2cf7a86b9bbc999bfeecc6491fc2a0881_ligand_9.pdbqt
 14 15 0 0 0
SMALL
GASTEIGER

@<TRIPOS>ATOM
      1  C          6.1100    0.7900    1.0980 C.3     1  UNL1        0.0800
      2  C          4.9870    1.7590    0.9530 C.2     1  UNL1        0.1300
      3  C          4.8940    2.6780   -0.2120 C.3     1  UNL1        0.0870
      4  O          4.1050    1.8260    1.7940 O.2     1  UNL1       -0.3000
      5  C          7.1680    1.0110    0.0350 C.3     1  UNL1        0.0430
      6  C          7.5400   -0.2470   -0.6360 C.2     1  UNL1       -0.0440
      7  C          7.5480   -0.3590   -2.0310 C.2     1  UNL1        0.0080
      8  C          7.8920   -1.3430    0.1180 C.2     1  UNL1        0.0540
      9  C          7.9070   -1.5650   -2.6050 C.2     1  UNL1        0.0510
     10  C          8.2550   -2.5600   -0.4670 C.2     1  UNL1        0.1660
     11  C          8.2620   -2.6720   -1.8400 C.2     1  UNL1        0.1650
     12  O          8.6390   -3.7770    0.0550 O.2     1  UNL1       -0.4540
     13  O          8.6550   -3.9680   -2.1350 O.2     1  UNL1       -0.4540
     14  C          8.9910   -4.6750   -0.9650 C.3     1  UNL1        0.4680
@<TRIPOS>BOND
     1     9     7    1
     2     9    11    2
     3    13    11    1
     4    13    14    1
     5     7     6    2
     6    11    10    1
     7    14    12    1
     8     6     5    1
     9     6     8    1
    10    10    12    1
    11    10     8    2
    12     3     2    1
    13     5     1    1
    14     2     1    1
    15     2     4    2
