MODEL 1
REMARK VINA RESULT:      -7.8      0.000      0.000
REMARK SMILES CC(=O)CCc1ccc2c(c1)OCO2
REMARK SMILES IDX 4 1 2 2 1 3 3 4 5 5 6 6 7 7 11 8 8 9 10 10 9 11 12 12 14 13
REMARK SMILES IDX 13 14
REMARK H PARENT
REMARK Flexibility Score: inf
ROOT
ATOM      1  C   UNL     1       5.505   2.880   0.081  1.00  0.00     0.080 C 
ENDROOT
BRANCH   1   2
ATOM      2  C   UNL     1       6.175   3.926   0.903  1.00  0.00     0.130 C 
ATOM      3  C   UNL     1       7.265   4.775   0.350  1.00  0.00     0.087 C 
ATOM      4  O   UNL     1       5.847   4.118   2.063  1.00  0.00    -0.300 OA
ENDBRANCH   1   2
BRANCH   1   5
ATOM      5  C   UNL     1       5.293   1.608   0.878  1.00  0.00     0.043 C 
BRANCH   5   6
ATOM      6  C   UNL     1       6.108   0.495   0.358  1.00  0.00    -0.044 A 
ATOM      7  C   UNL     1       6.481  -0.582   1.170  1.00  0.00     0.008 A 
ATOM      8  C   UNL     1       6.516   0.504  -0.956  1.00  0.00     0.054 A 
ATOM      9  C   UNL     1       7.246  -1.598   0.627  1.00  0.00     0.051 A 
ATOM     10  C   UNL     1       7.289  -0.526  -1.501  1.00  0.00     0.166 A 
ATOM     11  C   UNL     1       7.657  -1.586  -0.702  1.00  0.00     0.165 A 
ATOM     12  O   UNL     1       7.813  -0.745  -2.757  1.00  0.00    -0.454 OA
ATOM     13  O   UNL     1       8.406  -2.442  -1.493  1.00  0.00    -0.454 OA
ATOM     14  C   UNL     1       8.453  -1.993  -2.826  1.00  0.00     0.468 C 
ENDBRANCH   5   6
ENDBRANCH   1   5
TORSDOF 3
ENDMDL
MODEL 2
REMARK VINA RESULT:      -7.7      1.910      2.648
REMARK SMILES CC(=O)CCc1ccc2c(c1)OCO2
REMARK SMILES IDX 4 1 2 2 1 3 3 4 5 5 6 6 7 7 11 8 8 9 10 10 9 11 12 12 14 13
REMARK SMILES IDX 13 14
REMARK H PARENT
REMARK Flexibility Score: inf
ROOT
ATOM      1  C   UNL     1       5.535   1.919   1.271  1.00  0.00     0.080 C 
ENDROOT
BRANCH   1   2
ATOM      2  C   UNL     1       5.094   0.701   2.006  1.00  0.00     0.130 C 
ATOM      3  C   UNL     1       5.993  -0.471   2.185  1.00  0.00     0.087 C 
ATOM      4  O   UNL     1       3.975   0.630   2.486  1.00  0.00    -0.300 OA
ENDBRANCH   1   2
BRANCH   1   5
ATOM      5  C   UNL     1       5.407   1.734  -0.228  1.00  0.00     0.043 C 
BRANCH   5   6
ATOM      6  C   UNL     1       6.571   1.028  -0.793  1.00  0.00    -0.044 A 
ATOM      7  C   UNL     1       7.879   1.461  -0.550  1.00  0.00     0.008 A 
ATOM      8  C   UNL     1       6.378  -0.086  -1.579  1.00  0.00     0.054 A 
ATOM      9  C   UNL     1       8.933   0.758  -1.107  1.00  0.00     0.051 A 
ATOM     10  C   UNL     1       7.446  -0.793  -2.138  1.00  0.00     0.166 A 
ATOM     11  C   UNL     1       8.734  -0.367  -1.901  1.00  0.00     0.165 A 
ATOM     12  O   UNL     1       7.515  -1.911  -2.942  1.00  0.00    -0.454 OA
ATOM     13  O   UNL     1       9.576  -1.243  -2.569  1.00  0.00    -0.454 OA
ATOM     14  C   UNL     1       8.849  -2.290  -3.167  1.00  0.00     0.468 C 
ENDBRANCH   5   6
ENDBRANCH   1   5
TORSDOF 3
ENDMDL
MODEL 3
REMARK VINA RESULT:      -7.6      1.077      2.026
REMARK SMILES CC(=O)CCc1ccc2c(c1)OCO2
REMARK SMILES IDX 4 1 2 2 1 3 3 4 5 5 6 6 7 7 11 8 8 9 10 10 9 11 12 12 14 13
REMARK SMILES IDX 13 14
REMARK H PARENT
REMARK Flexibility Score: inf
ROOT
ATOM      1  C   UNL     1       5.250   3.188   0.250  1.00  0.00     0.080 C 
ENDROOT
BRANCH   1   2
ATOM      2  C   UNL     1       6.268   3.937   1.039  1.00  0.00     0.130 C 
ATOM      3  C   UNL     1       7.306   4.774   0.380  1.00  0.00     0.087 C 
ATOM      4  O   UNL     1       6.279   3.884   2.258  1.00  0.00    -0.300 OA
ENDBRANCH   1   2
BRANCH   1   5
ATOM      5  C   UNL     1       4.937   1.848   0.886  1.00  0.00     0.043 C 
BRANCH   5   6
ATOM      6  C   UNL     1       5.810   0.780   0.369  1.00  0.00    -0.044 A 
ATOM      7  C   UNL     1       6.237   0.763  -0.964  1.00  0.00     0.008 A 
ATOM      8  C   UNL     1       6.225  -0.229   1.209  1.00  0.00     0.054 A 
ATOM      9  C   UNL     1       7.057  -0.265  -1.392  1.00  0.00     0.051 A 
ATOM     10  C   UNL     1       7.055  -1.265   0.771  1.00  0.00     0.166 A 
ATOM     11  C   UNL     1       7.474  -1.284  -0.541  1.00  0.00     0.165 A 
ATOM     12  O   UNL     1       7.595  -2.366   1.401  1.00  0.00    -0.454 OA
ATOM     13  O   UNL     1       8.272  -2.407  -0.690  1.00  0.00    -0.454 OA
ATOM     14  C   UNL     1       8.450  -3.071   0.538  1.00  0.00     0.468 C 
ENDBRANCH   5   6
ENDBRANCH   1   5
TORSDOF 3
ENDMDL
MODEL 4
REMARK VINA RESULT:      -7.5      1.955      2.987
REMARK SMILES CC(=O)CCc1ccc2c(c1)OCO2
REMARK SMILES IDX 4 1 2 2 1 3 3 4 5 5 6 6 7 7 11 8 8 9 10 10 9 11 12 12 14 13
REMARK SMILES IDX 13 14
REMARK H PARENT
REMARK Flexibility Score: inf
ROOT
ATOM      1  C   UNL     1       5.780   1.362  -0.359  1.00  0.00     0.080 C 
ENDROOT
BRANCH   1   2
ATOM      2  C   UNL     1       5.147   1.322   0.988  1.00  0.00     0.130 C 
ATOM      3  C   UNL     1       5.405   0.209   1.940  1.00  0.00     0.087 C 
ATOM      4  O   UNL     1       4.391   2.209   1.352  1.00  0.00    -0.300 OA
ENDBRANCH   1   2
BRANCH   1   5
ATOM      5  C   UNL     1       7.267   1.075  -0.277  1.00  0.00     0.043 C 
BRANCH   5   6
ATOM      6  C   UNL     1       7.607  -0.224  -0.884  1.00  0.00    -0.044 A 
ATOM      7  C   UNL     1       7.613  -0.406  -2.271  1.00  0.00     0.008 A 
ATOM      8  C   UNL     1       7.931  -1.290  -0.076  1.00  0.00     0.054 A 
ATOM      9  C   UNL     1       7.941  -1.647  -2.784  1.00  0.00     0.051 A 
ATOM     10  C   UNL     1       8.263  -2.543  -0.599  1.00  0.00     0.166 A 
ATOM     11  C   UNL     1       8.268  -2.724  -1.964  1.00  0.00     0.165 A 
ATOM     12  O   UNL     1       8.616  -3.742  -0.016  1.00  0.00    -0.454 OA
ATOM     13  O   UNL     1       8.628  -4.042  -2.193  1.00  0.00    -0.454 OA
ATOM     14  C   UNL     1       8.946  -4.699  -0.989  1.00  0.00     0.468 C 
ENDBRANCH   5   6
ENDBRANCH   1   5
TORSDOF 3
ENDMDL
MODEL 5
REMARK VINA RESULT:      -7.5      1.789      2.778
REMARK SMILES CC(=O)CCc1ccc2c(c1)OCO2
REMARK SMILES IDX 4 1 2 2 1 3 3 4 5 5 6 6 7 7 11 8 8 9 10 10 9 11 12 12 14 13
REMARK SMILES IDX 13 14
REMARK H PARENT
REMARK Flexibility Score: inf
ROOT
ATOM      1  C   UNL     1       6.110   0.790   1.098  1.00  0.00     0.080 C 
ENDROOT
BRANCH   1   2
ATOM      2  C   UNL     1       4.987   1.759   0.953  1.00  0.00     0.130 C 
ATOM      3  C   UNL     1       4.894   2.678  -0.212  1.00  0.00     0.087 C 
ATOM      4  O   UNL     1       4.105   1.826   1.794  1.00  0.00    -0.300 OA
ENDBRANCH   1   2
BRANCH   1   5
ATOM      5  C   UNL     1       7.168   1.011   0.035  1.00  0.00     0.043 C 
BRANCH   5   6
ATOM      6  C   UNL     1       7.540  -0.247  -0.636  1.00  0.00    -0.044 A 
ATOM      7  C   UNL     1       7.548  -0.359  -2.031  1.00  0.00     0.008 A 
ATOM      8  C   UNL     1       7.892  -1.343   0.118  1.00  0.00     0.054 A 
ATOM      9  C   UNL     1       7.907  -1.565  -2.605  1.00  0.00     0.051 A 
ATOM     10  C   UNL     1       8.255  -2.560  -0.467  1.00  0.00     0.166 A 
ATOM     11  C   UNL     1       8.262  -2.672  -1.840  1.00  0.00     0.165 A 
ATOM     12  O   UNL     1       8.639  -3.777   0.055  1.00  0.00    -0.454 OA
ATOM     13  O   UNL     1       8.655  -3.968  -2.135  1.00  0.00    -0.454 OA
ATOM     14  C   UNL     1       8.991  -4.675  -0.965  1.00  0.00     0.468 C 
ENDBRANCH   5   6
ENDBRANCH   1   5
TORSDOF 3
ENDMDL
