@<TRIPOS>MOLECULE
/home/cewinharhar/GITHUB/reincatalyze/data/processed/docking_pred/2023-May-22-1902_sub9_nm5_bs15_s42_ex16_mel10_mts1000_k50_ec02_g099_lra9e-4_lrc1e-3/f1acaff2cf7a86b9bbc999bfeecc6491fc2a0881_ligand_9.pdbqt
 14 15 0 0 0
SMALL
GASTEIGER

@<TRIPOS>ATOM
      1  C          5.7800    1.3620   -0.3590 C.3     1  UNL1        0.0800
      2  C          5.1470    1.3220    0.9880 C.2     1  UNL1        0.1300
      3  C          5.4050    0.2090    1.9400 C.3     1  UNL1        0.0870
      4  O          4.3910    2.2090    1.3520 O.2     1  UNL1       -0.3000
      5  C          7.2670    1.0750   -0.2770 C.3     1  UNL1        0.0430
      6  C          7.6070   -0.2240   -0.8840 C.2     1  UNL1       -0.0440
      7  C          7.6130   -0.4060   -2.2710 C.2     1  UNL1        0.0080
      8  C          7.9310   -1.2900   -0.0760 C.2     1  UNL1        0.0540
      9  C          7.9410   -1.6470   -2.7840 C.2     1  UNL1        0.0510
     10  C          8.2630   -2.5430   -0.5990 C.2     1  UNL1        0.1660
     11  C          8.2680   -2.7240   -1.9640 C.2     1  UNL1        0.1650
     12  O          8.6160   -3.7420   -0.0160 O.2     1  UNL1       -0.4540
     13  O          8.6280   -4.0420   -2.1930 O.2     1  UNL1       -0.4540
     14  C          8.9460   -4.6990   -0.9890 C.3     1  UNL1        0.4680
@<TRIPOS>BOND
     1     9     7    1
     2     9    11    2
     3     7     6    2
     4    13    11    1
     5    13    14    1
     6    11    10    1
     7    14    12    1
     8     6     5    1
     9     6     8    1
    10    10     8    2
    11    10    12    1
    12     1     5    1
    13     1     2    1
    14     2     4    2
    15     2     3    1
