@<TRIPOS>MOLECULE
/home/cewinharhar/GITHUB/reincatalyze/data/processed/docking_pred/2023-May-22-1902_sub9_nm5_bs15_s42_ex16_mel10_mts1000_k50_ec02_g099_lra9e-4_lrc1e-3/f338baa35ded8d3cb3d8a5b9e0cebf8a24c11f6d_ligand_9.pdbqt
 14 15 0 0 0
SMALL
GASTEIGER

@<TRIPOS>ATOM
      1  C          5.7540    1.3390   -0.3660 C.3     1  UNL1        0.0800
      2  C          5.1290    1.3100    0.9860 C.2     1  UNL1        0.1300
      3  C          5.3720    0.1900    1.9350 C.3     1  UNL1        0.0870
      4  O          4.3940    2.2110    1.3560 O.2     1  UNL1       -0.3000
      5  C          7.2440    1.0710   -0.2890 C.3     1  UNL1        0.0430
      6  C          7.5980   -0.2260   -0.8940 C.2     1  UNL1       -0.0440
      7  C          7.6280   -0.4030   -2.2820 C.2     1  UNL1        0.0080
      8  C          7.9090   -1.2940   -0.0840 C.2     1  UNL1        0.0540
      9  C          7.9680   -1.6430   -2.7930 C.2     1  UNL1        0.0510
     10  C          8.2530   -2.5450   -0.6060 C.2     1  UNL1        0.1660
     11  C          8.2820   -2.7210   -1.9710 C.2     1  UNL1        0.1650
     12  O          8.5970   -3.7450   -0.0200 O.2     1  UNL1       -0.4540
     13  O          8.6480   -4.0380   -2.1980 O.2     1  UNL1       -0.4540
     14  C          8.9460   -4.6980   -0.9910 C.3     1  UNL1        0.4680
@<TRIPOS>BOND
     1     9     7    1
     2     9    11    2
     3     7     6    2
     4    13    11    1
     5    13    14    1
     6    11    10    1
     7    14    12    1
     8     6     5    1
     9     6     8    1
    10    10     8    2
    11    10    12    1
    12     1     5    1
    13     1     2    1
    14     2     4    2
    15     2     3    1
