@<TRIPOS>MOLECULE
/home/cewinharhar/GITHUB/reincatalyze/data/processed/docking_pred/2023-May-22-1902_sub9_nm5_bs15_s42_ex16_mel10_mts1000_k50_ec02_g099_lra9e-4_lrc1e-3/f338baa35ded8d3cb3d8a5b9e0cebf8a24c11f6d_ligand_9.pdbqt
 14 15 0 0 0
SMALL
GASTEIGER

@<TRIPOS>ATOM
      1  C          5.5420    1.9210    1.2650 C.3     1  UNL1        0.0800
      2  C          5.1120    0.7070    2.0120 C.2     1  UNL1        0.1300
      3  C          6.0170   -0.4600    2.1920 C.3     1  UNL1        0.0870
      4  O          3.9960    0.6340    2.5010 O.2     1  UNL1       -0.3000
      5  C          5.4100    1.7230   -0.2320 C.3     1  UNL1        0.0430
      6  C          6.5770    1.0210   -0.7950 C.2     1  UNL1       -0.0440
      7  C          7.8840    1.4500   -0.5390 C.2     1  UNL1        0.0080
      8  C          6.3890   -0.0850   -1.5920 C.2     1  UNL1        0.0540
      9  C          8.9410    0.7510   -1.0940 C.2     1  UNL1        0.0510
     10  C          7.4600   -0.7890   -2.1500 C.2     1  UNL1        0.1660
     11  C          8.7470   -0.3670   -1.8990 C.2     1  UNL1        0.1650
     12  O          7.5330   -1.9000   -2.9630 O.2     1  UNL1       -0.4540
     13  O          9.5920   -1.2370   -2.5700 O.2     1  UNL1       -0.4540
     14  C          8.8680   -2.2780   -3.1820 C.3     1  UNL1        0.4680
@<TRIPOS>BOND
     1    14    12    1
     2    14    13    1
     3    12    10    1
     4    13    11    1
     5    10    11    2
     6    10     8    1
     7    11     9    1
     8     8     6    2
     9     9     7    2
    10     6     7    1
    11     6     5    1
    12     5     1    1
    13     1     2    1
    14     2     3    1
    15     2     4    2
