@<TRIPOS>MOLECULE
/home/cewinharhar/GITHUB/reincatalyze/data/processed/docking_pred/2023-May-22-1902_sub9_nm5_bs15_s42_ex16_mel10_mts1000_k50_ec02_g099_lra9e-4_lrc1e-3/f338baa35ded8d3cb3d8a5b9e0cebf8a24c11f6d_ligand_9.pdbqt
 14 15 0 0 0
SMALL
GASTEIGER

@<TRIPOS>ATOM
      1  C          5.4130    2.9460    0.1170 C.3     1  UNL1        0.0800
      2  C          6.2870    3.8180    0.9500 C.2     1  UNL1        0.1300
      3  C          7.2480    4.7740    0.3360 C.3     1  UNL1        0.0870
      4  O          6.2410    3.7720    2.1680 O.2     1  UNL1       -0.3000
      5  C          5.0970    1.6440    0.8270 C.3     1  UNL1        0.0430
      6  C          5.9340    0.5360    0.3340 C.2     1  UNL1       -0.0440
      7  C          6.2660   -0.5510    1.1510 C.2     1  UNL1        0.0080
      8  C          6.4040    0.5590   -0.9590 C.2     1  UNL1        0.0540
      9  C          7.0550   -1.5630    0.6340 C.2     1  UNL1        0.0510
     10  C          7.2000   -0.4670   -1.4780 C.2     1  UNL1        0.1660
     11  C          7.5280   -1.5360   -0.6740 C.2     1  UNL1        0.1650
     12  O          7.7830   -0.6730   -2.7100 O.2     1  UNL1       -0.4540
     13  O          8.3130   -2.3860   -1.4390 O.2     1  UNL1       -0.4540
     14  C          8.4240   -1.9210   -2.7630 C.3     1  UNL1        0.4680
@<TRIPOS>BOND
     1    14    12    1
     2    14    13    1
     3    12    10    1
     4    10     8    1
     5    10    11    2
     6    13    11    1
     7     8     6    2
     8    11     9    1
     9     1     5    1
    10     1     2    1
    11     6     5    1
    12     6     7    1
    13     3     2    1
    14     9     7    2
    15     2     4    2
