@<TRIPOS>MOLECULE
/home/cewinharhar/GITHUB/reincatalyze/data/processed/docking_pred/2023-May-22-1902_sub9_nm5_bs15_s42_ex16_mel10_mts1000_k50_ec02_g099_lra9e-4_lrc1e-3/f3c5d297feb9947f67baa3310bcd1cfc63c32b25_ligand_9.pdbqt
 14 15 0 0 0
SMALL
GASTEIGER

@<TRIPOS>ATOM
      1  C          5.7000    3.1140    0.1890 C.3     1  UNL1        0.0800
      2  C          6.5630    3.6990    1.2530 C.2     1  UNL1        0.1300
      3  C          8.0250    3.4290    1.3080 C.3     1  UNL1        0.0870
      4  O          6.0920    4.4220    2.1160 O.2     1  UNL1       -0.3000
      5  C          5.1020    1.7920    0.6300 C.3     1  UNL1        0.0430
      6  C          5.9260    0.6490    0.1990 C.2     1  UNL1       -0.0440
      7  C          6.2160   -0.4130    1.0630 C.2     1  UNL1        0.0080
      8  C          6.4250    0.6130   -1.0830 C.2     1  UNL1        0.0540
      9  C          6.9940   -1.4600    0.6020 C.2     1  UNL1        0.0510
     10  C          7.2100   -0.4480   -1.5450 C.2     1  UNL1        0.1660
     11  C          7.4970   -1.4920   -0.6950 C.2     1  UNL1        0.1650
     12  O          7.8150   -0.7120   -2.7550 O.2     1  UNL1       -0.4540
     13  O          8.2800   -2.3860   -1.4080 O.2     1  UNL1       -0.4540
     14  C          8.4300   -1.9750   -2.7460 C.3     1  UNL1        0.4680
@<TRIPOS>BOND
     1    12    14    1
     2    12    10    1
     3    14    13    1
     4    10     8    1
     5    10    11    2
     6    13    11    1
     7     8     6    2
     8    11     9    1
     9     1     5    1
    10     1     2    1
    11     6     5    1
    12     6     7    1
    13     9     7    2
    14     2     3    1
    15     2     4    2
