MODEL 1
REMARK VINA RESULT:      -7.5      0.000      0.000
REMARK SMILES CC(=O)CCc1ccc2c(c1)OCO2
REMARK SMILES IDX 4 1 2 2 1 3 3 4 5 5 6 6 7 7 11 8 8 9 10 10 9 11 12 12 14 13
REMARK SMILES IDX 13 14
REMARK H PARENT
REMARK Flexibility Score: inf
ROOT
ATOM      1  C   UNL     1       5.700   3.114   0.189  1.00  0.00     0.080 C 
ENDROOT
BRANCH   1   2
ATOM      2  C   UNL     1       6.563   3.699   1.253  1.00  0.00     0.130 C 
ATOM      3  C   UNL     1       8.025   3.429   1.308  1.00  0.00     0.087 C 
ATOM      4  O   UNL     1       6.092   4.422   2.116  1.00  0.00    -0.300 OA
ENDBRANCH   1   2
BRANCH   1   5
ATOM      5  C   UNL     1       5.102   1.792   0.630  1.00  0.00     0.043 C 
BRANCH   5   6
ATOM      6  C   UNL     1       5.926   0.649   0.199  1.00  0.00    -0.044 A 
ATOM      7  C   UNL     1       6.216  -0.413   1.063  1.00  0.00     0.008 A 
ATOM      8  C   UNL     1       6.425   0.613  -1.083  1.00  0.00     0.054 A 
ATOM      9  C   UNL     1       6.994  -1.460   0.602  1.00  0.00     0.051 A 
ATOM     10  C   UNL     1       7.210  -0.448  -1.545  1.00  0.00     0.166 A 
ATOM     11  C   UNL     1       7.497  -1.492  -0.695  1.00  0.00     0.165 A 
ATOM     12  O   UNL     1       7.815  -0.712  -2.755  1.00  0.00    -0.454 OA
ATOM     13  O   UNL     1       8.280  -2.386  -1.408  1.00  0.00    -0.454 OA
ATOM     14  C   UNL     1       8.430  -1.975  -2.746  1.00  0.00     0.468 C 
ENDBRANCH   5   6
ENDBRANCH   1   5
TORSDOF 3
ENDMDL
MODEL 2
REMARK VINA RESULT:      -7.4      0.987      1.977
REMARK SMILES CC(=O)CCc1ccc2c(c1)OCO2
REMARK SMILES IDX 4 1 2 2 1 3 3 4 5 5 6 6 7 7 11 8 8 9 10 10 9 11 12 12 14 13
REMARK SMILES IDX 13 14
REMARK H PARENT
REMARK Flexibility Score: inf
ROOT
ATOM      1  C   UNL     1       5.743   3.188   0.192  1.00  0.00     0.080 C 
ENDROOT
BRANCH   1   2
ATOM      2  C   UNL     1       6.580   3.677   1.323  1.00  0.00     0.130 C 
ATOM      3  C   UNL     1       8.053   3.471   1.351  1.00  0.00     0.087 C 
ATOM      4  O   UNL     1       6.077   4.265   2.267  1.00  0.00    -0.300 OA
ENDBRANCH   1   2
BRANCH   1   5
ATOM      5  C   UNL     1       5.104   1.853   0.518  1.00  0.00     0.043 C 
BRANCH   5   6
ATOM      6  C   UNL     1       5.940   0.724   0.073  1.00  0.00    -0.044 A 
ATOM      7  C   UNL     1       6.359   0.602  -1.257  1.00  0.00     0.008 A 
ATOM      8  C   UNL     1       6.326  -0.238   0.978  1.00  0.00     0.054 A 
ATOM      9  C   UNL     1       7.143  -0.479  -1.617  1.00  0.00     0.051 A 
ATOM     10  C   UNL     1       7.119  -1.329   0.609  1.00  0.00     0.166 A 
ATOM     11  C   UNL     1       7.531  -1.450  -0.699  1.00  0.00     0.165 A 
ATOM     12  O   UNL     1       7.627  -2.401   1.311  1.00  0.00    -0.454 OA
ATOM     13  O   UNL     1       8.292  -2.606  -0.774  1.00  0.00    -0.454 OA
ATOM     14  C   UNL     1       8.454  -3.192   0.496  1.00  0.00     0.468 C 
ENDBRANCH   5   6
ENDBRANCH   1   5
TORSDOF 3
ENDMDL
MODEL 3
REMARK VINA RESULT:      -7.4      1.291      1.619
REMARK SMILES CC(=O)CCc1ccc2c(c1)OCO2
REMARK SMILES IDX 4 1 2 2 1 3 3 4 5 5 6 6 7 7 11 8 8 9 10 10 9 11 12 12 14 13
REMARK SMILES IDX 13 14
REMARK H PARENT
REMARK Flexibility Score: inf
ROOT
ATOM      1  C   UNL     1       6.059   3.292   0.063  1.00  0.00     0.080 C 
ENDROOT
BRANCH   1   2
ATOM      2  C   UNL     1       6.629   3.781   1.349  1.00  0.00     0.130 C 
ATOM      3  C   UNL     1       8.042   3.514   1.728  1.00  0.00     0.087 C 
ATOM      4  O   UNL     1       5.947   4.420   2.134  1.00  0.00    -0.300 OA
ENDBRANCH   1   2
BRANCH   1   5
ATOM      5  C   UNL     1       5.033   2.200   0.296  1.00  0.00     0.043 C 
BRANCH   5   6
ATOM      6  C   UNL     1       5.669   0.921   0.660  1.00  0.00    -0.044 A 
ATOM      7  C   UNL     1       5.398   0.289   1.879  1.00  0.00     0.008 A 
ATOM      8  C   UNL     1       6.549   0.324  -0.214  1.00  0.00     0.054 A 
ATOM      9  C   UNL     1       6.024  -0.910   2.166  1.00  0.00     0.051 A 
ATOM     10  C   UNL     1       7.179  -0.889   0.081  1.00  0.00     0.166 A 
ATOM     11  C   UNL     1       6.914  -1.511   1.281  1.00  0.00     0.165 A 
ATOM     12  O   UNL     1       8.080  -1.672  -0.609  1.00  0.00    -0.454 OA
ATOM     13  O   UNL     1       7.665  -2.676   1.302  1.00  0.00    -0.454 OA
ATOM     14  C   UNL     1       8.349  -2.862   0.086  1.00  0.00     0.468 C 
ENDBRANCH   5   6
ENDBRANCH   1   5
TORSDOF 3
ENDMDL
MODEL 4
REMARK VINA RESULT:      -7.2      1.489      5.330
REMARK SMILES CC(=O)CCc1ccc2c(c1)OCO2
REMARK SMILES IDX 4 1 2 2 1 3 3 4 5 5 6 6 7 7 11 8 8 9 10 10 9 11 12 12 14 13
REMARK SMILES IDX 13 14
REMARK H PARENT
REMARK Flexibility Score: inf
ROOT
ATOM      1  C   UNL     1       7.012  -1.336  -0.954  1.00  0.00     0.080 C 
ENDROOT
BRANCH   1   2
ATOM      2  C   UNL     1       7.547  -1.696   0.388  1.00  0.00     0.130 C 
ATOM      3  C   UNL     1       6.693  -1.659   1.605  1.00  0.00     0.087 C 
ATOM      4  O   UNL     1       8.711  -2.034   0.529  1.00  0.00    -0.300 OA
ENDBRANCH   1   2
BRANCH   1   5
ATOM      5  C   UNL     1       7.548   0.003  -1.420  1.00  0.00     0.043 C 
BRANCH   5   6
ATOM      6  C   UNL     1       7.011   1.116  -0.617  1.00  0.00    -0.044 A 
ATOM      7  C   UNL     1       5.642   1.406  -0.589  1.00  0.00     0.008 A 
ATOM      8  C   UNL     1       7.867   1.894   0.130  1.00  0.00     0.054 A 
ATOM      9  C   UNL     1       5.196   2.463   0.184  1.00  0.00     0.051 A 
ATOM     10  C   UNL     1       7.411   2.960   0.910  1.00  0.00     0.166 A 
ATOM     11  C   UNL     1       6.064   3.247   0.937  1.00  0.00     0.165 A 
ATOM     12  O   UNL     1       8.050   3.868   1.727  1.00  0.00    -0.454 OA
ATOM     13  O   UNL     1       5.903   4.336   1.780  1.00  0.00    -0.454 OA
ATOM     14  C   UNL     1       7.125   4.705   2.373  1.00  0.00     0.468 C 
ENDBRANCH   5   6
ENDBRANCH   1   5
TORSDOF 3
ENDMDL
MODEL 5
REMARK VINA RESULT:      -7.1      3.257      4.271
REMARK SMILES CC(=O)CCc1ccc2c(c1)OCO2
REMARK SMILES IDX 4 1 2 2 1 3 3 4 5 5 6 6 7 7 11 8 8 9 10 10 9 11 12 12 14 13
REMARK SMILES IDX 13 14
REMARK H PARENT
REMARK Flexibility Score: inf
ROOT
ATOM      1  C   UNL     1       5.404   1.411   0.537  1.00  0.00     0.080 C 
ENDROOT
BRANCH   1   2
ATOM      2  C   UNL     1       5.134   0.477   1.665  1.00  0.00     0.130 C 
ATOM      3  C   UNL     1       5.839  -0.827   1.784  1.00  0.00     0.087 C 
ATOM      4  O   UNL     1       4.319   0.757   2.529  1.00  0.00    -0.300 OA
ENDBRANCH   1   2
BRANCH   1   5
ATOM      5  C   UNL     1       6.478   2.417   0.901  1.00  0.00     0.043 C 
BRANCH   5   6
ATOM      6  C   UNL     1       7.825   1.821   0.853  1.00  0.00    -0.044 A 
ATOM      7  C   UNL     1       8.350   1.290  -0.330  1.00  0.00     0.008 A 
ATOM      8  C   UNL     1       8.594   1.781   1.994  1.00  0.00     0.054 A 
ATOM      9  C   UNL     1       9.621   0.744  -0.315  1.00  0.00     0.051 A 
ATOM     10  C   UNL     1       9.878   1.228   2.004  1.00  0.00     0.166 A 
ATOM     11  C   UNL     1      10.395   0.705   0.840  1.00  0.00     0.165 A 
ATOM     12  O   UNL     1      10.826   1.071   2.993  1.00  0.00    -0.454 OA
ATOM     13  O   UNL     1      11.664   0.233   1.141  1.00  0.00    -0.454 OA
ATOM     14  C   UNL     1      12.012   0.527   2.473  1.00  0.00     0.468 C 
ENDBRANCH   5   6
ENDBRANCH   1   5
TORSDOF 3
ENDMDL
