@<TRIPOS>MOLECULE
/home/cewinharhar/GITHUB/reincatalyze/data/processed/docking_pred/2023-May-22-1902_sub9_nm5_bs15_s42_ex16_mel10_mts1000_k50_ec02_g099_lra9e-4_lrc1e-3/f3c5d297feb9947f67baa3310bcd1cfc63c32b25_ligand_9.pdbqt
 14 15 0 0 0
SMALL
GASTEIGER

@<TRIPOS>ATOM
      1  C          5.7430    3.1880    0.1920 C.3     1  UNL1        0.0800
      2  C          6.5800    3.6770    1.3230 C.2     1  UNL1        0.1300
      3  C          8.0530    3.4710    1.3510 C.3     1  UNL1        0.0870
      4  O          6.0770    4.2650    2.2670 O.2     1  UNL1       -0.3000
      5  C          5.1040    1.8530    0.5180 C.3     1  UNL1        0.0430
      6  C          5.9400    0.7240    0.0730 C.2     1  UNL1       -0.0440
      7  C          6.3590    0.6020   -1.2570 C.2     1  UNL1        0.0080
      8  C          6.3260   -0.2380    0.9780 C.2     1  UNL1        0.0540
      9  C          7.1430   -0.4790   -1.6170 C.2     1  UNL1        0.0510
     10  C          7.1190   -1.3290    0.6090 C.2     1  UNL1        0.1660
     11  C          7.5310   -1.4500   -0.6990 C.2     1  UNL1        0.1650
     12  O          7.6270   -2.4010    1.3110 O.2     1  UNL1       -0.4540
     13  O          8.2920   -2.6060   -0.7740 O.2     1  UNL1       -0.4540
     14  C          8.4540   -3.1920    0.4960 C.3     1  UNL1        0.4680
@<TRIPOS>BOND
     1     9     7    1
     2     9    11    2
     3     7     6    2
     4    13    11    1
     5    13    14    1
     6    11    10    1
     7     6     5    1
     8     6     8    1
     9     1     5    1
    10     1     2    1
    11    14    12    1
    12    10     8    2
    13    10    12    1
    14     2     3    1
    15     2     4    2
