@<TRIPOS>MOLECULE
/home/cewinharhar/GITHUB/reincatalyze/data/processed/docking_pred/2023-May-22-1902_sub9_nm5_bs15_s42_ex16_mel10_mts1000_k50_ec02_g099_lra9e-4_lrc1e-3/f411d25023d78b520541a26d40866fe70d26d332_ligand_9.pdbqt
 14 15 0 0 0
SMALL
GASTEIGER

@<TRIPOS>ATOM
      1  C          5.7430    1.3020   -0.3740 C.3     1  UNL1        0.0800
      2  C          5.2330    1.3740    1.0240 C.2     1  UNL1        0.1300
      3  C          5.2680    0.1950    1.9300 C.3     1  UNL1        0.0870
      4  O          4.7680    2.4110    1.4680 O.2     1  UNL1       -0.3000
      5  C          7.2470    1.1160   -0.4020 C.3     1  UNL1        0.0430
      6  C          7.6250   -0.1930   -0.9650 C.2     1  UNL1       -0.0440
      7  C          7.7220   -0.3970   -2.3460 C.2     1  UNL1        0.0080
      8  C          7.8940   -1.2460   -0.1210 C.2     1  UNL1        0.0540
      9  C          8.0820   -1.6460   -2.8170 C.2     1  UNL1        0.0510
     10  C          8.2590   -2.5080   -0.6010 C.2     1  UNL1        0.1660
     11  C          8.3530   -2.7090   -1.9600 C.2     1  UNL1        0.1650
     12  O          8.5710   -3.6970    0.0230 O.2     1  UNL1       -0.4540
     13  O          8.7260   -4.0310   -2.1450 O.2     1  UNL1       -0.4540
     14  C          8.9630   -4.6690   -0.9120 C.3     1  UNL1        0.4680
@<TRIPOS>BOND
     1     9     7    1
     2     9    11    2
     3     7     6    2
     4    13    11    1
     5    13    14    1
     6    11    10    1
     7     6     5    1
     8     6     8    1
     9    14    12    1
    10    10     8    2
    11    10    12    1
    12     5     1    1
    13     1     2    1
    14     2     4    2
    15     2     3    1
