@<TRIPOS>MOLECULE
/home/cewinharhar/GITHUB/reincatalyze/data/processed/docking_pred/2023-May-22-1902_sub9_nm5_bs15_s42_ex16_mel10_mts1000_k50_ec02_g099_lra9e-4_lrc1e-3/f411d25023d78b520541a26d40866fe70d26d332_ligand_9.pdbqt
 14 15 0 0 0
SMALL
GASTEIGER

@<TRIPOS>ATOM
      1  C          5.4850    2.9110    0.0660 C.3     1  UNL1        0.0800
      2  C          6.2240    3.8600    0.9450 C.2     1  UNL1        0.1300
      3  C          7.2680    4.7710    0.4050 C.3     1  UNL1        0.0870
      4  O          5.9920    3.9170    2.1420 O.2     1  UNL1       -0.3000
      5  C          5.7110    1.4740    0.4940 C.3     1  UNL1        0.0430
      6  C          6.7710    0.8290   -0.3000 C.2     1  UNL1       -0.0440
      7  C          8.0550    1.3780   -0.3940 C.2     1  UNL1        0.0080
      8  C          6.5040   -0.3450   -0.9690 C.2     1  UNL1        0.0540
      9  C          9.0100    0.7270   -1.1540 C.2     1  UNL1        0.0510
     10  C          7.4730   -0.9990   -1.7350 C.2     1  UNL1        0.1660
     11  C          8.7360   -0.4590   -1.8290 C.2     1  UNL1        0.1650
     12  O          7.4550   -2.1570   -2.4830 O.2     1  UNL1       -0.4540
     13  O          9.4760   -1.3060   -2.6390 O.2     1  UNL1       -0.4540
     14  C          8.7290   -2.4430   -3.0020 C.3     1  UNL1        0.4680
@<TRIPOS>BOND
     1    14    13    1
     2    14    12    1
     3    13    11    1
     4    12    10    1
     5    11    10    2
     6    11     9    1
     7    10     8    1
     8     9     7    2
     9     8     6    2
    10     7     6    1
    11     6     5    1
    12     1     5    1
    13     1     2    1
    14     3     2    1
    15     2     4    2
