@<TRIPOS>MOLECULE
/home/cewinharhar/GITHUB/reincatalyze/data/processed/docking_pred/2023-May-22-1902_sub9_nm5_bs15_s42_ex16_mel10_mts1000_k50_ec02_g099_lra9e-4_lrc1e-3/f411d25023d78b520541a26d40866fe70d26d332_ligand_9.pdbqt
 14 15 0 0 0
SMALL
GASTEIGER

@<TRIPOS>ATOM
      1  C          5.4390    2.9180    0.0880 C.3     1  UNL1        0.0800
      2  C          6.2770    3.8180    0.9290 C.2     1  UNL1        0.1300
      3  C          7.2440    4.7740    0.3260 C.3     1  UNL1        0.0870
      4  O          6.1930    3.7960    2.1460 O.2     1  UNL1       -0.3000
      5  C          5.1370    1.6180    0.8060 C.3     1  UNL1        0.0430
      6  C          5.9630    0.5080    0.2990 C.2     1  UNL1       -0.0440
      7  C          6.2750   -0.5980    1.0980 C.2     1  UNL1        0.0080
      8  C          6.4430    0.5490   -0.9910 C.2     1  UNL1        0.0540
      9  C          7.0550   -1.6100    0.5670 C.2     1  UNL1        0.0510
     10  C          7.2300   -0.4770   -1.5220 C.2     1  UNL1        0.1660
     11  C          7.5390   -1.5650   -0.7360 C.2     1  UNL1        0.1650
     12  O          7.8190   -0.6670   -2.7540 O.2     1  UNL1       -0.4540
     13  O          8.3180   -2.4100   -1.5110 O.2     1  UNL1       -0.4540
     14  C          8.4450   -1.9230   -2.8250 C.3     1  UNL1        0.4680
@<TRIPOS>BOND
     1    14    12    1
     2    14    13    1
     3    12    10    1
     4    10     8    1
     5    10    11    2
     6    13    11    1
     7     8     6    2
     8    11     9    1
     9     1     5    1
    10     1     2    1
    11     6     5    1
    12     6     7    1
    13     3     2    1
    14     9     7    2
    15     2     4    2
