@<TRIPOS>MOLECULE
/home/cewinharhar/GITHUB/reincatalyze/data/processed/docking_pred/2023-May-22-1902_sub9_nm5_bs15_s42_ex16_mel10_mts1000_k50_ec02_g099_lra9e-4_lrc1e-3/f411d25023d78b520541a26d40866fe70d26d332_ligand_9.pdbqt
 14 15 0 0 0
SMALL
GASTEIGER

@<TRIPOS>ATOM
      1  C          5.4980    2.8530    0.2330 C.3     1  UNL1        0.0800
      2  C          6.2120    3.9170    0.9920 C.2     1  UNL1        0.1300
      3  C          7.2890    4.7310    0.3680 C.3     1  UNL1        0.0870
      4  O          5.9320    4.1510    2.1560 O.2     1  UNL1       -0.3000
      5  C          5.4370    1.5600    1.0220 C.3     1  UNL1        0.0430
      6  C          6.2040    0.4840    0.3680 C.2     1  UNL1       -0.0440
      7  C          6.4960    0.5200   -1.0010 C.2     1  UNL1        0.0080
      8  C          6.6510   -0.5840    1.1110 C.2     1  UNL1        0.0540
      9  C          7.2200   -0.5180   -1.5600 C.2     1  UNL1        0.0510
     10  C          7.3830   -1.6300    0.5420 C.2     1  UNL1        0.1660
     11  C          7.6690   -1.5970   -0.8050 C.2     1  UNL1        0.1650
     12  O          7.9300   -2.7850    1.0590 O.2     1  UNL1       -0.4540
     13  O          8.3950   -2.7430   -1.0890 O.2     1  UNL1       -0.4540
     14  C          8.6600   -3.4800    0.0810 C.3     1  UNL1        0.4680
@<TRIPOS>BOND
     1     9     7    1
     2     9    11    2
     3    13    11    1
     4    13    14    1
     5     7     6    2
     6    11    10    1
     7    14    12    1
     8     1     2    1
     9     1     5    1
    10     3     2    1
    11     6     5    1
    12     6     8    1
    13    10    12    1
    14    10     8    2
    15     2     4    2
