MODEL 1
REMARK VINA RESULT:      -7.8      0.000      0.000
REMARK SMILES CC(=O)CCc1ccc2c(c1)OCO2
REMARK SMILES IDX 4 1 2 2 1 3 3 4 5 5 6 6 7 7 11 8 8 9 10 10 9 11 12 12 14 13
REMARK SMILES IDX 13 14
REMARK H PARENT
REMARK Flexibility Score: inf
ROOT
ATOM      1  C   UNL     1       5.539   2.821   0.249  1.00  0.00     0.080 C 
ENDROOT
BRANCH   1   2
ATOM      2  C   UNL     1       6.315   3.817   1.039  1.00  0.00     0.130 C 
ATOM      3  C   UNL     1       7.248   4.774   0.386  1.00  0.00     0.087 C 
ATOM      4  O   UNL     1       6.207   3.876   2.253  1.00  0.00    -0.300 OA
ENDBRANCH   1   2
BRANCH   1   5
ATOM      5  C   UNL     1       5.342   1.535   1.027  1.00  0.00     0.043 C 
BRANCH   5   6
ATOM      6  C   UNL     1       6.164   0.438   0.487  1.00  0.00    -0.044 A 
ATOM      7  C   UNL     1       6.615  -0.609   1.300  1.00  0.00     0.008 A 
ATOM      8  C   UNL     1       6.501   0.431  -0.847  1.00  0.00     0.054 A 
ATOM      9  C   UNL     1       7.383  -1.612   0.737  1.00  0.00     0.051 A 
ATOM     10  C   UNL     1       7.277  -0.586  -1.411  1.00  0.00     0.166 A 
ATOM     11  C   UNL     1       7.722  -1.616  -0.612  1.00  0.00     0.165 A 
ATOM     12  O   UNL     1       7.740  -0.815  -2.689  1.00  0.00    -0.454 OA
ATOM     13  O   UNL     1       8.456  -2.465  -1.425  1.00  0.00    -0.454 OA
ATOM     14  C   UNL     1       8.417  -2.044  -2.768  1.00  0.00     0.468 C 
ENDBRANCH   5   6
ENDBRANCH   1   5
TORSDOF 3
ENDMDL
MODEL 2
REMARK VINA RESULT:      -7.7      1.916      2.643
REMARK SMILES CC(=O)CCc1ccc2c(c1)OCO2
REMARK SMILES IDX 4 1 2 2 1 3 3 4 5 5 6 6 7 7 11 8 8 9 10 10 9 11 12 12 14 13
REMARK SMILES IDX 13 14
REMARK H PARENT
REMARK Flexibility Score: inf
ROOT
ATOM      1  C   UNL     1       5.507   1.923   1.260  1.00  0.00     0.080 C 
ENDROOT
BRANCH   1   2
ATOM      2  C   UNL     1       5.061   0.709   1.999  1.00  0.00     0.130 C 
ATOM      3  C   UNL     1       5.944  -0.478   2.155  1.00  0.00     0.087 C 
ATOM      4  O   UNL     1       3.951   0.654   2.502  1.00  0.00    -0.300 OA
ENDBRANCH   1   2
BRANCH   1   5
ATOM      5  C   UNL     1       5.384   1.730  -0.239  1.00  0.00     0.043 C 
BRANCH   5   6
ATOM      6  C   UNL     1       6.554   1.029  -0.798  1.00  0.00    -0.044 A 
ATOM      7  C   UNL     1       7.859   1.467  -0.545  1.00  0.00     0.008 A 
ATOM      8  C   UNL     1       6.371  -0.084  -1.585  1.00  0.00     0.054 A 
ATOM      9  C   UNL     1       8.919   0.769  -1.096  1.00  0.00     0.051 A 
ATOM     10  C   UNL     1       7.445  -0.787  -2.139  1.00  0.00     0.166 A 
ATOM     11  C   UNL     1       8.730  -0.356  -1.893  1.00  0.00     0.165 A 
ATOM     12  O   UNL     1       7.523  -1.904  -2.943  1.00  0.00    -0.454 OA
ATOM     13  O   UNL     1       9.579  -1.228  -2.556  1.00  0.00    -0.454 OA
ATOM     14  C   UNL     1       8.860  -2.277  -3.160  1.00  0.00     0.468 C 
ENDBRANCH   5   6
ENDBRANCH   1   5
TORSDOF 3
ENDMDL
MODEL 3
REMARK VINA RESULT:      -7.6      0.946      1.922
REMARK SMILES CC(=O)CCc1ccc2c(c1)OCO2
REMARK SMILES IDX 4 1 2 2 1 3 3 4 5 5 6 6 7 7 11 8 8 9 10 10 9 11 12 12 14 13
REMARK SMILES IDX 13 14
REMARK H PARENT
REMARK Flexibility Score: inf
ROOT
ATOM      1  C   UNL     1       5.484   2.666   0.175  1.00  0.00     0.080 C 
ENDROOT
BRANCH   1   2
ATOM      2  C   UNL     1       6.144   3.780   0.912  1.00  0.00     0.130 C 
ATOM      3  C   UNL     1       7.116   4.688   0.246  1.00  0.00     0.087 C 
ATOM      4  O   UNL     1       5.905   3.981   2.091  1.00  0.00    -0.300 OA
ENDBRANCH   1   2
BRANCH   1   5
ATOM      5  C   UNL     1       5.490   1.388   0.990  1.00  0.00     0.043 C 
BRANCH   5   6
ATOM      6  C   UNL     1       6.238   0.313   0.315  1.00  0.00    -0.044 A 
ATOM      7  C   UNL     1       6.466   0.334  -1.066  1.00  0.00     0.008 A 
ATOM      8  C   UNL     1       6.732  -0.740   1.050  1.00  0.00     0.054 A 
ATOM      9  C   UNL     1       7.175  -0.702  -1.645  1.00  0.00     0.051 A 
ATOM     10  C   UNL     1       7.450  -1.785   0.460  1.00  0.00     0.166 A 
ATOM     11  C   UNL     1       7.672  -1.766  -0.899  1.00  0.00     0.165 A 
ATOM     12  O   UNL     1       8.034  -2.927   0.966  1.00  0.00    -0.454 OA
ATOM     13  O   UNL     1       8.398  -2.908  -1.202  1.00  0.00    -0.454 OA
ATOM     14  C   UNL     1       8.727  -3.626  -0.037  1.00  0.00     0.468 C 
ENDBRANCH   5   6
ENDBRANCH   1   5
TORSDOF 3
ENDMDL
MODEL 4
REMARK VINA RESULT:      -7.5      1.960      2.985
REMARK SMILES CC(=O)CCc1ccc2c(c1)OCO2
REMARK SMILES IDX 4 1 2 2 1 3 3 4 5 5 6 6 7 7 11 8 8 9 10 10 9 11 12 12 14 13
REMARK SMILES IDX 13 14
REMARK H PARENT
REMARK Flexibility Score: inf
ROOT
ATOM      1  C   UNL     1       5.800   1.375  -0.364  1.00  0.00     0.080 C 
ENDROOT
BRANCH   1   2
ATOM      2  C   UNL     1       5.149   1.330   0.975  1.00  0.00     0.130 C 
ATOM      3  C   UNL     1       5.392   0.211   1.924  1.00  0.00     0.087 C 
ATOM      4  O   UNL     1       4.392   2.218   1.334  1.00  0.00    -0.300 OA
ENDBRANCH   1   2
BRANCH   1   5
ATOM      5  C   UNL     1       7.282   1.074  -0.266  1.00  0.00     0.043 C 
BRANCH   5   6
ATOM      6  C   UNL     1       7.618  -0.224  -0.877  1.00  0.00    -0.044 A 
ATOM      7  C   UNL     1       7.620  -0.403  -2.265  1.00  0.00     0.008 A 
ATOM      8  C   UNL     1       7.940  -1.293  -0.072  1.00  0.00     0.054 A 
ATOM      9  C   UNL     1       7.944  -1.644  -2.781  1.00  0.00     0.051 A 
ATOM     10  C   UNL     1       8.268  -2.546  -0.599  1.00  0.00     0.166 A 
ATOM     11  C   UNL     1       8.269  -2.723  -1.965  1.00  0.00     0.165 A 
ATOM     12  O   UNL     1       8.618  -3.747  -0.019  1.00  0.00    -0.454 OA
ATOM     13  O   UNL     1       8.625  -4.043  -2.198  1.00  0.00    -0.454 OA
ATOM     14  C   UNL     1       8.944  -4.703  -0.996  1.00  0.00     0.468 C 
ENDBRANCH   5   6
ENDBRANCH   1   5
TORSDOF 3
ENDMDL
MODEL 5
REMARK VINA RESULT:      -7.5      1.830      2.763
REMARK SMILES CC(=O)CCc1ccc2c(c1)OCO2
REMARK SMILES IDX 4 1 2 2 1 3 3 4 5 5 6 6 7 7 11 8 8 9 10 10 9 11 12 12 14 13
REMARK SMILES IDX 13 14
REMARK H PARENT
REMARK Flexibility Score: inf
ROOT
ATOM      1  C   UNL     1       6.414   1.019   1.100  1.00  0.00     0.080 C 
ENDROOT
BRANCH   1   2
ATOM      2  C   UNL     1       5.135   1.768   0.951  1.00  0.00     0.130 C 
ATOM      3  C   UNL     1       4.864   2.620  -0.238  1.00  0.00     0.087 C 
ATOM      4  O   UNL     1       4.267   1.704   1.806  1.00  0.00    -0.300 OA
ENDBRANCH   1   2
BRANCH   1   5
ATOM      5  C   UNL     1       7.289   1.173  -0.128  1.00  0.00     0.043 C 
BRANCH   5   6
ATOM      6  C   UNL     1       7.609  -0.129  -0.738  1.00  0.00    -0.044 A 
ATOM      7  C   UNL     1       7.597  -0.311  -2.126  1.00  0.00     0.008 A 
ATOM      8  C   UNL     1       7.932  -1.199   0.065  1.00  0.00     0.054 A 
ATOM      9  C   UNL     1       7.906  -1.556  -2.643  1.00  0.00     0.051 A 
ATOM     10  C   UNL     1       8.245  -2.455  -0.462  1.00  0.00     0.166 A 
ATOM     11  C   UNL     1       8.231  -2.635  -1.827  1.00  0.00     0.165 A 
ATOM     12  O   UNL     1       8.592  -3.657   0.118  1.00  0.00    -0.454 OA
ATOM     13  O   UNL     1       8.575  -3.958  -2.060  1.00  0.00    -0.454 OA
ATOM     14  C   UNL     1       8.901  -4.618  -0.860  1.00  0.00     0.468 C 
ENDBRANCH   5   6
ENDBRANCH   1   5
TORSDOF 3
ENDMDL
