@<TRIPOS>MOLECULE
/home/cewinharhar/GITHUB/reincatalyze/data/processed/docking_pred/2023-May-22-1902_sub9_nm5_bs15_s42_ex16_mel10_mts1000_k50_ec02_g099_lra9e-4_lrc1e-3/f43d8cd6194682d8f3e5600fbc578d0750565092_ligand_9.pdbqt
 14 15 0 0 0
SMALL
GASTEIGER

@<TRIPOS>ATOM
      1  C          5.5070    1.9230    1.2600 C.3     1  UNL1        0.0800
      2  C          5.0610    0.7090    1.9990 C.2     1  UNL1        0.1300
      3  C          5.9440   -0.4780    2.1550 C.3     1  UNL1        0.0870
      4  O          3.9510    0.6540    2.5020 O.2     1  UNL1       -0.3000
      5  C          5.3840    1.7300   -0.2390 C.3     1  UNL1        0.0430
      6  C          6.5540    1.0290   -0.7980 C.2     1  UNL1       -0.0440
      7  C          7.8590    1.4670   -0.5450 C.2     1  UNL1        0.0080
      8  C          6.3710   -0.0840   -1.5850 C.2     1  UNL1        0.0540
      9  C          8.9190    0.7690   -1.0960 C.2     1  UNL1        0.0510
     10  C          7.4450   -0.7870   -2.1390 C.2     1  UNL1        0.1660
     11  C          8.7300   -0.3560   -1.8930 C.2     1  UNL1        0.1650
     12  O          7.5230   -1.9040   -2.9430 O.2     1  UNL1       -0.4540
     13  O          9.5790   -1.2280   -2.5560 O.2     1  UNL1       -0.4540
     14  C          8.8600   -2.2770   -3.1600 C.3     1  UNL1        0.4680
@<TRIPOS>BOND
     1    14    12    1
     2    14    13    1
     3    12    10    1
     4    13    11    1
     5    10    11    2
     6    10     8    1
     7    11     9    1
     8     8     6    2
     9     9     7    2
    10     6     7    1
    11     6     5    1
    12     5     1    1
    13     1     2    1
    14     2     3    1
    15     2     4    2
