@<TRIPOS>MOLECULE
/home/cewinharhar/GITHUB/reincatalyze/data/processed/docking_pred/2023-May-22-1902_sub9_nm5_bs15_s42_ex16_mel10_mts1000_k50_ec02_g099_lra9e-4_lrc1e-3/f43d8cd6194682d8f3e5600fbc578d0750565092_ligand_9.pdbqt
 14 15 0 0 0
SMALL
GASTEIGER

@<TRIPOS>ATOM
      1  C          5.5390    2.8210    0.2490 C.3     1  UNL1        0.0800
      2  C          6.3150    3.8170    1.0390 C.2     1  UNL1        0.1300
      3  C          7.2480    4.7740    0.3860 C.3     1  UNL1        0.0870
      4  O          6.2070    3.8760    2.2530 O.2     1  UNL1       -0.3000
      5  C          5.3420    1.5350    1.0270 C.3     1  UNL1        0.0430
      6  C          6.1640    0.4380    0.4870 C.2     1  UNL1       -0.0440
      7  C          6.6150   -0.6090    1.3000 C.2     1  UNL1        0.0080
      8  C          6.5010    0.4310   -0.8470 C.2     1  UNL1        0.0540
      9  C          7.3830   -1.6120    0.7370 C.2     1  UNL1        0.0510
     10  C          7.2770   -0.5860   -1.4110 C.2     1  UNL1        0.1660
     11  C          7.7220   -1.6160   -0.6120 C.2     1  UNL1        0.1650
     12  O          7.7400   -0.8150   -2.6890 O.2     1  UNL1       -0.4540
     13  O          8.4560   -2.4650   -1.4250 O.2     1  UNL1       -0.4540
     14  C          8.4170   -2.0440   -2.7680 C.3     1  UNL1        0.4680
@<TRIPOS>BOND
     1    14    12    1
     2    14    13    1
     3    12    10    1
     4    13    11    1
     5    10     8    1
     6    10    11    2
     7     8     6    2
     8    11     9    1
     9     1     5    1
    10     1     2    1
    11     3     2    1
    12     6     5    1
    13     6     7    1
    14     9     7    2
    15     2     4    2
