MODEL 1
REMARK VINA RESULT:      -7.9      0.000      0.000
REMARK SMILES CC(=O)CCc1ccc2c(c1)OCO2
REMARK SMILES IDX 4 1 2 2 1 3 3 4 5 5 6 6 7 7 11 8 8 9 10 10 9 11 12 12 14 13
REMARK SMILES IDX 13 14
REMARK H PARENT
REMARK Flexibility Score: inf
ROOT
ATOM      1  C   UNL     1       5.443   2.907   0.079  1.00  0.00     0.080 C 
ENDROOT
BRANCH   1   2
ATOM      2  C   UNL     1       6.271   3.807   0.930  1.00  0.00     0.130 C 
ATOM      3  C   UNL     1       7.235   4.773   0.337  1.00  0.00     0.087 C 
ATOM      4  O   UNL     1       6.182   3.777   2.146  1.00  0.00    -0.300 OA
ENDBRANCH   1   2
BRANCH   1   5
ATOM      5  C   UNL     1       5.148   1.599   0.787  1.00  0.00     0.043 C 
BRANCH   5   6
ATOM      6  C   UNL     1       5.981   0.499   0.270  1.00  0.00    -0.044 A 
ATOM      7  C   UNL     1       6.287  -0.619   1.055  1.00  0.00     0.008 A 
ATOM      8  C   UNL     1       6.472   0.560  -1.014  1.00  0.00     0.054 A 
ATOM      9  C   UNL     1       7.073  -1.622   0.516  1.00  0.00     0.051 A 
ATOM     10  C   UNL     1       7.265  -0.457  -1.554  1.00  0.00     0.166 A 
ATOM     11  C   UNL     1       7.569  -1.557  -0.783  1.00  0.00     0.165 A 
ATOM     12  O   UNL     1       7.866  -0.628  -2.784  1.00  0.00    -0.454 OA
ATOM     13  O   UNL     1       8.356  -2.389  -1.563  1.00  0.00    -0.454 OA
ATOM     14  C   UNL     1       8.494  -1.881  -2.869  1.00  0.00     0.468 C 
ENDBRANCH   5   6
ENDBRANCH   1   5
TORSDOF 3
ENDMDL
MODEL 2
REMARK VINA RESULT:      -7.8      0.988      1.974
REMARK SMILES CC(=O)CCc1ccc2c(c1)OCO2
REMARK SMILES IDX 4 1 2 2 1 3 3 4 5 5 6 6 7 7 11 8 8 9 10 10 9 11 12 12 14 13
REMARK SMILES IDX 13 14
REMARK H PARENT
REMARK Flexibility Score: inf
ROOT
ATOM      1  C   UNL     1       5.431   2.947   0.169  1.00  0.00     0.080 C 
ENDROOT
BRANCH   1   2
ATOM      2  C   UNL     1       6.295   3.855   0.975  1.00  0.00     0.130 C 
ATOM      3  C   UNL     1       7.273   4.774   0.334  1.00  0.00     0.087 C 
ATOM      4  O   UNL     1       6.223   3.870   2.193  1.00  0.00    -0.300 OA
ENDBRANCH   1   2
BRANCH   1   5
ATOM      5  C   UNL     1       5.219   1.622   0.873  1.00  0.00     0.043 C 
BRANCH   5   6
ATOM      6  C   UNL     1       6.049   0.553   0.288  1.00  0.00    -0.044 A 
ATOM      7  C   UNL     1       6.423   0.570  -1.060  1.00  0.00     0.008 A 
ATOM      8  C   UNL     1       6.475  -0.490   1.079  1.00  0.00     0.054 A 
ATOM      9  C   UNL     1       7.203  -0.459  -1.554  1.00  0.00     0.051 A 
ATOM     10  C   UNL     1       7.265  -1.528   0.576  1.00  0.00     0.166 A 
ATOM     11  C   UNL     1       7.632  -1.512  -0.752  1.00  0.00     0.165 A 
ATOM     12  O   UNL     1       7.806  -2.659   1.148  1.00  0.00    -0.454 OA
ATOM     13  O   UNL     1       8.400  -2.646  -0.968  1.00  0.00    -0.454 OA
ATOM     14  C   UNL     1       8.611  -3.353   0.230  1.00  0.00     0.468 C 
ENDBRANCH   5   6
ENDBRANCH   1   5
TORSDOF 3
ENDMDL
MODEL 3
REMARK VINA RESULT:      -7.6      1.875      2.621
REMARK SMILES CC(=O)CCc1ccc2c(c1)OCO2
REMARK SMILES IDX 4 1 2 2 1 3 3 4 5 5 6 6 7 7 11 8 8 9 10 10 9 11 12 12 14 13
REMARK SMILES IDX 13 14
REMARK H PARENT
REMARK Flexibility Score: inf
ROOT
ATOM      1  C   UNL     1       5.513   1.952   1.251  1.00  0.00     0.080 C 
ENDROOT
BRANCH   1   2
ATOM      2  C   UNL     1       5.102   0.734   2.004  1.00  0.00     0.130 C 
ATOM      3  C   UNL     1       6.023  -0.419   2.186  1.00  0.00     0.087 C 
ATOM      4  O   UNL     1       3.988   0.647   2.495  1.00  0.00    -0.300 OA
ENDBRANCH   1   2
BRANCH   1   5
ATOM      5  C   UNL     1       5.388   1.744  -0.245  1.00  0.00     0.043 C 
BRANCH   5   6
ATOM      6  C   UNL     1       6.560   1.044  -0.799  1.00  0.00    -0.044 A 
ATOM      7  C   UNL     1       7.865   1.477  -0.536  1.00  0.00     0.008 A 
ATOM      8  C   UNL     1       6.380  -0.065  -1.594  1.00  0.00     0.054 A 
ATOM      9  C   UNL     1       8.927   0.780  -1.083  1.00  0.00     0.051 A 
ATOM     10  C   UNL     1       7.457  -0.767  -2.144  1.00  0.00     0.166 A 
ATOM     11  C   UNL     1       8.741  -0.341  -1.886  1.00  0.00     0.165 A 
ATOM     12  O   UNL     1       7.538  -1.880  -2.953  1.00  0.00    -0.454 OA
ATOM     13  O   UNL     1       9.592  -1.211  -2.549  1.00  0.00    -0.454 OA
ATOM     14  C   UNL     1       8.875  -2.255  -3.163  1.00  0.00     0.468 C 
ENDBRANCH   5   6
ENDBRANCH   1   5
TORSDOF 3
ENDMDL
MODEL 4
REMARK VINA RESULT:      -7.5      1.964      3.016
REMARK SMILES CC(=O)CCc1ccc2c(c1)OCO2
REMARK SMILES IDX 4 1 2 2 1 3 3 4 5 5 6 6 7 7 11 8 8 9 10 10 9 11 12 12 14 13
REMARK SMILES IDX 13 14
REMARK H PARENT
REMARK Flexibility Score: inf
ROOT
ATOM      1  C   UNL     1       5.820   1.374  -0.411  1.00  0.00     0.080 C 
ENDROOT
BRANCH   1   2
ATOM      2  C   UNL     1       5.160   1.356   0.924  1.00  0.00     0.130 C 
ATOM      3  C   UNL     1       5.353   0.230   1.876  1.00  0.00     0.087 C 
ATOM      4  O   UNL     1       4.435   2.273   1.278  1.00  0.00    -0.300 OA
ENDBRANCH   1   2
BRANCH   1   5
ATOM      5  C   UNL     1       7.300   1.068  -0.297  1.00  0.00     0.043 C 
BRANCH   5   6
ATOM      6  C   UNL     1       7.638  -0.232  -0.903  1.00  0.00    -0.044 A 
ATOM      7  C   UNL     1       7.659  -0.410  -2.292  1.00  0.00     0.008 A 
ATOM      8  C   UNL     1       7.943  -1.303  -0.095  1.00  0.00     0.054 A 
ATOM      9  C   UNL     1       7.984  -1.653  -2.804  1.00  0.00     0.051 A 
ATOM     10  C   UNL     1       8.272  -2.557  -0.617  1.00  0.00     0.166 A 
ATOM     11  C   UNL     1       8.292  -2.734  -1.983  1.00  0.00     0.165 A 
ATOM     12  O   UNL     1       8.607  -3.760  -0.033  1.00  0.00    -0.454 OA
ATOM     13  O   UNL     1       8.645  -4.054  -2.211  1.00  0.00    -0.454 OA
ATOM     14  C   UNL     1       8.942  -4.717  -1.005  1.00  0.00     0.468 C 
ENDBRANCH   5   6
ENDBRANCH   1   5
TORSDOF 3
ENDMDL
MODEL 5
REMARK VINA RESULT:      -7.4      0.957      1.777
REMARK SMILES CC(=O)CCc1ccc2c(c1)OCO2
REMARK SMILES IDX 4 1 2 2 1 3 3 4 5 5 6 6 7 7 11 8 8 9 10 10 9 11 12 12 14 13
REMARK SMILES IDX 13 14
REMARK H PARENT
REMARK Flexibility Score: inf
ROOT
ATOM      1  C   UNL     1       5.690   2.557   0.582  1.00  0.00     0.080 C 
ENDROOT
BRANCH   1   2
ATOM      2  C   UNL     1       6.329   3.785   1.132  1.00  0.00     0.130 C 
ATOM      3  C   UNL     1       7.175   4.670   0.287  1.00  0.00     0.087 C 
ATOM      4  O   UNL     1       6.176   4.102   2.300  1.00  0.00    -0.300 OA
ENDBRANCH   1   2
BRANCH   1   5
ATOM      5  C   UNL     1       6.293   1.304   1.188  1.00  0.00     0.043 C 
BRANCH   5   6
ATOM      6  C   UNL     1       6.702   0.339   0.152  1.00  0.00    -0.044 A 
ATOM      7  C   UNL     1       6.436   0.562  -1.204  1.00  0.00     0.008 A 
ATOM      8  C   UNL     1       7.365  -0.811   0.515  1.00  0.00     0.054 A 
ATOM      9  C   UNL     1       6.845  -0.378  -2.132  1.00  0.00     0.051 A 
ATOM     10  C   UNL     1       7.777  -1.759  -0.427  1.00  0.00     0.166 A 
ATOM     11  C   UNL     1       7.514  -1.541  -1.761  1.00  0.00     0.165 A 
ATOM     12  O   UNL     1       8.440  -2.963  -0.320  1.00  0.00    -0.454 OA
ATOM     13  O   UNL     1       8.028  -2.626  -2.453  1.00  0.00    -0.454 OA
ATOM     14  C   UNL     1       8.703  -3.508  -1.588  1.00  0.00     0.468 C 
ENDBRANCH   5   6
ENDBRANCH   1   5
TORSDOF 3
ENDMDL
