@<TRIPOS>MOLECULE
/home/cewinharhar/GITHUB/reincatalyze/data/processed/docking_pred/2023-May-22-1902_sub9_nm5_bs15_s42_ex16_mel10_mts1000_k50_ec02_g099_lra9e-4_lrc1e-3/f56adf6440abdf94ed5aca5eaefea0329b307251_ligand_9.pdbqt
 14 15 0 0 0
SMALL
GASTEIGER

@<TRIPOS>ATOM
      1  C          5.8200    1.3740   -0.4110 C.3     1  UNL1        0.0800
      2  C          5.1600    1.3560    0.9240 C.2     1  UNL1        0.1300
      3  C          5.3530    0.2300    1.8760 C.3     1  UNL1        0.0870
      4  O          4.4350    2.2730    1.2780 O.2     1  UNL1       -0.3000
      5  C          7.3000    1.0680   -0.2970 C.3     1  UNL1        0.0430
      6  C          7.6380   -0.2320   -0.9030 C.2     1  UNL1       -0.0440
      7  C          7.6590   -0.4100   -2.2920 C.2     1  UNL1        0.0080
      8  C          7.9430   -1.3030   -0.0950 C.2     1  UNL1        0.0540
      9  C          7.9840   -1.6530   -2.8040 C.2     1  UNL1        0.0510
     10  C          8.2720   -2.5570   -0.6170 C.2     1  UNL1        0.1660
     11  C          8.2920   -2.7340   -1.9830 C.2     1  UNL1        0.1650
     12  O          8.6070   -3.7600   -0.0330 O.2     1  UNL1       -0.4540
     13  O          8.6450   -4.0540   -2.2110 O.2     1  UNL1       -0.4540
     14  C          8.9420   -4.7170   -1.0050 C.3     1  UNL1        0.4680
@<TRIPOS>BOND
     1     9     7    1
     2     9    11    2
     3     7     6    2
     4    13    11    1
     5    13    14    1
     6    11    10    1
     7    14    12    1
     8     6     5    1
     9     6     8    1
    10    10     8    2
    11    10    12    1
    12     1     5    1
    13     1     2    1
    14     2     4    2
    15     2     3    1
