@<TRIPOS>MOLECULE
/home/cewinharhar/GITHUB/reincatalyze/data/processed/docking_pred/2023-May-22-1902_sub9_nm5_bs15_s42_ex16_mel10_mts1000_k50_ec02_g099_lra9e-4_lrc1e-3/f56adf6440abdf94ed5aca5eaefea0329b307251_ligand_9.pdbqt
 14 15 0 0 0
SMALL
GASTEIGER

@<TRIPOS>ATOM
      1  C          5.4310    2.9470    0.1690 C.3     1  UNL1        0.0800
      2  C          6.2950    3.8550    0.9750 C.2     1  UNL1        0.1300
      3  C          7.2730    4.7740    0.3340 C.3     1  UNL1        0.0870
      4  O          6.2230    3.8700    2.1930 O.2     1  UNL1       -0.3000
      5  C          5.2190    1.6220    0.8730 C.3     1  UNL1        0.0430
      6  C          6.0490    0.5530    0.2880 C.2     1  UNL1       -0.0440
      7  C          6.4230    0.5700   -1.0600 C.2     1  UNL1        0.0080
      8  C          6.4750   -0.4900    1.0790 C.2     1  UNL1        0.0540
      9  C          7.2030   -0.4590   -1.5540 C.2     1  UNL1        0.0510
     10  C          7.2650   -1.5280    0.5760 C.2     1  UNL1        0.1660
     11  C          7.6320   -1.5120   -0.7520 C.2     1  UNL1        0.1650
     12  O          7.8060   -2.6590    1.1480 O.2     1  UNL1       -0.4540
     13  O          8.4000   -2.6460   -0.9680 O.2     1  UNL1       -0.4540
     14  C          8.6110   -3.3530    0.2300 C.3     1  UNL1        0.4680
@<TRIPOS>BOND
     1     9     7    1
     2     9    11    2
     3     7     6    2
     4    13    11    1
     5    13    14    1
     6    11    10    1
     7     1     5    1
     8     1     2    1
     9    14    12    1
    10     6     5    1
    11     6     8    1
    12     3     2    1
    13    10     8    2
    14    10    12    1
    15     2     4    2
