@<TRIPOS>MOLECULE
/home/cewinharhar/GITHUB/reincatalyze/data/processed/docking_pred/2023-May-22-1902_sub9_nm5_bs15_s42_ex16_mel10_mts1000_k50_ec02_g099_lra9e-4_lrc1e-3/f56adf6440abdf94ed5aca5eaefea0329b307251_ligand_9.pdbqt
 14 15 0 0 0
SMALL
GASTEIGER

@<TRIPOS>ATOM
      1  C          5.4430    2.9070    0.0790 C.3     1  UNL1        0.0800
      2  C          6.2710    3.8070    0.9300 C.2     1  UNL1        0.1300
      3  C          7.2350    4.7730    0.3370 C.3     1  UNL1        0.0870
      4  O          6.1820    3.7770    2.1460 O.2     1  UNL1       -0.3000
      5  C          5.1480    1.5990    0.7870 C.3     1  UNL1        0.0430
      6  C          5.9810    0.4990    0.2700 C.2     1  UNL1       -0.0440
      7  C          6.2870   -0.6190    1.0550 C.2     1  UNL1        0.0080
      8  C          6.4720    0.5600   -1.0140 C.2     1  UNL1        0.0540
      9  C          7.0730   -1.6220    0.5160 C.2     1  UNL1        0.0510
     10  C          7.2650   -0.4570   -1.5540 C.2     1  UNL1        0.1660
     11  C          7.5690   -1.5570   -0.7830 C.2     1  UNL1        0.1650
     12  O          7.8660   -0.6280   -2.7840 O.2     1  UNL1       -0.4540
     13  O          8.3560   -2.3890   -1.5630 O.2     1  UNL1       -0.4540
     14  C          8.4940   -1.8810   -2.8690 C.3     1  UNL1        0.4680
@<TRIPOS>BOND
     1    14    12    1
     2    14    13    1
     3    12    10    1
     4    13    11    1
     5    10     8    1
     6    10    11    2
     7     8     6    2
     8    11     9    1
     9     1     5    1
    10     1     2    1
    11     6     5    1
    12     6     7    1
    13     3     2    1
    14     9     7    2
    15     2     4    2
