@<TRIPOS>MOLECULE
/home/cewinharhar/GITHUB/reincatalyze/data/processed/docking_pred/2023-May-22-1902_sub9_nm5_bs15_s42_ex16_mel10_mts1000_k50_ec02_g099_lra9e-4_lrc1e-3/f5d21a1fca5b46740ede221944c3c0743e15dd7f_ligand_9.pdbqt
 14 15 0 0 0
SMALL
GASTEIGER

@<TRIPOS>ATOM
      1  C          5.4330    2.9270    0.2030 C.3     1  UNL1        0.0800
      2  C          6.2000    3.9360    0.9850 C.2     1  UNL1        0.1300
      3  C          7.2540    4.7750    0.3550 C.3     1  UNL1        0.0870
      4  O          5.9830    4.1040    2.1740 O.2     1  UNL1       -0.3000
      5  C          5.7420    1.5180    0.6690 C.3     1  UNL1        0.0430
      6  C          6.7670    0.8760   -0.1740 C.2     1  UNL1       -0.0440
      7  C          8.0450    1.4260   -0.3210 C.2     1  UNL1        0.0080
      8  C          6.4700   -0.2940   -0.8360 C.2     1  UNL1        0.0540
      9  C          8.9660    0.7790   -1.1240 C.2     1  UNL1        0.0510
     10  C          7.4050   -0.9450   -1.6470 C.2     1  UNL1        0.1660
     11  C          8.6630   -0.4040   -1.7920 C.2     1  UNL1        0.1650
     12  O          7.3550   -2.1000   -2.3980 O.2     1  UNL1       -0.4540
     13  O          9.3670   -1.2470   -2.6380 O.2     1  UNL1       -0.4540
     14  C          8.6050   -2.3820   -2.9730 C.3     1  UNL1        0.4680
@<TRIPOS>BOND
     1    14    13    1
     2    14    12    1
     3    13    11    1
     4    12    10    1
     5    11    10    2
     6    11     9    1
     7    10     8    1
     8     9     7    2
     9     8     6    2
    10     7     6    1
    11     6     5    1
    12     1     5    1
    13     1     2    1
    14     3     2    1
    15     2     4    2
