@<TRIPOS>MOLECULE
/home/cewinharhar/GITHUB/reincatalyze/data/processed/docking_pred/2023-May-22-1902_sub9_nm5_bs15_s42_ex16_mel10_mts1000_k50_ec02_g099_lra9e-4_lrc1e-3/f5fb071253116e33fb6a6057d91faa3d89d34546_ligand_9.pdbqt
 14 15 0 0 0
SMALL
GASTEIGER

@<TRIPOS>ATOM
      1  C          5.3610    2.9540    0.1830 C.3     1  UNL1        0.0800
      2  C          6.3790    3.6640    1.0070 C.2     1  UNL1        0.1300
      3  C          7.1970    4.7750    0.4500 C.3     1  UNL1        0.0870
      4  O          6.5730    3.3510    2.1700 O.2     1  UNL1       -0.3000
      5  C          5.0300    1.5950    0.7670 C.3     1  UNL1        0.0430
      6  C          5.9180    0.5430    0.2390 C.2     1  UNL1       -0.0440
      7  C          6.3880    0.5750   -1.0780 C.2     1  UNL1        0.0080
      8  C          6.3010   -0.4980    1.0540 C.2     1  UNL1        0.0540
      9  C          7.2190   -0.4390   -1.5180 C.2     1  UNL1        0.0510
     10  C          7.1420   -1.5210    0.6040 C.2     1  UNL1        0.1660
     11  C          7.6040   -1.4910   -0.6930 C.2     1  UNL1        0.1650
     12  O          7.6580   -2.6470    1.2090 O.2     1  UNL1       -0.4540
     13  O          8.4040   -2.6110   -0.8590 O.2     1  UNL1       -0.4540
     14  C          8.5380   -3.3230    0.3480 C.3     1  UNL1        0.4680
@<TRIPOS>BOND
     1     9     7    1
     2     9    11    2
     3     7     6    2
     4    13    11    1
     5    13    14    1
     6    11    10    1
     7     1     5    1
     8     1     2    1
     9     6     5    1
    10     6     8    1
    11    14    12    1
    12     3     2    1
    13    10     8    2
    14    10    12    1
    15     2     4    2
