@<TRIPOS>MOLECULE
/home/cewinharhar/GITHUB/reincatalyze/data/processed/docking_pred/2023-May-22-1902_sub9_nm5_bs15_s42_ex16_mel10_mts1000_k50_ec02_g099_lra9e-4_lrc1e-3/f6b0a6d65051a5b20d9eb350202399160ef0f891_ligand_9.pdbqt
 14 15 0 0 0
SMALL
GASTEIGER

@<TRIPOS>ATOM
      1  C          5.7900    2.9230   -0.0830 C.3     1  UNL1        0.0800
      2  C          6.4210    3.8610    0.8880 C.2     1  UNL1        0.1300
      3  C          7.5230    4.7750    0.4870 C.3     1  UNL1        0.0870
      4  O          6.0470    3.9050    2.0490 O.2     1  UNL1       -0.3000
      5  C          4.9790    1.8580    0.6280 C.3     1  UNL1        0.0430
      6  C          5.7490    0.6160    0.8130 C.2     1  UNL1       -0.0440
      7  C          5.8010   -0.0380    2.0500 C.2     1  UNL1        0.0080
      8  C          6.4370    0.0750   -0.2490 C.2     1  UNL1        0.0540
      9  C          6.5400   -1.2010    2.1640 C.2     1  UNL1        0.0510
     10  C          7.1830   -1.1010   -0.1290 C.2     1  UNL1        0.1660
     11  C          7.2350   -1.7440    1.0880 C.2     1  UNL1        0.1650
     12  O          7.9430   -1.8270   -1.0210 O.2     1  UNL1       -0.4540
     13  O          8.0330   -2.8650    0.9150 O.2     1  UNL1       -0.4540
     14  C          8.4280   -3.0050   -0.4290 C.3     1  UNL1        0.4680
@<TRIPOS>BOND
     1    12    14    1
     2    12    10    1
     3    14    13    1
     4     8    10    1
     5     8     6    2
     6    10    11    2
     7     1     5    1
     8     1     2    1
     9     3     2    1
    10     5     6    1
    11     6     7    1
    12     2     4    2
    13    13    11    1
    14    11     9    1
    15     7     9    2
