@<TRIPOS>MOLECULE
/home/cewinharhar/GITHUB/reincatalyze/data/processed/docking_pred/2023-May-22-1902_sub9_nm5_bs15_s42_ex16_mel10_mts1000_k50_ec02_g099_lra9e-4_lrc1e-3/f6e3ea477952fa895fac814ddb6280364cb1460b_ligand_9.pdbqt
 14 15 0 0 0
SMALL
GASTEIGER

@<TRIPOS>ATOM
      1  C          5.4270    2.9070    0.1160 C.3     1  UNL1        0.0800
      2  C          6.2460    3.8350    0.9450 C.2     1  UNL1        0.1300
      3  C          7.2220    4.7750    0.3320 C.3     1  UNL1        0.0870
      4  O          6.1390    3.8490    2.1610 O.2     1  UNL1       -0.3000
      5  C          5.1650    1.6040    0.8440 C.3     1  UNL1        0.0430
      6  C          6.0010    0.5080    0.3200 C.2     1  UNL1       -0.0440
      7  C          6.3580   -0.5860    1.1160 C.2     1  UNL1        0.0080
      8  C          6.4440    0.5510   -0.9820 C.2     1  UNL1        0.0540
      9  C          7.1430   -1.5850    0.5710 C.2     1  UNL1        0.0510
     10  C          7.2370   -0.4620   -1.5290 C.2     1  UNL1        0.1660
     11  C          7.5900   -1.5380   -0.7460 C.2     1  UNL1        0.1650
     12  O          7.7960   -0.6480   -2.7760 O.2     1  UNL1       -0.4540
     13  O          8.3660   -2.3720   -1.5370 O.2     1  UNL1       -0.4540
     14  C          8.4460   -1.8900   -2.8570 C.3     1  UNL1        0.4680
@<TRIPOS>BOND
     1    14    12    1
     2    14    13    1
     3    12    10    1
     4    13    11    1
     5    10     8    1
     6    10    11    2
     7     8     6    2
     8    11     9    1
     9     1     5    1
    10     1     2    1
    11     6     5    1
    12     6     7    1
    13     3     2    1
    14     9     7    2
    15     2     4    2
