@<TRIPOS>MOLECULE
/home/cewinharhar/GITHUB/reincatalyze/data/processed/docking_pred/2023-May-22-1902_sub9_nm5_bs15_s42_ex16_mel10_mts1000_k50_ec02_g099_lra9e-4_lrc1e-3/f6e3ea477952fa895fac814ddb6280364cb1460b_ligand_9.pdbqt
 14 15 0 0 0
SMALL
GASTEIGER

@<TRIPOS>ATOM
      1  C          5.4980    1.9010    1.2740 C.3     1  UNL1        0.0800
      2  C          5.0480    0.6830    2.0050 C.2     1  UNL1        0.1300
      3  C          5.9240   -0.5110    2.1470 C.3     1  UNL1        0.0870
      4  O          3.9390    0.6300    2.5110 O.2     1  UNL1       -0.3000
      5  C          5.3770    1.7190   -0.2260 C.3     1  UNL1        0.0430
      6  C          6.5490    1.0240   -0.7890 C.2     1  UNL1       -0.0440
      7  C          7.8530    1.4670   -0.5390 C.2     1  UNL1        0.0080
      8  C          6.3680   -0.0890   -1.5780 C.2     1  UNL1        0.0540
      9  C          8.9140    0.7740   -1.0930 C.2     1  UNL1        0.0510
     10  C          7.4440   -0.7860   -2.1360 C.2     1  UNL1        0.1660
     11  C          8.7280   -0.3500   -1.8920 C.2     1  UNL1        0.1650
     12  O          7.5250   -1.9010   -2.9420 O.2     1  UNL1       -0.4540
     13  O          9.5790   -1.2170   -2.5590 O.2     1  UNL1       -0.4540
     14  C          8.8630   -2.2680   -3.1630 C.3     1  UNL1        0.4680
@<TRIPOS>BOND
     1    14    12    1
     2    14    13    1
     3    12    10    1
     4    13    11    1
     5    10    11    2
     6    10     8    1
     7    11     9    1
     8     8     6    2
     9     9     7    2
    10     6     7    1
    11     6     5    1
    12     5     1    1
    13     1     2    1
    14     2     3    1
    15     2     4    2
