@<TRIPOS>MOLECULE
/home/cewinharhar/GITHUB/reincatalyze/data/processed/docking_pred/2023-May-22-1902_sub9_nm5_bs15_s42_ex16_mel10_mts1000_k50_ec02_g099_lra9e-4_lrc1e-3/f74925e0f2dbd9eb14447f51d5c862455f02ecd6_ligand_9.pdbqt
 14 15 0 0 0
SMALL
GASTEIGER

@<TRIPOS>ATOM
      1  C          5.3990    2.8870    0.0940 C.3     1  UNL1        0.0800
      2  C          6.2820    3.7360    0.9420 C.2     1  UNL1        0.1300
      3  C          7.1710    4.7720    0.3510 C.3     1  UNL1        0.0870
      4  O          6.3000    3.6050    2.1550 O.2     1  UNL1       -0.3000
      5  C          5.5640    1.4170    0.4280 C.3     1  UNL1        0.0430
      6  C          6.6660    0.8040   -0.3340 C.2     1  UNL1       -0.0440
      7  C          7.9420    1.3770   -0.3680 C.2     1  UNL1        0.0080
      8  C          6.4460   -0.3620   -1.0320 C.2     1  UNL1        0.0540
      9  C          8.9370    0.7560   -1.1000 C.2     1  UNL1        0.0510
     10  C          7.4560   -0.9870   -1.7700 C.2     1  UNL1        0.1660
     11  C          8.7120   -0.4230   -1.8050 C.2     1  UNL1        0.1650
     12  O          7.4880   -2.1320   -2.5370 O.2     1  UNL1       -0.4540
     13  O          9.4980   -1.2430   -2.5990 O.2     1  UNL1       -0.4540
     14  C          8.7860   -2.3860   -3.0090 C.3     1  UNL1        0.4680
@<TRIPOS>BOND
     1    14    13    1
     2    14    12    1
     3    13    11    1
     4    12    10    1
     5    11    10    2
     6    11     9    1
     7    10     8    1
     8     9     7    2
     9     8     6    2
    10     7     6    1
    11     6     5    1
    12     1     5    1
    13     1     2    1
    14     3     2    1
    15     2     4    2
