@<TRIPOS>MOLECULE
/home/cewinharhar/GITHUB/reincatalyze/data/processed/docking_pred/2023-May-22-1902_sub9_nm5_bs15_s42_ex16_mel10_mts1000_k50_ec02_g099_lra9e-4_lrc1e-3/f74925e0f2dbd9eb14447f51d5c862455f02ecd6_ligand_9.pdbqt
 14 15 0 0 0
SMALL
GASTEIGER

@<TRIPOS>ATOM
      1  C          5.7490    1.3510   -0.3530 C.3     1  UNL1        0.0800
      2  C          5.1390    1.3020    1.0050 C.2     1  UNL1        0.1300
      3  C          5.4060    0.1780    1.9420 C.3     1  UNL1        0.0870
      4  O          4.3960    2.1910    1.3910 O.2     1  UNL1       -0.3000
      5  C          7.2460    1.1180   -0.2920 C.3     1  UNL1        0.0430
      6  C          7.6220   -0.1770   -0.8860 C.2     1  UNL1       -0.0440
      7  C          7.7150   -0.3490   -2.2720 C.2     1  UNL1        0.0080
      8  C          7.8920   -1.2500   -0.0680 C.2     1  UNL1        0.0540
      9  C          8.0740   -1.5870   -2.7720 C.2     1  UNL1        0.0510
     10  C          8.2550   -2.5000   -0.5780 C.2     1  UNL1        0.1660
     11  C          8.3460   -2.6700   -1.9420 C.2     1  UNL1        0.1650
     12  O          8.5680   -3.7040    0.0170 O.2     1  UNL1       -0.4540
     13  O          8.7170   -3.9880   -2.1580 O.2     1  UNL1       -0.4540
     14  C          8.9570   -4.6540   -0.9410 C.3     1  UNL1        0.4680
@<TRIPOS>BOND
     1     9     7    1
     2     9    11    2
     3     7     6    2
     4    13    11    1
     5    13    14    1
     6    11    10    1
     7    14    12    1
     8     6     5    1
     9     6     8    1
    10    10     8    2
    11    10    12    1
    12     1     5    1
    13     1     2    1
    14     2     4    2
    15     2     3    1
