@<TRIPOS>MOLECULE
/home/cewinharhar/GITHUB/reincatalyze/data/processed/docking_pred/2023-May-22-1902_sub9_nm5_bs15_s42_ex16_mel10_mts1000_k50_ec02_g099_lra9e-4_lrc1e-3/f74925e0f2dbd9eb14447f51d5c862455f02ecd6_ligand_9.pdbqt
 14 15 0 0 0
SMALL
GASTEIGER

@<TRIPOS>ATOM
      1  C          5.5210    1.9410    1.2510 C.3     1  UNL1        0.0800
      2  C          5.1030    0.7270    2.0070 C.2     1  UNL1        0.1300
      3  C          6.0180   -0.4320    2.1900 C.3     1  UNL1        0.0870
      4  O          3.9900    0.6490    2.5010 O.2     1  UNL1       -0.3000
      5  C          5.3910    1.7300   -0.2450 C.3     1  UNL1        0.0430
      6  C          6.5630    1.0300   -0.8020 C.2     1  UNL1       -0.0440
      7  C          7.8680    1.4640   -0.5410 C.2     1  UNL1        0.0080
      8  C          6.3810   -0.0780   -1.5970 C.2     1  UNL1        0.0540
      9  C          8.9290    0.7670   -1.0900 C.2     1  UNL1        0.0510
     10  C          7.4570   -0.7800   -2.1490 C.2     1  UNL1        0.1660
     11  C          8.7410   -0.3530   -1.8940 C.2     1  UNL1        0.1650
     12  O          7.5370   -1.8920   -2.9590 O.2     1  UNL1       -0.4540
     13  O          9.5920   -1.2220   -2.5590 O.2     1  UNL1       -0.4540
     14  C          8.8740   -2.2660   -3.1720 C.3     1  UNL1        0.4680
@<TRIPOS>BOND
     1    14    12    1
     2    14    13    1
     3    12    10    1
     4    13    11    1
     5    10    11    2
     6    10     8    1
     7    11     9    1
     8     8     6    2
     9     9     7    2
    10     6     7    1
    11     6     5    1
    12     5     1    1
    13     1     2    1
    14     2     3    1
    15     2     4    2
