MODEL 1
REMARK VINA RESULT:      -7.9      0.000      0.000
REMARK SMILES CC(=O)CCc1ccc2c(c1)OCO2
REMARK SMILES IDX 4 1 2 2 1 3 3 4 5 5 6 6 7 7 11 8 8 9 10 10 9 11 12 12 14 13
REMARK SMILES IDX 13 14
REMARK H PARENT
REMARK Flexibility Score: inf
ROOT
ATOM      1  C   UNL     1       5.434   2.931   0.202  1.00  0.00     0.080 C 
ENDROOT
BRANCH   1   2
ATOM      2  C   UNL     1       6.271   3.869   1.001  1.00  0.00     0.130 C 
ATOM      3  C   UNL     1       7.261   4.774   0.358  1.00  0.00     0.087 C 
ATOM      4  O   UNL     1       6.167   3.922   2.216  1.00  0.00    -0.300 OA
ENDBRANCH   1   2
BRANCH   1   5
ATOM      5  C   UNL     1       5.212   1.626   0.941  1.00  0.00     0.043 C 
BRANCH   5   6
ATOM      6  C   UNL     1       6.016   0.531   0.372  1.00  0.00    -0.044 A 
ATOM      7  C   UNL     1       6.345  -0.604   1.122  1.00  0.00     0.008 A 
ATOM      8  C   UNL     1       6.458   0.614  -0.929  1.00  0.00     0.054 A 
ATOM      9  C   UNL     1       7.103  -1.601   0.535  1.00  0.00     0.051 A 
ATOM     10  C   UNL     1       7.223  -0.397  -1.519  1.00  0.00     0.166 A 
ATOM     11  C   UNL     1       7.548  -1.513  -0.781  1.00  0.00     0.165 A 
ATOM     12  O   UNL     1       7.774  -0.547  -2.773  1.00  0.00    -0.454 OA
ATOM     13  O   UNL     1       8.299  -2.335  -1.606  1.00  0.00    -0.454 OA
ATOM     14  C   UNL     1       8.390  -1.803  -2.906  1.00  0.00     0.468 C 
ENDBRANCH   5   6
ENDBRANCH   1   5
TORSDOF 3
ENDMDL
MODEL 2
REMARK VINA RESULT:      -7.8      1.031      2.023
REMARK SMILES CC(=O)CCc1ccc2c(c1)OCO2
REMARK SMILES IDX 4 1 2 2 1 3 3 4 5 5 6 6 7 7 11 8 8 9 10 10 9 11 12 12 14 13
REMARK SMILES IDX 13 14
REMARK H PARENT
REMARK Flexibility Score: inf
ROOT
ATOM      1  C   UNL     1       5.361   2.954   0.183  1.00  0.00     0.080 C 
ENDROOT
BRANCH   1   2
ATOM      2  C   UNL     1       6.379   3.664   1.007  1.00  0.00     0.130 C 
ATOM      3  C   UNL     1       7.197   4.775   0.450  1.00  0.00     0.087 C 
ATOM      4  O   UNL     1       6.573   3.351   2.170  1.00  0.00    -0.300 OA
ENDBRANCH   1   2
BRANCH   1   5
ATOM      5  C   UNL     1       5.030   1.595   0.767  1.00  0.00     0.043 C 
BRANCH   5   6
ATOM      6  C   UNL     1       5.918   0.543   0.239  1.00  0.00    -0.044 A 
ATOM      7  C   UNL     1       6.388   0.575  -1.078  1.00  0.00     0.008 A 
ATOM      8  C   UNL     1       6.301  -0.498   1.054  1.00  0.00     0.054 A 
ATOM      9  C   UNL     1       7.219  -0.439  -1.518  1.00  0.00     0.051 A 
ATOM     10  C   UNL     1       7.142  -1.521   0.604  1.00  0.00     0.166 A 
ATOM     11  C   UNL     1       7.604  -1.491  -0.693  1.00  0.00     0.165 A 
ATOM     12  O   UNL     1       7.658  -2.647   1.209  1.00  0.00    -0.454 OA
ATOM     13  O   UNL     1       8.404  -2.611  -0.859  1.00  0.00    -0.454 OA
ATOM     14  C   UNL     1       8.538  -3.323   0.348  1.00  0.00     0.468 C 
ENDBRANCH   5   6
ENDBRANCH   1   5
TORSDOF 3
ENDMDL
MODEL 3
REMARK VINA RESULT:      -7.7      1.897      2.645
REMARK SMILES CC(=O)CCc1ccc2c(c1)OCO2
REMARK SMILES IDX 4 1 2 2 1 3 3 4 5 5 6 6 7 7 11 8 8 9 10 10 9 11 12 12 14 13
REMARK SMILES IDX 13 14
REMARK H PARENT
REMARK Flexibility Score: inf
ROOT
ATOM      1  C   UNL     1       5.521   1.941   1.251  1.00  0.00     0.080 C 
ENDROOT
BRANCH   1   2
ATOM      2  C   UNL     1       5.103   0.727   2.007  1.00  0.00     0.130 C 
ATOM      3  C   UNL     1       6.018  -0.432   2.190  1.00  0.00     0.087 C 
ATOM      4  O   UNL     1       3.990   0.649   2.501  1.00  0.00    -0.300 OA
ENDBRANCH   1   2
BRANCH   1   5
ATOM      5  C   UNL     1       5.391   1.730  -0.245  1.00  0.00     0.043 C 
BRANCH   5   6
ATOM      6  C   UNL     1       6.563   1.030  -0.802  1.00  0.00    -0.044 A 
ATOM      7  C   UNL     1       7.868   1.464  -0.541  1.00  0.00     0.008 A 
ATOM      8  C   UNL     1       6.381  -0.078  -1.597  1.00  0.00     0.054 A 
ATOM      9  C   UNL     1       8.929   0.767  -1.090  1.00  0.00     0.051 A 
ATOM     10  C   UNL     1       7.457  -0.780  -2.149  1.00  0.00     0.166 A 
ATOM     11  C   UNL     1       8.741  -0.353  -1.894  1.00  0.00     0.165 A 
ATOM     12  O   UNL     1       7.537  -1.892  -2.959  1.00  0.00    -0.454 OA
ATOM     13  O   UNL     1       9.592  -1.222  -2.559  1.00  0.00    -0.454 OA
ATOM     14  C   UNL     1       8.874  -2.266  -3.172  1.00  0.00     0.468 C 
ENDBRANCH   5   6
ENDBRANCH   1   5
TORSDOF 3
ENDMDL
MODEL 4
REMARK VINA RESULT:      -7.6      1.125      1.551
REMARK SMILES CC(=O)CCc1ccc2c(c1)OCO2
REMARK SMILES IDX 4 1 2 2 1 3 3 4 5 5 6 6 7 7 11 8 8 9 10 10 9 11 12 12 14 13
REMARK SMILES IDX 13 14
REMARK H PARENT
REMARK Flexibility Score: inf
ROOT
ATOM      1  C   UNL     1       5.399   2.887   0.094  1.00  0.00     0.080 C 
ENDROOT
BRANCH   1   2
ATOM      2  C   UNL     1       6.282   3.736   0.942  1.00  0.00     0.130 C 
ATOM      3  C   UNL     1       7.171   4.772   0.351  1.00  0.00     0.087 C 
ATOM      4  O   UNL     1       6.300   3.605   2.155  1.00  0.00    -0.300 OA
ENDBRANCH   1   2
BRANCH   1   5
ATOM      5  C   UNL     1       5.564   1.417   0.428  1.00  0.00     0.043 C 
BRANCH   5   6
ATOM      6  C   UNL     1       6.666   0.804  -0.334  1.00  0.00    -0.044 A 
ATOM      7  C   UNL     1       7.942   1.377  -0.368  1.00  0.00     0.008 A 
ATOM      8  C   UNL     1       6.446  -0.362  -1.032  1.00  0.00     0.054 A 
ATOM      9  C   UNL     1       8.937   0.756  -1.100  1.00  0.00     0.051 A 
ATOM     10  C   UNL     1       7.456  -0.987  -1.770  1.00  0.00     0.166 A 
ATOM     11  C   UNL     1       8.712  -0.423  -1.805  1.00  0.00     0.165 A 
ATOM     12  O   UNL     1       7.488  -2.132  -2.537  1.00  0.00    -0.454 OA
ATOM     13  O   UNL     1       9.498  -1.243  -2.599  1.00  0.00    -0.454 OA
ATOM     14  C   UNL     1       8.786  -2.386  -3.009  1.00  0.00     0.468 C 
ENDBRANCH   5   6
ENDBRANCH   1   5
TORSDOF 3
ENDMDL
MODEL 5
REMARK VINA RESULT:      -7.5      1.984      3.053
REMARK SMILES CC(=O)CCc1ccc2c(c1)OCO2
REMARK SMILES IDX 4 1 2 2 1 3 3 4 5 5 6 6 7 7 11 8 8 9 10 10 9 11 12 12 14 13
REMARK SMILES IDX 13 14
REMARK H PARENT
REMARK Flexibility Score: inf
ROOT
ATOM      1  C   UNL     1       5.749   1.351  -0.353  1.00  0.00     0.080 C 
ENDROOT
BRANCH   1   2
ATOM      2  C   UNL     1       5.139   1.302   1.005  1.00  0.00     0.130 C 
ATOM      3  C   UNL     1       5.406   0.178   1.942  1.00  0.00     0.087 C 
ATOM      4  O   UNL     1       4.396   2.191   1.391  1.00  0.00    -0.300 OA
ENDBRANCH   1   2
BRANCH   1   5
ATOM      5  C   UNL     1       7.246   1.118  -0.292  1.00  0.00     0.043 C 
BRANCH   5   6
ATOM      6  C   UNL     1       7.622  -0.177  -0.886  1.00  0.00    -0.044 A 
ATOM      7  C   UNL     1       7.715  -0.349  -2.272  1.00  0.00     0.008 A 
ATOM      8  C   UNL     1       7.892  -1.250  -0.068  1.00  0.00     0.054 A 
ATOM      9  C   UNL     1       8.074  -1.587  -2.772  1.00  0.00     0.051 A 
ATOM     10  C   UNL     1       8.255  -2.500  -0.578  1.00  0.00     0.166 A 
ATOM     11  C   UNL     1       8.346  -2.670  -1.942  1.00  0.00     0.165 A 
ATOM     12  O   UNL     1       8.568  -3.704   0.017  1.00  0.00    -0.454 OA
ATOM     13  O   UNL     1       8.717  -3.988  -2.158  1.00  0.00    -0.454 OA
ATOM     14  C   UNL     1       8.957  -4.654  -0.941  1.00  0.00     0.468 C 
ENDBRANCH   5   6
ENDBRANCH   1   5
TORSDOF 3
ENDMDL
