@<TRIPOS>MOLECULE
/home/cewinharhar/GITHUB/reincatalyze/data/processed/docking_pred/2023-May-22-1902_sub9_nm5_bs15_s42_ex16_mel10_mts1000_k50_ec02_g099_lra9e-4_lrc1e-3/f74925e0f2dbd9eb14447f51d5c862455f02ecd6_ligand_9.pdbqt
 14 15 0 0 0
SMALL
GASTEIGER

@<TRIPOS>ATOM
      1  C          5.4340    2.9310    0.2020 C.3     1  UNL1        0.0800
      2  C          6.2710    3.8690    1.0010 C.2     1  UNL1        0.1300
      3  C          7.2610    4.7740    0.3580 C.3     1  UNL1        0.0870
      4  O          6.1670    3.9220    2.2160 O.2     1  UNL1       -0.3000
      5  C          5.2120    1.6260    0.9410 C.3     1  UNL1        0.0430
      6  C          6.0160    0.5310    0.3720 C.2     1  UNL1       -0.0440
      7  C          6.3450   -0.6040    1.1220 C.2     1  UNL1        0.0080
      8  C          6.4580    0.6140   -0.9290 C.2     1  UNL1        0.0540
      9  C          7.1030   -1.6010    0.5350 C.2     1  UNL1        0.0510
     10  C          7.2230   -0.3970   -1.5190 C.2     1  UNL1        0.1660
     11  C          7.5480   -1.5130   -0.7810 C.2     1  UNL1        0.1650
     12  O          7.7740   -0.5470   -2.7730 O.2     1  UNL1       -0.4540
     13  O          8.2990   -2.3350   -1.6060 O.2     1  UNL1       -0.4540
     14  C          8.3900   -1.8030   -2.9060 C.3     1  UNL1        0.4680
@<TRIPOS>BOND
     1    14    12    1
     2    14    13    1
     3    12    10    1
     4    13    11    1
     5    10     8    1
     6    10    11    2
     7     8     6    2
     8    11     9    1
     9     1     5    1
    10     1     2    1
    11     3     2    1
    12     6     5    1
    13     6     7    1
    14     9     7    2
    15     2     4    2
