MODEL 1
REMARK VINA RESULT:      -7.8      0.000      0.000
REMARK SMILES CC(=O)CCc1ccc2c(c1)OCO2
REMARK SMILES IDX 4 1 2 2 1 3 3 4 5 5 6 6 7 7 11 8 8 9 10 10 9 11 12 12 14 13
REMARK SMILES IDX 13 14
REMARK H PARENT
REMARK Flexibility Score: inf
ROOT
ATOM      1  C   UNL     1       5.278   3.038   0.191  1.00  0.00     0.080 C 
ENDROOT
BRANCH   1   2
ATOM      2  C   UNL     1       6.272   3.805   0.993  1.00  0.00     0.130 C 
ATOM      3  C   UNL     1       7.207   4.773   0.358  1.00  0.00     0.087 C 
ATOM      4  O   UNL     1       6.348   3.661   2.202  1.00  0.00    -0.300 OA
ENDBRANCH   1   2
BRANCH   1   5
ATOM      5  C   UNL     1       4.984   1.691   0.822  1.00  0.00     0.043 C 
BRANCH   5   6
ATOM      6  C   UNL     1       5.864   0.635   0.291  1.00  0.00    -0.044 A 
ATOM      7  C   UNL     1       6.289   0.637  -1.042  1.00  0.00     0.008 A 
ATOM      8  C   UNL     1       6.286  -0.381   1.118  1.00  0.00     0.054 A 
ATOM      9  C   UNL     1       7.115  -0.381  -1.484  1.00  0.00     0.051 A 
ATOM     10  C   UNL     1       7.121  -1.407   0.666  1.00  0.00     0.166 A 
ATOM     11  C   UNL     1       7.539  -1.407  -0.646  1.00  0.00     0.165 A 
ATOM     12  O   UNL     1       7.669  -2.512   1.282  1.00  0.00    -0.454 OA
ATOM     13  O   UNL     1       8.344  -2.523  -0.810  1.00  0.00    -0.454 OA
ATOM     14  C   UNL     1       8.527  -3.202   0.409  1.00  0.00     0.468 C 
ENDBRANCH   5   6
ENDBRANCH   1   5
TORSDOF 3
ENDMDL
MODEL 2
REMARK VINA RESULT:      -7.7      1.029      2.013
REMARK SMILES CC(=O)CCc1ccc2c(c1)OCO2
REMARK SMILES IDX 4 1 2 2 1 3 3 4 5 5 6 6 7 7 11 8 8 9 10 10 9 11 12 12 14 13
REMARK SMILES IDX 13 14
REMARK H PARENT
REMARK Flexibility Score: inf
ROOT
ATOM      1  C   UNL     1       5.460   2.893   0.342  1.00  0.00     0.080 C 
ENDROOT
BRANCH   1   2
ATOM      2  C   UNL     1       6.283   3.891   1.082  1.00  0.00     0.130 C 
ATOM      3  C   UNL     1       7.254   4.775   0.383  1.00  0.00     0.087 C 
ATOM      4  O   UNL     1       6.183   4.012   2.292  1.00  0.00    -0.300 OA
ENDBRANCH   1   2
BRANCH   1   5
ATOM      5  C   UNL     1       5.324   1.603   1.126  1.00  0.00     0.043 C 
BRANCH   5   6
ATOM      6  C   UNL     1       6.100   0.509   0.516  1.00  0.00    -0.044 A 
ATOM      7  C   UNL     1       6.486  -0.616   1.254  1.00  0.00     0.008 A 
ATOM      8  C   UNL     1       6.457   0.583  -0.811  1.00  0.00     0.054 A 
ATOM      9  C   UNL     1       7.213  -1.613   0.628  1.00  0.00     0.051 A 
ATOM     10  C   UNL     1       7.192  -0.427  -1.440  1.00  0.00     0.166 A 
ATOM     11  C   UNL     1       7.573  -1.534  -0.714  1.00  0.00     0.165 A 
ATOM     12  O   UNL     1       7.663  -0.585  -2.726  1.00  0.00    -0.454 OA
ATOM     13  O   UNL     1       8.277  -2.357  -1.579  1.00  0.00    -0.454 OA
ATOM     14  C   UNL     1       8.280  -1.837  -2.887  1.00  0.00     0.468 C 
ENDBRANCH   5   6
ENDBRANCH   1   5
TORSDOF 3
ENDMDL
MODEL 3
REMARK VINA RESULT:      -7.6      2.414      3.062
REMARK SMILES CC(=O)CCc1ccc2c(c1)OCO2
REMARK SMILES IDX 4 1 2 2 1 3 3 4 5 5 6 6 7 7 11 8 8 9 10 10 9 11 12 12 14 13
REMARK SMILES IDX 13 14
REMARK H PARENT
REMARK Flexibility Score: inf
ROOT
ATOM      1  C   UNL     1       5.519   1.917   1.264  1.00  0.00     0.080 C 
ENDROOT
BRANCH   1   2
ATOM      2  C   UNL     1       5.070   0.703   2.002  1.00  0.00     0.130 C 
ATOM      3  C   UNL     1       5.952  -0.484   2.161  1.00  0.00     0.087 C 
ATOM      4  O   UNL     1       3.957   0.648   2.499  1.00  0.00    -0.300 OA
ENDBRANCH   1   2
BRANCH   1   5
ATOM      5  C   UNL     1       5.394   1.727  -0.235  1.00  0.00     0.043 C 
BRANCH   5   6
ATOM      6  C   UNL     1       6.562   1.026  -0.797  1.00  0.00    -0.044 A 
ATOM      7  C   UNL     1       7.868   1.462  -0.547  1.00  0.00     0.008 A 
ATOM      8  C   UNL     1       6.376  -0.087  -1.585  1.00  0.00     0.054 A 
ATOM      9  C   UNL     1       8.926   0.763  -1.100  1.00  0.00     0.051 A 
ATOM     10  C   UNL     1       7.449  -0.790  -2.141  1.00  0.00     0.166 A 
ATOM     11  C   UNL     1       8.734  -0.361  -1.897  1.00  0.00     0.165 A 
ATOM     12  O   UNL     1       7.524  -1.907  -2.946  1.00  0.00    -0.454 OA
ATOM     13  O   UNL     1       9.581  -1.233  -2.563  1.00  0.00    -0.454 OA
ATOM     14  C   UNL     1       8.860  -2.281  -3.166  1.00  0.00     0.468 C 
ENDBRANCH   5   6
ENDBRANCH   1   5
TORSDOF 3
ENDMDL
MODEL 4
REMARK VINA RESULT:      -7.6      1.713      2.030
REMARK SMILES CC(=O)CCc1ccc2c(c1)OCO2
REMARK SMILES IDX 4 1 2 2 1 3 3 4 5 5 6 6 7 7 11 8 8 9 10 10 9 11 12 12 14 13
REMARK SMILES IDX 13 14
REMARK H PARENT
REMARK Flexibility Score: inf
ROOT
ATOM      1  C   UNL     1       5.397   2.868   0.122  1.00  0.00     0.080 C 
ENDROOT
BRANCH   1   2
ATOM      2  C   UNL     1       6.263   3.728   0.976  1.00  0.00     0.130 C 
ATOM      3  C   UNL     1       7.144   4.774   0.392  1.00  0.00     0.087 C 
ATOM      4  O   UNL     1       6.275   3.596   2.189  1.00  0.00    -0.300 OA
ENDBRANCH   1   2
BRANCH   1   5
ATOM      5  C   UNL     1       5.574   1.401   0.460  1.00  0.00     0.043 C 
BRANCH   5   6
ATOM      6  C   UNL     1       6.670   0.790  -0.312  1.00  0.00    -0.044 A 
ATOM      7  C   UNL     1       7.946   1.365  -0.355  1.00  0.00     0.008 A 
ATOM      8  C   UNL     1       6.447  -0.376  -1.009  1.00  0.00     0.054 A 
ATOM      9  C   UNL     1       8.936   0.747  -1.096  1.00  0.00     0.051 A 
ATOM     10  C   UNL     1       7.452  -0.998  -1.756  1.00  0.00     0.166 A 
ATOM     11  C   UNL     1       8.707  -0.431  -1.800  1.00  0.00     0.165 A 
ATOM     12  O   UNL     1       7.480  -2.142  -2.524  1.00  0.00    -0.454 OA
ATOM     13  O   UNL     1       9.488  -1.249  -2.602  1.00  0.00    -0.454 OA
ATOM     14  C   UNL     1       8.775  -2.393  -3.008  1.00  0.00     0.468 C 
ENDBRANCH   5   6
ENDBRANCH   1   5
TORSDOF 3
ENDMDL
MODEL 5
REMARK VINA RESULT:      -7.5      1.793      2.535
REMARK SMILES CC(=O)CCc1ccc2c(c1)OCO2
REMARK SMILES IDX 4 1 2 2 1 3 3 4 5 5 6 6 7 7 11 8 8 9 10 10 9 11 12 12 14 13
REMARK SMILES IDX 13 14
REMARK H PARENT
REMARK Flexibility Score: inf
ROOT
ATOM      1  C   UNL     1       5.745   1.334  -0.339  1.00  0.00     0.080 C 
ENDROOT
BRANCH   1   2
ATOM      2  C   UNL     1       5.160   1.305   1.030  1.00  0.00     0.130 C 
ATOM      3  C   UNL     1       5.383   0.158   1.951  1.00  0.00     0.087 C 
ATOM      4  O   UNL     1       4.477   2.230   1.439  1.00  0.00    -0.300 OA
ENDBRANCH   1   2
BRANCH   1   5
ATOM      5  C   UNL     1       7.243   1.108  -0.303  1.00  0.00     0.043 C 
BRANCH   5   6
ATOM      6  C   UNL     1       7.616  -0.186  -0.903  1.00  0.00    -0.044 A 
ATOM      7  C   UNL     1       7.692  -0.356  -2.290  1.00  0.00     0.008 A 
ATOM      8  C   UNL     1       7.900  -1.258  -0.089  1.00  0.00     0.054 A 
ATOM      9  C   UNL     1       8.047  -1.593  -2.796  1.00  0.00     0.051 A 
ATOM     10  C   UNL     1       8.260  -2.507  -0.605  1.00  0.00     0.166 A 
ATOM     11  C   UNL     1       8.334  -2.676  -1.969  1.00  0.00     0.165 A 
ATOM     12  O   UNL     1       8.585  -3.710  -0.014  1.00  0.00    -0.454 OA
ATOM     13  O   UNL     1       8.707  -3.992  -2.191  1.00  0.00    -0.454 OA
ATOM     14  C   UNL     1       8.965  -4.658  -0.978  1.00  0.00     0.468 C 
ENDBRANCH   5   6
ENDBRANCH   1   5
TORSDOF 3
ENDMDL
