@<TRIPOS>MOLECULE
/home/cewinharhar/GITHUB/reincatalyze/data/processed/docking_pred/2023-May-22-1902_sub9_nm5_bs15_s42_ex16_mel10_mts1000_k50_ec02_g099_lra9e-4_lrc1e-3/f9550a52c30547fdb3e6e224a3b8a38c5560e948_ligand_9.pdbqt
 14 15 0 0 0
SMALL
GASTEIGER

@<TRIPOS>ATOM
      1  C          5.2780    3.0380    0.1910 C.3     1  UNL1        0.0800
      2  C          6.2720    3.8050    0.9930 C.2     1  UNL1        0.1300
      3  C          7.2070    4.7730    0.3580 C.3     1  UNL1        0.0870
      4  O          6.3480    3.6610    2.2020 O.2     1  UNL1       -0.3000
      5  C          4.9840    1.6910    0.8220 C.3     1  UNL1        0.0430
      6  C          5.8640    0.6350    0.2910 C.2     1  UNL1       -0.0440
      7  C          6.2890    0.6370   -1.0420 C.2     1  UNL1        0.0080
      8  C          6.2860   -0.3810    1.1180 C.2     1  UNL1        0.0540
      9  C          7.1150   -0.3810   -1.4840 C.2     1  UNL1        0.0510
     10  C          7.1210   -1.4070    0.6660 C.2     1  UNL1        0.1660
     11  C          7.5390   -1.4070   -0.6460 C.2     1  UNL1        0.1650
     12  O          7.6690   -2.5120    1.2820 O.2     1  UNL1       -0.4540
     13  O          8.3440   -2.5230   -0.8100 O.2     1  UNL1       -0.4540
     14  C          8.5270   -3.2020    0.4090 C.3     1  UNL1        0.4680
@<TRIPOS>BOND
     1     9     7    1
     2     9    11    2
     3     7     6    2
     4    13    11    1
     5    13    14    1
     6    11    10    1
     7     1     5    1
     8     1     2    1
     9     6     5    1
    10     6     8    1
    11     3     2    1
    12    14    12    1
    13    10     8    2
    14    10    12    1
    15     2     4    2
