@<TRIPOS>MOLECULE
/home/cewinharhar/GITHUB/reincatalyze/data/processed/docking_pred/2023-May-22-1902_sub9_nm5_bs15_s42_ex16_mel10_mts1000_k50_ec02_g099_lra9e-4_lrc1e-3/f9550a52c30547fdb3e6e224a3b8a38c5560e948_ligand_9.pdbqt
 14 15 0 0 0
SMALL
GASTEIGER

@<TRIPOS>ATOM
      1  C          5.4600    2.8930    0.3420 C.3     1  UNL1        0.0800
      2  C          6.2830    3.8910    1.0820 C.2     1  UNL1        0.1300
      3  C          7.2540    4.7750    0.3830 C.3     1  UNL1        0.0870
      4  O          6.1830    4.0120    2.2920 O.2     1  UNL1       -0.3000
      5  C          5.3240    1.6030    1.1260 C.3     1  UNL1        0.0430
      6  C          6.1000    0.5090    0.5160 C.2     1  UNL1       -0.0440
      7  C          6.4860   -0.6160    1.2540 C.2     1  UNL1        0.0080
      8  C          6.4570    0.5830   -0.8110 C.2     1  UNL1        0.0540
      9  C          7.2130   -1.6130    0.6280 C.2     1  UNL1        0.0510
     10  C          7.1920   -0.4270   -1.4400 C.2     1  UNL1        0.1660
     11  C          7.5730   -1.5340   -0.7140 C.2     1  UNL1        0.1650
     12  O          7.6630   -0.5850   -2.7260 O.2     1  UNL1       -0.4540
     13  O          8.2770   -2.3570   -1.5790 O.2     1  UNL1       -0.4540
     14  C          8.2800   -1.8370   -2.8870 C.3     1  UNL1        0.4680
@<TRIPOS>BOND
     1    14    12    1
     2    14    13    1
     3    12    10    1
     4    13    11    1
     5    10     8    1
     6    10    11    2
     7     8     6    2
     8    11     9    1
     9     1     2    1
    10     1     5    1
    11     3     2    1
    12     6     5    1
    13     6     7    1
    14     9     7    2
    15     2     4    2
