@<TRIPOS>MOLECULE
/home/cewinharhar/GITHUB/reincatalyze/data/processed/docking_pred/2023-May-22-1902_sub9_nm5_bs15_s42_ex16_mel10_mts1000_k50_ec02_g099_lra9e-4_lrc1e-3/faf685cb0c2e1ff185f0c147bdf23d27aa2a460b_ligand_9.pdbqt
 14 15 0 0 0
SMALL
GASTEIGER

@<TRIPOS>ATOM
      1  C          5.4390    2.9610    0.2500 C.3     1  UNL1        0.0800
      2  C          6.3950    3.9730    0.7790 C.2     1  UNL1        0.1300
      3  C          6.7300    4.0510    2.2260 C.3     1  UNL1        0.0870
      4  O          6.9360    4.7740    0.0330 O.2     1  UNL1       -0.3000
      5  C          5.3710    1.7440    1.1520 C.3     1  UNL1        0.0430
      6  C          6.2330    0.6530    0.6630 C.2     1  UNL1       -0.0440
      7  C          7.0100   -0.1150    1.5390 C.2     1  UNL1        0.0080
      8  C          6.2820    0.3730   -0.6830 C.2     1  UNL1        0.0540
      9  C          7.7990   -1.1260    1.0230 C.2     1  UNL1        0.0510
     10  C          7.0820   -0.6510   -1.1990 C.2     1  UNL1        0.1660
     11  C          7.8470   -1.4070   -0.3390 C.2     1  UNL1        0.1650
     12  O          7.3010   -1.1180   -2.4780 O.2     1  UNL1       -0.4540
     13  O          8.5260   -2.3330   -1.1150 O.2     1  UNL1       -0.4540
     14  C          8.1400   -2.2440   -2.4660 C.3     1  UNL1        0.4680
@<TRIPOS>BOND
     1    12    14    1
     2    12    10    1
     3    14    13    1
     4    10     8    1
     5    10    11    2
     6    13    11    1
     7     8     6    2
     8    11     9    1
     9     4     2    2
    10     1     2    1
    11     1     5    1
    12     6     5    1
    13     6     7    1
    14     2     3    1
    15     9     7    2
