@<TRIPOS>MOLECULE
/home/cewinharhar/GITHUB/reincatalyze/data/processed/docking_pred/2023-May-22-1902_sub9_nm5_bs15_s42_ex16_mel10_mts1000_k50_ec02_g099_lra9e-4_lrc1e-3/faf685cb0c2e1ff185f0c147bdf23d27aa2a460b_ligand_9.pdbqt
 14 15 0 0 0
SMALL
GASTEIGER

@<TRIPOS>ATOM
      1  C          6.2020    0.8130    1.1170 C.3     1  UNL1        0.0800
      2  C          5.0460    1.7380    0.9520 C.2     1  UNL1        0.1300
      3  C          4.9190    2.6240   -0.2360 C.3     1  UNL1        0.0870
      4  O          4.1640    1.7940    1.7930 O.2     1  UNL1       -0.3000
      5  C          7.2310    1.0170    0.0230 C.3     1  UNL1        0.0430
      6  C          7.5710   -0.2490   -0.6500 C.2     1  UNL1       -0.0440
      7  C          7.5490   -0.3660   -2.0450 C.2     1  UNL1        0.0080
      8  C          7.9230   -1.3480    0.1000 C.2     1  UNL1        0.0540
      9  C          7.8790   -1.5790   -2.6210 C.2     1  UNL1        0.0510
     10  C          8.2560   -2.5720   -0.4880 C.2     1  UNL1        0.1660
     11  C          8.2330   -2.6880   -1.8600 C.2     1  UNL1        0.1650
     12  O          8.6320   -3.7920    0.0320 O.2     1  UNL1       -0.4540
     13  O          8.6010   -3.9910   -2.1570 O.2     1  UNL1       -0.4540
     14  C          8.9510   -4.6990   -0.9920 C.3     1  UNL1        0.4680
@<TRIPOS>BOND
     1     9     7    1
     2     9    11    2
     3    13    11    1
     4    13    14    1
     5     7     6    2
     6    11    10    1
     7    14    12    1
     8     6     5    1
     9     6     8    1
    10    10    12    1
    11    10     8    2
    12     3     2    1
    13     5     1    1
    14     2     1    1
    15     2     4    2
