MODEL 1
REMARK VINA RESULT:      -7.5      0.000      0.000
REMARK SMILES CC(=O)CCc1ccc2c(c1)OCO2
REMARK SMILES IDX 4 1 2 2 1 3 3 4 5 5 6 6 7 7 11 8 8 9 10 10 9 11 12 12 14 13
REMARK SMILES IDX 13 14
REMARK H PARENT
REMARK Flexibility Score: inf
ROOT
ATOM      1  C   UNL     1       6.202   0.813   1.117  1.00  0.00     0.080 C 
ENDROOT
BRANCH   1   2
ATOM      2  C   UNL     1       5.046   1.738   0.952  1.00  0.00     0.130 C 
ATOM      3  C   UNL     1       4.919   2.624  -0.236  1.00  0.00     0.087 C 
ATOM      4  O   UNL     1       4.164   1.794   1.793  1.00  0.00    -0.300 OA
ENDBRANCH   1   2
BRANCH   1   5
ATOM      5  C   UNL     1       7.231   1.017   0.023  1.00  0.00     0.043 C 
BRANCH   5   6
ATOM      6  C   UNL     1       7.571  -0.249  -0.650  1.00  0.00    -0.044 A 
ATOM      7  C   UNL     1       7.549  -0.366  -2.045  1.00  0.00     0.008 A 
ATOM      8  C   UNL     1       7.923  -1.348   0.100  1.00  0.00     0.054 A 
ATOM      9  C   UNL     1       7.879  -1.579  -2.621  1.00  0.00     0.051 A 
ATOM     10  C   UNL     1       8.256  -2.572  -0.488  1.00  0.00     0.166 A 
ATOM     11  C   UNL     1       8.233  -2.688  -1.860  1.00  0.00     0.165 A 
ATOM     12  O   UNL     1       8.632  -3.792   0.032  1.00  0.00    -0.454 OA
ATOM     13  O   UNL     1       8.601  -3.991  -2.157  1.00  0.00    -0.454 OA
ATOM     14  C   UNL     1       8.951  -4.699  -0.992  1.00  0.00     0.468 C 
ENDBRANCH   5   6
ENDBRANCH   1   5
TORSDOF 3
ENDMDL
MODEL 2
REMARK VINA RESULT:      -7.4      2.076      2.645
REMARK SMILES CC(=O)CCc1ccc2c(c1)OCO2
REMARK SMILES IDX 4 1 2 2 1 3 3 4 5 5 6 6 7 7 11 8 8 9 10 10 9 11 12 12 14 13
REMARK SMILES IDX 13 14
REMARK H PARENT
REMARK Flexibility Score: inf
ROOT
ATOM      1  C   UNL     1       6.357   2.524   1.488  1.00  0.00     0.080 C 
ENDROOT
BRANCH   1   2
ATOM      2  C   UNL     1       6.504   4.005   1.550  1.00  0.00     0.130 C 
ATOM      3  C   UNL     1       7.134   4.775   0.444  1.00  0.00     0.087 C 
ATOM      4  O   UNL     1       6.109   4.634   2.519  1.00  0.00    -0.300 OA
ENDBRANCH   1   2
BRANCH   1   5
ATOM      5  C   UNL     1       5.883   2.076   0.120  1.00  0.00     0.043 C 
BRANCH   5   6
ATOM      6  C   UNL     1       6.869   1.203  -0.542  1.00  0.00    -0.044 A 
ATOM      7  C   UNL     1       8.238   1.495  -0.519  1.00  0.00     0.008 A 
ATOM      8  C   UNL     1       6.446   0.070  -1.198  1.00  0.00     0.054 A 
ATOM      9  C   UNL     1       9.118   0.639  -1.156  1.00  0.00     0.051 A 
ATOM     10  C   UNL     1       7.340  -0.793  -1.840  1.00  0.00     0.166 A 
ATOM     11  C   UNL     1       8.686  -0.506  -1.819  1.00  0.00     0.165 A 
ATOM     12  O   UNL     1       7.170  -1.963  -2.550  1.00  0.00    -0.454 OA
ATOM     13  O   UNL     1       9.323  -1.516  -2.523  1.00  0.00    -0.454 OA
ATOM     14  C   UNL     1       8.409  -2.508  -2.926  1.00  0.00     0.468 C 
ENDBRANCH   5   6
ENDBRANCH   1   5
TORSDOF 3
ENDMDL
MODEL 3
REMARK VINA RESULT:      -7.4      1.004      1.116
REMARK SMILES CC(=O)CCc1ccc2c(c1)OCO2
REMARK SMILES IDX 4 1 2 2 1 3 3 4 5 5 6 6 7 7 11 8 8 9 10 10 9 11 12 12 14 13
REMARK SMILES IDX 13 14
REMARK H PARENT
REMARK Flexibility Score: inf
ROOT
ATOM      1  C   UNL     1       5.400   1.120   1.166  1.00  0.00     0.080 C 
ENDROOT
BRANCH   1   2
ATOM      2  C   UNL     1       5.376   2.503   0.615  1.00  0.00     0.130 C 
ATOM      3  C   UNL     1       6.564   3.395   0.688  1.00  0.00     0.087 C 
ATOM      4  O   UNL     1       4.371   2.948   0.083  1.00  0.00    -0.300 OA
ENDBRANCH   1   2
BRANCH   1   5
ATOM      5  C   UNL     1       6.821   0.647   1.402  1.00  0.00     0.043 C 
BRANCH   5   6
ATOM      6  C   UNL     1       7.231  -0.366   0.414  1.00  0.00    -0.044 A 
ATOM      7  C   UNL     1       7.115  -0.137  -0.962  1.00  0.00     0.008 A 
ATOM      8  C   UNL     1       7.745  -1.569   0.843  1.00  0.00     0.054 A 
ATOM      9  C   UNL     1       7.517  -1.125  -1.843  1.00  0.00     0.051 A 
ATOM     10  C   UNL     1       8.150  -2.564  -0.052  1.00  0.00     0.166 A 
ATOM     11  C   UNL     1       8.035  -2.340  -1.406  1.00  0.00     0.165 A 
ATOM     12  O   UNL     1       8.683  -3.824   0.121  1.00  0.00    -0.454 OA
ATOM     13  O   UNL     1       8.505  -3.478  -2.042  1.00  0.00    -0.454 OA
ATOM     14  C   UNL     1       9.010  -4.408  -1.113  1.00  0.00     0.468 C 
ENDBRANCH   5   6
ENDBRANCH   1   5
TORSDOF 3
ENDMDL
MODEL 4
REMARK VINA RESULT:      -7.4      0.926      1.832
REMARK SMILES CC(=O)CCc1ccc2c(c1)OCO2
REMARK SMILES IDX 4 1 2 2 1 3 3 4 5 5 6 6 7 7 11 8 8 9 10 10 9 11 12 12 14 13
REMARK SMILES IDX 13 14
REMARK H PARENT
REMARK Flexibility Score: inf
ROOT
ATOM      1  C   UNL     1       5.609   1.301  -0.527  1.00  0.00     0.080 C 
ENDROOT
BRANCH   1   2
ATOM      2  C   UNL     1       5.339   2.279   0.564  1.00  0.00     0.130 C 
ATOM      3  C   UNL     1       6.128   3.532   0.702  1.00  0.00     0.087 C 
ATOM      4  O   UNL     1       4.456   2.077   1.382  1.00  0.00    -0.300 OA
ENDBRANCH   1   2
BRANCH   1   5
ATOM      5  C   UNL     1       7.097   1.119  -0.747  1.00  0.00     0.043 C 
BRANCH   5   6
ATOM      6  C   UNL     1       7.531  -0.256  -0.441  1.00  0.00    -0.044 A 
ATOM      7  C   UNL     1       7.653  -0.710   0.877  1.00  0.00     0.008 A 
ATOM      8  C   UNL     1       7.822  -1.124  -1.468  1.00  0.00     0.054 A 
ATOM      9  C   UNL     1       8.064  -2.011   1.104  1.00  0.00     0.051 A 
ATOM     10  C   UNL     1       8.236  -2.439  -1.234  1.00  0.00     0.166 A 
ATOM     11  C   UNL     1       8.358  -2.886   0.063  1.00  0.00     0.165 A 
ATOM     12  O   UNL     1       8.580  -3.479  -2.071  1.00  0.00    -0.454 OA
ATOM     13  O   UNL     1       8.778  -4.205  -0.006  1.00  0.00    -0.454 OA
ATOM     14  C   UNL     1       8.843  -4.649  -1.340  1.00  0.00     0.468 C 
ENDBRANCH   5   6
ENDBRANCH   1   5
TORSDOF 3
ENDMDL
MODEL 5
REMARK VINA RESULT:      -7.3      1.979      2.976
REMARK SMILES CC(=O)CCc1ccc2c(c1)OCO2
REMARK SMILES IDX 4 1 2 2 1 3 3 4 5 5 6 6 7 7 11 8 8 9 10 10 9 11 12 12 14 13
REMARK SMILES IDX 13 14
REMARK H PARENT
REMARK Flexibility Score: inf
ROOT
ATOM      1  C   UNL     1       5.439   2.961   0.250  1.00  0.00     0.080 C 
ENDROOT
BRANCH   1   2
ATOM      2  C   UNL     1       6.395   3.973   0.779  1.00  0.00     0.130 C 
ATOM      3  C   UNL     1       6.730   4.051   2.226  1.00  0.00     0.087 C 
ATOM      4  O   UNL     1       6.936   4.774   0.033  1.00  0.00    -0.300 OA
ENDBRANCH   1   2
BRANCH   1   5
ATOM      5  C   UNL     1       5.371   1.744   1.152  1.00  0.00     0.043 C 
BRANCH   5   6
ATOM      6  C   UNL     1       6.233   0.653   0.663  1.00  0.00    -0.044 A 
ATOM      7  C   UNL     1       7.010  -0.115   1.539  1.00  0.00     0.008 A 
ATOM      8  C   UNL     1       6.282   0.373  -0.683  1.00  0.00     0.054 A 
ATOM      9  C   UNL     1       7.799  -1.126   1.023  1.00  0.00     0.051 A 
ATOM     10  C   UNL     1       7.082  -0.651  -1.199  1.00  0.00     0.166 A 
ATOM     11  C   UNL     1       7.847  -1.407  -0.339  1.00  0.00     0.165 A 
ATOM     12  O   UNL     1       7.301  -1.118  -2.478  1.00  0.00    -0.454 OA
ATOM     13  O   UNL     1       8.526  -2.333  -1.115  1.00  0.00    -0.454 OA
ATOM     14  C   UNL     1       8.140  -2.244  -2.466  1.00  0.00     0.468 C 
ENDBRANCH   5   6
ENDBRANCH   1   5
TORSDOF 3
ENDMDL
