@<TRIPOS>MOLECULE
/home/cewinharhar/GITHUB/reincatalyze/data/processed/docking_pred/2023-May-22-1902_sub9_nm5_bs15_s42_ex16_mel10_mts1000_k50_ec02_g099_lra9e-4_lrc1e-3/faf685cb0c2e1ff185f0c147bdf23d27aa2a460b_ligand_9.pdbqt
 14 15 0 0 0
SMALL
GASTEIGER

@<TRIPOS>ATOM
      1  C          5.6090    1.3010   -0.5270 C.3     1  UNL1        0.0800
      2  C          5.3390    2.2790    0.5640 C.2     1  UNL1        0.1300
      3  C          6.1280    3.5320    0.7020 C.3     1  UNL1        0.0870
      4  O          4.4560    2.0770    1.3820 O.2     1  UNL1       -0.3000
      5  C          7.0970    1.1190   -0.7470 C.3     1  UNL1        0.0430
      6  C          7.5310   -0.2560   -0.4410 C.2     1  UNL1       -0.0440
      7  C          7.6530   -0.7100    0.8770 C.2     1  UNL1        0.0080
      8  C          7.8220   -1.1240   -1.4680 C.2     1  UNL1        0.0540
      9  C          8.0640   -2.0110    1.1040 C.2     1  UNL1        0.0510
     10  C          8.2360   -2.4390   -1.2340 C.2     1  UNL1        0.1660
     11  C          8.3580   -2.8860    0.0630 C.2     1  UNL1        0.1650
     12  O          8.5800   -3.4790   -2.0710 O.2     1  UNL1       -0.4540
     13  O          8.7780   -4.2050   -0.0060 O.2     1  UNL1       -0.4540
     14  C          8.8430   -4.6490   -1.3400 C.3     1  UNL1        0.4680
@<TRIPOS>BOND
     1    12    14    1
     2    12    10    1
     3     8    10    1
     4     8     6    2
     5    14    13    1
     6    10    11    2
     7     5     1    1
     8     5     6    1
     9     1     2    1
    10     6     7    1
    11    13    11    1
    12    11     9    1
    13     2     3    1
    14     2     4    2
    15     7     9    2
