@<TRIPOS>MOLECULE
/home/cewinharhar/GITHUB/reincatalyze/data/processed/docking_pred/2023-May-22-1902_sub9_nm5_bs15_s42_ex16_mel10_mts1000_k50_ec02_g099_lra9e-4_lrc1e-3/faf685cb0c2e1ff185f0c147bdf23d27aa2a460b_ligand_9.pdbqt
 14 15 0 0 0
SMALL
GASTEIGER

@<TRIPOS>ATOM
      1  C          5.4000    1.1200    1.1660 C.3     1  UNL1        0.0800
      2  C          5.3760    2.5030    0.6150 C.2     1  UNL1        0.1300
      3  C          6.5640    3.3950    0.6880 C.3     1  UNL1        0.0870
      4  O          4.3710    2.9480    0.0830 O.2     1  UNL1       -0.3000
      5  C          6.8210    0.6470    1.4020 C.3     1  UNL1        0.0430
      6  C          7.2310   -0.3660    0.4140 C.2     1  UNL1       -0.0440
      7  C          7.1150   -0.1370   -0.9620 C.2     1  UNL1        0.0080
      8  C          7.7450   -1.5690    0.8430 C.2     1  UNL1        0.0540
      9  C          7.5170   -1.1250   -1.8430 C.2     1  UNL1        0.0510
     10  C          8.1500   -2.5640   -0.0520 C.2     1  UNL1        0.1660
     11  C          8.0350   -2.3400   -1.4060 C.2     1  UNL1        0.1650
     12  O          8.6830   -3.8240    0.1210 O.2     1  UNL1       -0.4540
     13  O          8.5050   -3.4780   -2.0420 O.2     1  UNL1       -0.4540
     14  C          9.0100   -4.4080   -1.1130 C.3     1  UNL1        0.4680
@<TRIPOS>BOND
     1    13    11    1
     2    13    14    1
     3     9    11    2
     4     9     7    1
     5    11    10    1
     6    14    12    1
     7     7     6    2
     8    10    12    1
     9    10     8    2
    10     4     2    2
    11     6     8    1
    12     6     5    1
    13     2     3    1
    14     2     1    1
    15     1     5    1
