@<TRIPOS>MOLECULE
/home/cewinharhar/GITHUB/reincatalyze/data/processed/docking_pred/2023-May-22-1902_sub9_nm5_bs15_s42_ex16_mel10_mts1000_k50_ec02_g099_lra9e-4_lrc1e-3/faf685cb0c2e1ff185f0c147bdf23d27aa2a460b_ligand_9.pdbqt
 14 15 0 0 0
SMALL
GASTEIGER

@<TRIPOS>ATOM
      1  C          6.3570    2.5240    1.4880 C.3     1  UNL1        0.0800
      2  C          6.5040    4.0050    1.5500 C.2     1  UNL1        0.1300
      3  C          7.1340    4.7750    0.4440 C.3     1  UNL1        0.0870
      4  O          6.1090    4.6340    2.5190 O.2     1  UNL1       -0.3000
      5  C          5.8830    2.0760    0.1200 C.3     1  UNL1        0.0430
      6  C          6.8690    1.2030   -0.5420 C.2     1  UNL1       -0.0440
      7  C          8.2380    1.4950   -0.5190 C.2     1  UNL1        0.0080
      8  C          6.4460    0.0700   -1.1980 C.2     1  UNL1        0.0540
      9  C          9.1180    0.6390   -1.1560 C.2     1  UNL1        0.0510
     10  C          7.3400   -0.7930   -1.8400 C.2     1  UNL1        0.1660
     11  C          8.6860   -0.5060   -1.8190 C.2     1  UNL1        0.1650
     12  O          7.1700   -1.9630   -2.5500 O.2     1  UNL1       -0.4540
     13  O          9.3230   -1.5160   -2.5230 O.2     1  UNL1       -0.4540
     14  C          8.4090   -2.5080   -2.9260 C.3     1  UNL1        0.4680
@<TRIPOS>BOND
     1    14    12    1
     2    14    13    1
     3    12    10    1
     4    13    11    1
     5    10    11    2
     6    10     8    1
     7    11     9    1
     8     8     6    2
     9     9     7    2
    10     6     7    1
    11     6     5    1
    12     5     1    1
    13     3     2    1
    14     1     2    1
    15     2     4    2
