@<TRIPOS>MOLECULE
/home/cewinharhar/GITHUB/reincatalyze/data/processed/docking_pred/2023-May-22-1902_sub9_nm5_bs15_s42_ex16_mel10_mts1000_k50_ec02_g099_lra9e-4_lrc1e-3/fbb46063794dc265e75c2cefc4e8ae8bb502d9b1_ligand_9.pdbqt
 14 15 0 0 0
SMALL
GASTEIGER

@<TRIPOS>ATOM
      1  C          6.1420    0.7600    1.0000 C.3     1  UNL1        0.0800
      2  C          5.0300    1.7470    0.9160 C.2     1  UNL1        0.1300
      3  C          4.9110    2.6940   -0.2250 C.3     1  UNL1        0.0870
      4  O          4.1790    1.8080    1.7890 O.2     1  UNL1       -0.3000
      5  C          7.1550    0.9770   -0.1060 C.3     1  UNL1        0.0430
      6  C          7.5270   -0.2890   -0.7620 C.2     1  UNL1       -0.0440
      7  C          7.5320   -0.4190   -2.1560 C.2     1  UNL1        0.0080
      8  C          7.8820   -1.3760    0.0040 C.2     1  UNL1        0.0540
      9  C          7.8910   -1.6310   -2.7160 C.2     1  UNL1        0.0510
     10  C          8.2450   -2.6000   -0.5670 C.2     1  UNL1        0.1660
     11  C          8.2490   -2.7280   -1.9380 C.2     1  UNL1        0.1650
     12  O          8.6310   -3.8100   -0.0300 O.2     1  UNL1       -0.4540
     13  O          8.6420   -4.0280   -2.2180 O.2     1  UNL1       -0.4540
     14  C          8.9820   -4.7200   -1.0400 C.3     1  UNL1        0.4680
@<TRIPOS>BOND
     1     9     7    1
     2     9    11    2
     3    13    11    1
     4    13    14    1
     5     7     6    2
     6    11    10    1
     7    14    12    1
     8     6     5    1
     9     6     8    1
    10    10    12    1
    11    10     8    2
    12     3     2    1
    13     5     1    1
    14     2     1    1
    15     2     4    2
