@<TRIPOS>MOLECULE
/home/cewinharhar/GITHUB/reincatalyze/data/processed/docking_pred/2023-May-22-1902_sub9_nm5_bs15_s42_ex16_mel10_mts1000_k50_ec02_g099_lra9e-4_lrc1e-3/ff0363d9ee1910d446632d9597fe578fef33cb13_ligand_9.pdbqt
 14 15 0 0 0
SMALL
GASTEIGER

@<TRIPOS>ATOM
      1  C          5.5000    2.9280    0.0560 C.3     1  UNL1        0.0800
      2  C          6.3270    3.8080    0.9270 C.2     1  UNL1        0.1300
      3  C          7.3040    4.7750    0.3580 C.3     1  UNL1        0.0870
      4  O          6.2270    3.7600    2.1420 O.2     1  UNL1       -0.3000
      5  C          4.7930    1.8590    0.8650 C.3     1  UNL1        0.0430
      6  C          5.6030    0.6320    0.9750 C.2     1  UNL1       -0.0440
      7  C          5.6920   -0.0820    2.1750 C.2     1  UNL1        0.0080
      8  C          6.2900    0.1680   -0.1240 C.2     1  UNL1        0.0540
      9  C          6.4670   -1.2270    2.2180 C.2     1  UNL1        0.0510
     10  C          7.0710   -0.9910   -0.0750 C.2     1  UNL1        0.1660
     11  C          7.1600   -1.6940    1.1060 C.2     1  UNL1        0.1650
     12  O          7.8380   -1.6470   -1.0140 O.2     1  UNL1       -0.4540
     13  O          7.9880   -2.7790    0.8650 O.2     1  UNL1       -0.4540
     14  C          8.3660   -2.8380   -0.4900 C.3     1  UNL1        0.4680
@<TRIPOS>BOND
     1    12    14    1
     2    12    10    1
     3    14    13    1
     4     8    10    1
     5     8     6    2
     6    10    11    2
     7     1     5    1
     8     1     2    1
     9     3     2    1
    10     5     6    1
    11    13    11    1
    12     2     4    2
    13     6     7    1
    14    11     9    1
    15     7     9    2
