@<TRIPOS>MOLECULE
/home/cewinharhar/GITHUB/reincatalyze/data/processed/docking_pred/2023-May-22-1902_sub9_nm5_bs15_s42_ex16_mel10_mts1000_k50_ec02_g099_lra9e-4_lrc1e-3/ff0363d9ee1910d446632d9597fe578fef33cb13_ligand_9.pdbqt
 14 15 0 0 0
SMALL
GASTEIGER

@<TRIPOS>ATOM
      1  C          5.7320    1.3150   -0.3210 C.3     1  UNL1        0.0800
      2  C          5.1580    1.2850    1.0530 C.2     1  UNL1        0.1300
      3  C          5.3460    0.1160    1.9530 C.3     1  UNL1        0.0870
      4  O          4.5110    2.2270    1.4830 O.2     1  UNL1       -0.3000
      5  C          7.2330    1.1030   -0.2950 C.3     1  UNL1        0.0430
      6  C          7.6130   -0.1900   -0.8910 C.2     1  UNL1       -0.0440
      7  C          7.7060   -0.3580   -2.2780 C.2     1  UNL1        0.0080
      8  C          7.8870   -1.2630   -0.0750 C.2     1  UNL1        0.0540
      9  C          8.0680   -1.5950   -2.7800 C.2     1  UNL1        0.0510
     10  C          8.2530   -2.5110   -0.5880 C.2     1  UNL1        0.1660
     11  C          8.3440   -2.6780   -1.9520 C.2     1  UNL1        0.1650
     12  O          8.5710   -3.7150    0.0050 O.2     1  UNL1       -0.4540
     13  O          8.7200   -3.9940   -2.1700 O.2     1  UNL1       -0.4540
     14  C          8.9630   -4.6620   -0.9550 C.3     1  UNL1        0.4680
@<TRIPOS>BOND
     1     9     7    1
     2     9    11    2
     3     7     6    2
     4    13    11    1
     5    13    14    1
     6    11    10    1
     7    14    12    1
     8     6     5    1
     9     6     8    1
    10    10     8    2
    11    10    12    1
    12     1     5    1
    13     1     2    1
    14     2     4    2
    15     2     3    1
