@<TRIPOS>MOLECULE
/home/cewinharhar/GITHUB/reincatalyze/data/processed/docking_pred/2023-May-05-1615_maxeplen10_maxtrainstep1000_seadep16_gamma099_lrac9e-4_lrcr1e-3/00fabcb6e86abbd64330e8a307762c5d347247e8_ligand_2.pdbqt
 12 12 0 0 0
SMALL
GASTEIGER

@<TRIPOS>ATOM
      1  C          8.4050   -0.6590   -2.0740 C.3     1  UNL1        0.1270
      2  C          8.3750   -1.9040   -2.8770 C.2     1  UNL1        0.3030
      3  O          7.2890   -2.4110   -3.2510 O.2     1  UNL1       -0.2520
      4  O          9.5490   -2.5450   -3.2370 O.3     1  UNL1       -0.4810
      5  H          9.5130   -3.3190   -3.9060 H       1  UNL1        0.2960
      6  C          7.0280   -0.0690   -2.0690 C.3     1  UNL1        0.0470
      7  C          6.4570    0.0990   -0.7340 C.2     1  UNL1       -0.0470
      8  C          5.8030    1.2590   -0.3890 C.2     1  UNL1        0.0040
      9  C          6.5780   -0.9220    0.1810 C.2     1  UNL1        0.0040
     10  C          5.2820    1.3490    0.9040 C.2     1  UNL1        0.0000
     11  C          6.0630   -0.8310    1.4580 C.2     1  UNL1        0.0000
     12  C          5.4070    0.3280    1.8120 C.2     1  UNL1        0.0000
@<TRIPOS>BOND
     1     5     4    1
     2     3     2    2
     3     4     2    1
     4     2     1    1
     5     1     6    1
     6     6     7    1
     7     7     8    2
     8     7     9    1
     9     8    10    1
    10     9    11    2
    11    10    12    2
    12    11    12    1
