MODEL 1
REMARK VINA RESULT:      -7.3      0.000      0.000
REMARK SMILES O=C(O)CCc1ccccc1
REMARK SMILES IDX 4 1 2 2 1 3 3 4 5 6 6 7 7 8 11 9 8 10 10 11 9 12
REMARK H PARENT 3 5
REMARK Flexibility Score: inf
ROOT
ATOM      1  C   UNL     1       8.403  -0.665  -2.065  1.00  0.00     0.127 C 
ENDROOT
BRANCH   1   2
ATOM      2  C   UNL     1       8.374  -1.906  -2.874  1.00  0.00     0.303 C 
ATOM      3  O   UNL     1       7.288  -2.413  -3.250  1.00  0.00    -0.252 OA
BRANCH   2   4
ATOM      4  O   UNL     1       9.548  -2.544  -3.238  1.00  0.00    -0.481 OA
ATOM      5  H   UNL     1      10.229  -2.793  -2.515  1.00  0.00     0.296 HD
ENDBRANCH   2   4
ENDBRANCH   1   2
BRANCH   1   6
ATOM      6  C   UNL     1       7.027  -0.072  -2.064  1.00  0.00     0.047 C 
BRANCH   6   7
ATOM      7  C   UNL     1       6.454   0.098  -0.730  1.00  0.00    -0.047 A 
ATOM      8  C   UNL     1       5.802   1.260  -0.387  1.00  0.00     0.004 A 
ATOM      9  C   UNL     1       6.571  -0.922   0.186  1.00  0.00     0.004 A 
ATOM     10  C   UNL     1       5.278   1.352   0.904  1.00  0.00     0.000 A 
ATOM     11  C   UNL     1       6.053  -0.829   1.462  1.00  0.00     0.000 A 
ATOM     12  C   UNL     1       5.399   0.332   1.814  1.00  0.00     0.000 A 
ENDBRANCH   6   7
ENDBRANCH   1   6
TORSDOF 4
ENDMDL
MODEL 2
REMARK VINA RESULT:      -7.0      1.032      1.951
REMARK SMILES O=C(O)CCc1ccccc1
REMARK SMILES IDX 4 1 2 2 1 3 3 4 5 6 6 7 7 8 11 9 8 10 10 11 9 12
REMARK H PARENT 3 5
REMARK Flexibility Score: inf
ROOT
ATOM      1  C   UNL     1       7.259  -1.274  -2.161  1.00  0.00     0.127 C 
ENDROOT
BRANCH   1   2
ATOM      2  C   UNL     1       8.698  -1.320  -2.510  1.00  0.00     0.303 C 
ATOM      3  O   UNL     1       9.501  -0.459  -2.074  1.00  0.00    -0.252 OA
BRANCH   2   4
ATOM      4  O   UNL     1       9.198  -2.319  -3.330  1.00  0.00    -0.481 OA
ATOM      5  H   UNL     1       9.632  -2.064  -4.222  1.00  0.00     0.296 HD
ENDBRANCH   2   4
ENDBRANCH   1   2
BRANCH   1   6
ATOM      6  C   UNL     1       7.133  -1.360  -0.671  1.00  0.00     0.047 C 
BRANCH   6   7
ATOM      7  C   UNL     1       6.374  -0.262  -0.074  1.00  0.00    -0.047 A 
ATOM      8  C   UNL     1       5.926  -0.341   1.224  1.00  0.00     0.004 A 
ATOM      9  C   UNL     1       6.112   0.860  -0.826  1.00  0.00     0.004 A 
ATOM     10  C   UNL     1       5.208   0.746   1.729  1.00  0.00     0.000 A 
ATOM     11  C   UNL     1       5.402   1.933  -0.326  1.00  0.00     0.000 A 
ATOM     12  C   UNL     1       4.949   1.862   0.974  1.00  0.00     0.000 A 
ENDBRANCH   6   7
ENDBRANCH   1   6
TORSDOF 4
ENDMDL
