@<TRIPOS>MOLECULE
/home/cewinharhar/GITHUB/reincatalyze/data/processed/docking_pred/2023-May-05-1615_maxeplen10_maxtrainstep1000_seadep16_gamma099_lrac9e-4_lrcr1e-3/01f25cbd7413d58f388abe94d9cfceb48e05f66f_ligand_2.pdbqt
 12 12 0 0 0
SMALL
GASTEIGER

@<TRIPOS>ATOM
      1  C          7.2590   -1.2740   -2.1610 C.3     1  UNL1        0.1270
      2  C          8.6980   -1.3200   -2.5100 C.2     1  UNL1        0.3030
      3  O          9.5010   -0.4590   -2.0740 O.2     1  UNL1       -0.2520
      4  O          9.1980   -2.3190   -3.3300 O.3     1  UNL1       -0.4810
      5  H          9.6320   -2.0640   -4.2220 H       1  UNL1        0.2960
      6  C          7.1330   -1.3600   -0.6710 C.3     1  UNL1        0.0470
      7  C          6.3740   -0.2620   -0.0740 C.2     1  UNL1       -0.0470
      8  C          5.9260   -0.3410    1.2240 C.2     1  UNL1        0.0040
      9  C          6.1120    0.8600   -0.8260 C.2     1  UNL1        0.0040
     10  C          5.2080    0.7460    1.7290 C.2     1  UNL1        0.0000
     11  C          5.4020    1.9330   -0.3260 C.2     1  UNL1        0.0000
     12  C          4.9490    1.8620    0.9740 C.2     1  UNL1        0.0000
@<TRIPOS>BOND
     1     5     4    1
     2     4     2    1
     3     2     1    1
     4     2     3    2
     5     1     6    1
     6     9    11    1
     7     9     7    2
     8     6     7    1
     9    11    12    2
    10     7     8    1
    11    12    10    1
    12     8    10    2
