@<TRIPOS>MOLECULE
/home/cewinharhar/GITHUB/reincatalyze/data/processed/docking_pred/2023-May-05-1615_maxeplen10_maxtrainstep1000_seadep16_gamma099_lrac9e-4_lrcr1e-3/0310d41f91ab2de901a6698b161cc991790b6b4b_ligand_2.pdbqt
 12 12 0 0 0
SMALL
GASTEIGER

@<TRIPOS>ATOM
      1  C          8.3220   -0.6040   -2.1180 C.3     1  UNL1        0.1270
      2  C          8.3310   -1.8620   -2.9020 C.2     1  UNL1        0.3030
      3  O          7.2610   -2.4010   -3.2790 O.2     1  UNL1       -0.2520
      4  O          9.5240   -2.4800   -3.2400 O.3     1  UNL1       -0.4810
      5  H          9.8820   -2.3880   -4.1950 H       1  UNL1        0.2960
      6  C          6.9690   -0.4460   -1.4960 C.3     1  UNL1        0.0470
      7  C          6.8090    0.7860   -0.7250 C.2     1  UNL1       -0.0470
      8  C          7.8870    1.3710   -0.1030 C.2     1  UNL1        0.0040
      9  C          5.5620    1.3590   -0.6270 C.2     1  UNL1        0.0040
     10  C          7.6610    2.5470    0.6160 C.2     1  UNL1        0.0000
     11  C          5.3410    2.5220    0.0850 C.2     1  UNL1        0.0000
     12  C          6.4160    3.1140    0.7110 C.2     1  UNL1        0.0000
@<TRIPOS>BOND
     1     5     4    1
     2     3     2    2
     3     4     2    1
     4     2     1    1
     5     1     6    1
     6     6     7    1
     7     7     9    2
     8     7     8    1
     9     9    11    1
    10     8    10    2
    11    11    12    2
    12    10    12    1
