MODEL 1
REMARK VINA RESULT:      -7.1      0.000      0.000
REMARK SMILES O=C(O)CCc1ccccc1
REMARK SMILES IDX 4 1 2 2 1 3 3 4 5 6 6 7 7 8 11 9 8 10 10 11 9 12
REMARK H PARENT 3 5
REMARK Flexibility Score: inf
ROOT
ATOM      1  C   UNL     1       8.459  -0.673  -2.061  1.00  0.00     0.127 C 
ENDROOT
BRANCH   1   2
ATOM      2  C   UNL     1       8.470  -1.914  -2.872  1.00  0.00     0.303 C 
ATOM      3  O   UNL     1       9.538  -2.536  -3.094  1.00  0.00    -0.252 OA
BRANCH   2   4
ATOM      4  O   UNL     1       7.298  -2.421  -3.409  1.00  0.00    -0.481 OA
ATOM      5  H   UNL     1       6.712  -3.037  -2.839  1.00  0.00     0.296 HD
ENDBRANCH   2   4
ENDBRANCH   1   2
BRANCH   1   6
ATOM      6  C   UNL     1       7.069  -0.115  -2.074  1.00  0.00     0.047 C 
BRANCH   6   7
ATOM      7  C   UNL     1       6.484   0.054  -0.745  1.00  0.00    -0.047 A 
ATOM      8  C   UNL     1       5.837   1.219  -0.404  1.00  0.00     0.004 A 
ATOM      9  C   UNL     1       6.584  -0.970   0.168  1.00  0.00     0.004 A 
ATOM     10  C   UNL     1       5.301   1.311   0.882  1.00  0.00     0.000 A 
ATOM     11  C   UNL     1       6.054  -0.878   1.440  1.00  0.00     0.000 A 
ATOM     12  C   UNL     1       5.405   0.286   1.789  1.00  0.00     0.000 A 
ENDBRANCH   6   7
ENDBRANCH   1   6
TORSDOF 4
ENDMDL
MODEL 2
REMARK VINA RESULT:      -6.7      1.403      2.216
REMARK SMILES O=C(O)CCc1ccccc1
REMARK SMILES IDX 4 1 2 2 1 3 3 4 5 6 6 7 7 8 11 9 8 10 10 11 9 12
REMARK H PARENT 3 5
REMARK Flexibility Score: inf
ROOT
ATOM      1  C   UNL     1       8.322  -0.604  -2.118  1.00  0.00     0.127 C 
ENDROOT
BRANCH   1   2
ATOM      2  C   UNL     1       8.331  -1.862  -2.902  1.00  0.00     0.303 C 
ATOM      3  O   UNL     1       7.261  -2.401  -3.279  1.00  0.00    -0.252 OA
BRANCH   2   4
ATOM      4  O   UNL     1       9.524  -2.480  -3.240  1.00  0.00    -0.481 OA
ATOM      5  H   UNL     1       9.882  -2.388  -4.195  1.00  0.00     0.296 HD
ENDBRANCH   2   4
ENDBRANCH   1   2
BRANCH   1   6
ATOM      6  C   UNL     1       6.969  -0.446  -1.496  1.00  0.00     0.047 C 
BRANCH   6   7
ATOM      7  C   UNL     1       6.809   0.786  -0.725  1.00  0.00    -0.047 A 
ATOM      8  C   UNL     1       7.887   1.371  -0.103  1.00  0.00     0.004 A 
ATOM      9  C   UNL     1       5.562   1.359  -0.627  1.00  0.00     0.004 A 
ATOM     10  C   UNL     1       7.661   2.547   0.616  1.00  0.00     0.000 A 
ATOM     11  C   UNL     1       5.341   2.522   0.085  1.00  0.00     0.000 A 
ATOM     12  C   UNL     1       6.416   3.114   0.711  1.00  0.00     0.000 A 
ENDBRANCH   6   7
ENDBRANCH   1   6
TORSDOF 4
ENDMDL
