@<TRIPOS>MOLECULE
/home/cewinharhar/GITHUB/reincatalyze/data/processed/docking_pred/2023-May-05-1615_maxeplen10_maxtrainstep1000_seadep16_gamma099_lrac9e-4_lrcr1e-3/0310d41f91ab2de901a6698b161cc991790b6b4b_ligand_2.pdbqt
 12 12 0 0 0
SMALL
GASTEIGER

@<TRIPOS>ATOM
      1  C          8.4590   -0.6730   -2.0610 C.3     1  UNL1        0.1270
      2  C          8.4700   -1.9140   -2.8720 C.2     1  UNL1        0.3030
      3  O          9.5380   -2.5360   -3.0940 O.2     1  UNL1       -0.2520
      4  O          7.2980   -2.4210   -3.4090 O.3     1  UNL1       -0.4810
      5  H          6.7120   -3.0370   -2.8390 H       1  UNL1        0.2960
      6  C          7.0690   -0.1150   -2.0740 C.3     1  UNL1        0.0470
      7  C          6.4840    0.0540   -0.7450 C.2     1  UNL1       -0.0470
      8  C          5.8370    1.2190   -0.4040 C.2     1  UNL1        0.0040
      9  C          6.5840   -0.9700    0.1680 C.2     1  UNL1        0.0040
     10  C          5.3010    1.3110    0.8820 C.2     1  UNL1        0.0000
     11  C          6.0540   -0.8780    1.4400 C.2     1  UNL1        0.0000
     12  C          5.4050    0.2860    1.7890 C.2     1  UNL1        0.0000
@<TRIPOS>BOND
     1     4     2    1
     2     4     5    1
     3     3     2    2
     4     2     1    1
     5     6     1    1
     6     6     7    1
     7     7     8    2
     8     7     9    1
     9     8    10    1
    10     9    11    2
    11    10    12    2
    12    11    12    1
