@<TRIPOS>MOLECULE
/home/cewinharhar/GITHUB/reincatalyze/data/processed/docking_pred/2023-May-05-1615_maxeplen10_maxtrainstep1000_seadep16_gamma099_lrac9e-4_lrcr1e-3/034cecc51265c6b10d0b2cc1c9f67b1ec6b5e3be_ligand_2.pdbqt
 12 12 0 0 0
SMALL
GASTEIGER

@<TRIPOS>ATOM
      1  C          7.9670   -1.4870    2.2370 C.3     1  UNL1        0.1270
      2  C          8.7250   -2.5580    1.5490 C.2     1  UNL1        0.3030
      3  O          9.9210   -2.8020    1.8440 O.2     1  UNL1       -0.2520
      4  O          8.1330   -3.3220    0.5560 O.3     1  UNL1       -0.4810
      5  H          8.5250   -3.3070   -0.3890 H       1  UNL1        0.2960
      6  C          6.5520   -1.5220    1.7460 C.3     1  UNL1        0.0470
      7  C          6.1540   -0.3330    0.9950 C.2     1  UNL1       -0.0470
      8  C          6.5410   -0.1650   -0.3140 C.2     1  UNL1        0.0040
      9  C          5.3810    0.6230    1.6120 C.2     1  UNL1        0.0040
     10  C          6.1240    0.9960   -0.9700 C.2     1  UNL1        0.0000
     11  C          4.9690    1.7700    0.9620 C.2     1  UNL1        0.0000
     12  C          5.3540    1.9460   -0.3490 C.2     1  UNL1        0.0000
@<TRIPOS>BOND
     1    10    12    2
     2    10     8    1
     3     5     4    1
     4    12    11    1
     5     8     7    2
     6     4     2    1
     7    11     9    2
     8     7     9    1
     9     7     6    1
    10     2     3    2
    11     2     1    1
    12     6     1    1
