@<TRIPOS>MOLECULE
/home/cewinharhar/GITHUB/reincatalyze/data/processed/docking_pred/2023-May-05-1615_maxeplen10_maxtrainstep1000_seadep16_gamma099_lrac9e-4_lrcr1e-3/034cecc51265c6b10d0b2cc1c9f67b1ec6b5e3be_ligand_2.pdbqt
 12 12 0 0 0
SMALL
GASTEIGER

@<TRIPOS>ATOM
      1  C          8.4020   -0.6510   -2.0820 C.3     1  UNL1        0.1270
      2  C          8.3720   -1.9010   -2.8770 C.2     1  UNL1        0.3030
      3  O          7.2860   -2.4090   -3.2510 O.2     1  UNL1       -0.2520
      4  O          9.5460   -2.5470   -3.2300 O.3     1  UNL1       -0.4810
      5  H         10.3700   -1.9900   -3.4730 H       1  UNL1        0.2960
      6  C          7.0230   -0.0660   -2.0730 C.3     1  UNL1        0.0470
      7  C          6.4570    0.1030   -0.7360 C.2     1  UNL1       -0.0470
      8  C          5.8030    1.2620   -0.3900 C.2     1  UNL1        0.0040
      9  C          6.5840   -0.9160    0.1800 C.2     1  UNL1        0.0040
     10  C          5.2860    1.3540    0.9040 C.2     1  UNL1        0.0000
     11  C          6.0730   -0.8230    1.4590 C.2     1  UNL1        0.0000
     12  C          5.4160    0.3350    1.8140 C.2     1  UNL1        0.0000
@<TRIPOS>BOND
     1     5     4    1
     2     3     2    2
     3     4     2    1
     4     2     1    1
     5     1     6    1
     6     6     7    1
     7     7     8    2
     8     7     9    1
     9     8    10    1
    10     9    11    2
    11    10    12    2
    12    11    12    1
