@<TRIPOS>MOLECULE
/home/cewinharhar/GITHUB/reincatalyze/data/processed/docking_pred/2023-May-05-1615_maxeplen10_maxtrainstep1000_seadep16_gamma099_lrac9e-4_lrcr1e-3/035d1107efb5fe3e99d2a33353f0da4e413613a6_ligand_2.pdbqt
 12 12 0 0 0
SMALL
GASTEIGER

@<TRIPOS>ATOM
      1  C          5.1030   -0.1300    2.0520 C.3     1  UNL1        0.1270
      2  C          4.4260    1.1870    1.9860 C.2     1  UNL1        0.3030
      3  O          4.9540    2.1600    1.3930 O.2     1  UNL1       -0.2520
      4  O          3.1880    1.3800    2.5780 O.3     1  UNL1       -0.4810
      5  H          2.4840    1.9440    2.0940 H       1  UNL1        0.2960
      6  C          6.5530    0.0690    1.7320 C.3     1  UNL1        0.0470
      7  C          7.0170   -0.6970    0.5760 C.2     1  UNL1       -0.0470
      8  C          6.6230   -0.3570   -0.6970 C.2     1  UNL1        0.0040
      9  C          7.8590   -1.7670    0.7740 C.2     1  UNL1        0.0040
     10  C          7.1060   -1.1320   -1.7540 C.2     1  UNL1        0.0000
     11  C          8.3350   -2.5320   -0.2720 C.2     1  UNL1        0.0000
     12  C          7.9440   -2.1990   -1.5510 C.2     1  UNL1        0.0000
@<TRIPOS>BOND
     1    10    12    2
     2    10     8    1
     3    12    11    1
     4     8     7    2
     5    11     9    2
     6     7     9    1
     7     7     6    1
     8     3     2    2
     9     6     1    1
    10     2     1    1
    11     2     4    1
    12     5     4    1
