@<TRIPOS>MOLECULE
/home/cewinharhar/GITHUB/reincatalyze/data/processed/docking_pred/2023-May-05-1615_maxeplen10_maxtrainstep1000_seadep16_gamma099_lrac9e-4_lrcr1e-3/035d1107efb5fe3e99d2a33353f0da4e413613a6_ligand_2.pdbqt
 12 12 0 0 0
SMALL
GASTEIGER

@<TRIPOS>ATOM
      1  C          5.9270   -0.8970    1.7640 C.3     1  UNL1        0.1270
      2  C          5.3730    0.4490    2.0440 C.2     1  UNL1        0.3030
      3  O          4.1980    0.5940    2.4650 O.2     1  UNL1       -0.2520
      4  O          6.1380    1.5870    1.8480 O.3     1  UNL1       -0.4810
      5  H          6.9760    1.7320    2.4180 H       1  UNL1        0.2960
      6  C          7.3900   -0.7520    1.4760 C.3     1  UNL1        0.0470
      7  C          7.7100   -0.6580    0.0520 C.2     1  UNL1       -0.0470
      8  C          8.8500   -0.0160   -0.3720 C.2     1  UNL1        0.0040
      9  C          6.8550   -1.2220   -0.8660 C.2     1  UNL1        0.0040
     10  C          9.0920    0.0350   -1.7460 C.2     1  UNL1        0.0000
     11  C          7.0960   -1.1710   -2.2250 C.2     1  UNL1        0.0000
     12  C          8.2360   -0.5290   -2.6580 C.2     1  UNL1        0.0000
@<TRIPOS>BOND
     1    12    11    2
     2    12    10    1
     3    11     9    1
     4    10     8    2
     5     9     7    2
     6     8     7    1
     7     7     6    1
     8     6     1    1
     9     1     2    1
    10     4     2    1
    11     4     5    1
    12     2     3    2
