MODEL 1
REMARK VINA RESULT:      -6.5      0.000      0.000
REMARK SMILES O=C(O)CCc1ccccc1
REMARK SMILES IDX 4 1 2 2 1 3 3 4 5 6 6 7 7 8 11 9 8 10 10 11 9 12
REMARK H PARENT 3 5
REMARK Flexibility Score: inf
ROOT
ATOM      1  C   UNL     1       8.321  -0.691  -2.162  1.00  0.00     0.127 C 
ENDROOT
BRANCH   1   2
ATOM      2  C   UNL     1       8.440  -1.952  -2.930  1.00  0.00     0.303 C 
ATOM      3  O   UNL     1       9.553  -2.507  -3.103  1.00  0.00    -0.252 OA
BRANCH   2   4
ATOM      4  O   UNL     1       7.321  -2.556  -3.481  1.00  0.00    -0.481 OA
ATOM      5  H   UNL     1       7.441  -3.348  -4.118  1.00  0.00     0.296 HD
ENDBRANCH   2   4
ENDBRANCH   1   2
BRANCH   1   6
ATOM      6  C   UNL     1       6.895  -0.533  -1.732  1.00  0.00     0.047 C 
BRANCH   6   7
ATOM      7  C   UNL     1       6.685  -0.696  -0.295  1.00  0.00    -0.047 A 
ATOM      8  C   UNL     1       7.285  -1.726   0.391  1.00  0.00     0.004 A 
ATOM      9  C   UNL     1       5.879   0.198   0.372  1.00  0.00     0.004 A 
ATOM     10  C   UNL     1       7.041  -1.820   1.763  1.00  0.00     0.000 A 
ATOM     11  C   UNL     1       5.639   0.104   1.728  1.00  0.00     0.000 A 
ATOM     12  C   UNL     1       6.236  -0.926   2.423  1.00  0.00     0.000 A 
ENDBRANCH   6   7
ENDBRANCH   1   6
TORSDOF 4
ENDMDL
MODEL 2
REMARK VINA RESULT:      -6.3      3.193      4.944
REMARK SMILES O=C(O)CCc1ccccc1
REMARK SMILES IDX 4 1 2 2 1 3 3 4 5 6 6 7 7 8 11 9 8 10 10 11 9 12
REMARK H PARENT 3 5
REMARK Flexibility Score: inf
ROOT
ATOM      1  C   UNL     1       5.927  -0.897   1.764  1.00  0.00     0.127 C 
ENDROOT
BRANCH   1   2
ATOM      2  C   UNL     1       5.373   0.449   2.044  1.00  0.00     0.303 C 
ATOM      3  O   UNL     1       4.198   0.594   2.465  1.00  0.00    -0.252 OA
BRANCH   2   4
ATOM      4  O   UNL     1       6.138   1.587   1.848  1.00  0.00    -0.481 OA
ATOM      5  H   UNL     1       6.976   1.732   2.418  1.00  0.00     0.296 HD
ENDBRANCH   2   4
ENDBRANCH   1   2
BRANCH   1   6
ATOM      6  C   UNL     1       7.390  -0.752   1.476  1.00  0.00     0.047 C 
BRANCH   6   7
ATOM      7  C   UNL     1       7.710  -0.658   0.052  1.00  0.00    -0.047 A 
ATOM      8  C   UNL     1       8.850  -0.016  -0.372  1.00  0.00     0.004 A 
ATOM      9  C   UNL     1       6.855  -1.222  -0.866  1.00  0.00     0.004 A 
ATOM     10  C   UNL     1       9.092   0.035  -1.746  1.00  0.00     0.000 A 
ATOM     11  C   UNL     1       7.096  -1.171  -2.225  1.00  0.00     0.000 A 
ATOM     12  C   UNL     1       8.236  -0.529  -2.658  1.00  0.00     0.000 A 
ENDBRANCH   6   7
ENDBRANCH   1   6
TORSDOF 4
ENDMDL
MODEL 3
REMARK VINA RESULT:      -6.1      3.455      5.109
REMARK SMILES O=C(O)CCc1ccccc1
REMARK SMILES IDX 4 1 2 2 1 3 3 4 5 6 6 7 7 8 11 9 8 10 10 11 9 12
REMARK H PARENT 3 5
REMARK Flexibility Score: inf
ROOT
ATOM      1  C   UNL     1       5.103  -0.130   2.052  1.00  0.00     0.127 C 
ENDROOT
BRANCH   1   2
ATOM      2  C   UNL     1       4.426   1.187   1.986  1.00  0.00     0.303 C 
ATOM      3  O   UNL     1       4.954   2.160   1.393  1.00  0.00    -0.252 OA
BRANCH   2   4
ATOM      4  O   UNL     1       3.188   1.380   2.578  1.00  0.00    -0.481 OA
ATOM      5  H   UNL     1       2.484   1.944   2.094  1.00  0.00     0.296 HD
ENDBRANCH   2   4
ENDBRANCH   1   2
BRANCH   1   6
ATOM      6  C   UNL     1       6.553   0.069   1.732  1.00  0.00     0.047 C 
BRANCH   6   7
ATOM      7  C   UNL     1       7.017  -0.697   0.576  1.00  0.00    -0.047 A 
ATOM      8  C   UNL     1       6.623  -0.357  -0.697  1.00  0.00     0.004 A 
ATOM      9  C   UNL     1       7.859  -1.767   0.774  1.00  0.00     0.004 A 
ATOM     10  C   UNL     1       7.106  -1.132  -1.754  1.00  0.00     0.000 A 
ATOM     11  C   UNL     1       8.335  -2.532  -0.272  1.00  0.00     0.000 A 
ATOM     12  C   UNL     1       7.944  -2.199  -1.551  1.00  0.00     0.000 A 
ENDBRANCH   6   7
ENDBRANCH   1   6
TORSDOF 4
ENDMDL
