@<TRIPOS>MOLECULE
/home/cewinharhar/GITHUB/reincatalyze/data/processed/docking_pred/2023-May-05-1615_maxeplen10_maxtrainstep1000_seadep16_gamma099_lrac9e-4_lrcr1e-3/035d1107efb5fe3e99d2a33353f0da4e413613a6_ligand_2.pdbqt
 12 12 0 0 0
SMALL
GASTEIGER

@<TRIPOS>ATOM
      1  C          8.3210   -0.6910   -2.1620 C.3     1  UNL1        0.1270
      2  C          8.4400   -1.9520   -2.9300 C.2     1  UNL1        0.3030
      3  O          9.5530   -2.5070   -3.1030 O.2     1  UNL1       -0.2520
      4  O          7.3210   -2.5560   -3.4810 O.3     1  UNL1       -0.4810
      5  H          7.4410   -3.3480   -4.1180 H       1  UNL1        0.2960
      6  C          6.8950   -0.5330   -1.7320 C.3     1  UNL1        0.0470
      7  C          6.6850   -0.6960   -0.2950 C.2     1  UNL1       -0.0470
      8  C          7.2850   -1.7260    0.3910 C.2     1  UNL1        0.0040
      9  C          5.8790    0.1980    0.3720 C.2     1  UNL1        0.0040
     10  C          7.0410   -1.8200    1.7630 C.2     1  UNL1        0.0000
     11  C          5.6390    0.1040    1.7280 C.2     1  UNL1        0.0000
     12  C          6.2360   -0.9260    2.4230 C.2     1  UNL1        0.0000
@<TRIPOS>BOND
     1     5     4    1
     2     4     2    1
     3     3     2    2
     4     2     1    1
     5     1     6    1
     6     6     7    1
     7     7     9    2
     8     7     8    1
     9     9    11    1
    10     8    10    2
    11    11    12    2
    12    10    12    1
