@<TRIPOS>MOLECULE
/home/cewinharhar/GITHUB/reincatalyze/data/processed/docking_pred/2023-May-05-1615_maxeplen10_maxtrainstep1000_seadep16_gamma099_lrac9e-4_lrcr1e-3/04093ca98f76925b46d8e425639cb467aa73d951_ligand_2.pdbqt
 12 12 0 0 0
SMALL
GASTEIGER

@<TRIPOS>ATOM
      1  C          6.0880    1.4280    1.2330 C.3     1  UNL1        0.1270
      2  C          5.2200    0.5210    2.0200 C.2     1  UNL1        0.3030
      3  O          5.6080   -0.6270    2.3500 O.2     1  UNL1       -0.2520
      4  O          3.9520    0.9160    2.4150 O.3     1  UNL1       -0.4810
      5  H          3.1350    0.5290    1.9350 H       1  UNL1        0.2960
      6  C          5.7970    1.2130   -0.2210 C.3     1  UNL1        0.0470
      7  C          6.8860    0.5750   -0.9580 C.2     1  UNL1       -0.0470
      8  C          8.1740    1.0490   -0.8590 C.2     1  UNL1        0.0040
      9  C          6.6120   -0.5110   -1.7560 C.2     1  UNL1        0.0040
     10  C          9.1650    0.3900   -1.5900 C.2     1  UNL1        0.0000
     11  C          7.5920   -1.1610   -2.4780 C.2     1  UNL1        0.0000
     12  C          8.8850   -0.6930   -2.3850 C.2     1  UNL1        0.0000
@<TRIPOS>BOND
     1    11    12    2
     2    11     9    1
     3    12    10    1
     4     9     7    2
     5    10     8    2
     6     7     8    1
     7     7     6    1
     8     6     1    1
     9     1     2    1
    10     5     4    1
    11     2     3    2
    12     2     4    1
