@<TRIPOS>MOLECULE
/home/cewinharhar/GITHUB/reincatalyze/data/processed/docking_pred/2023-May-05-1615_maxeplen10_maxtrainstep1000_seadep16_gamma099_lrac9e-4_lrcr1e-3/04093ca98f76925b46d8e425639cb467aa73d951_ligand_2.pdbqt
 12 12 0 0 0
SMALL
GASTEIGER

@<TRIPOS>ATOM
      1  C          5.9130   -0.7290    1.7330 C.3     1  UNL1        0.1270
      2  C          5.2430    0.5710    1.9770 C.2     1  UNL1        0.3030
      3  O          4.0870    0.6250    2.4650 O.2     1  UNL1       -0.2520
      4  O          5.8760    1.7640    1.6700 O.3     1  UNL1       -0.4810
      5  H          6.3530    2.2830    2.4130 H       1  UNL1        0.2960
      6  C          7.3490   -0.4620    1.3980 C.3     1  UNL1        0.0470
      7  C          7.6250   -0.4100   -0.0360 C.2     1  UNL1       -0.0470
      8  C          6.9460   -1.2220   -0.9140 C.2     1  UNL1        0.0040
      9  C          8.5760    0.4670   -0.5050 C.2     1  UNL1        0.0040
     10  C          7.2600   -1.1180   -2.2700 C.2     1  UNL1        0.0000
     11  C          8.8870    0.5680   -1.8470 C.2     1  UNL1        0.0000
     12  C          8.2110   -0.2430   -2.7320 C.2     1  UNL1        0.0000
@<TRIPOS>BOND
     1    12    10    2
     2    12    11    1
     3    10     8    1
     4    11     9    2
     5     8     7    2
     6     9     7    1
     7     7     6    1
     8     6     1    1
     9     4     2    1
    10     4     5    1
    11     1     2    1
    12     2     3    2
