@<TRIPOS>MOLECULE
/home/cewinharhar/GITHUB/reincatalyze/data/processed/docking_pred/2023-May-05-1615_maxeplen10_maxtrainstep1000_seadep16_gamma099_lrac9e-4_lrcr1e-3/051d9442833557c4466992e4bdada3c2de553c76_ligand_2.pdbqt
 12 12 0 0 0
SMALL
GASTEIGER

@<TRIPOS>ATOM
      1  C          8.4040   -0.6440   -2.0910 C.3     1  UNL1        0.1270
      2  C          8.3730   -1.8990   -2.8790 C.2     1  UNL1        0.3030
      3  O          7.2860   -2.4080   -3.2500 O.2     1  UNL1       -0.2520
      4  O          9.5460   -2.5470   -3.2280 O.3     1  UNL1       -0.4810
      5  H          9.8690   -3.3390   -2.6650 H       1  UNL1        0.2960
      6  C          7.0230   -0.0620   -2.0790 C.3     1  UNL1        0.0470
      7  C          6.4600    0.1040   -0.7400 C.2     1  UNL1       -0.0470
      8  C          5.8050    1.2620   -0.3920 C.2     1  UNL1        0.0040
      9  C          6.5900   -0.9150    0.1740 C.2     1  UNL1        0.0040
     10  C          5.2910    1.3520    0.9040 C.2     1  UNL1        0.0000
     11  C          6.0820   -0.8250    1.4550 C.2     1  UNL1        0.0000
     12  C          5.4250    0.3320    1.8120 C.2     1  UNL1        0.0000
@<TRIPOS>BOND
     1     3     2    2
     2     4     2    1
     3     4     5    1
     4     2     1    1
     5     1     6    1
     6     6     7    1
     7     7     8    2
     8     7     9    1
     9     8    10    1
    10     9    11    2
    11    10    12    2
    12    11    12    1
