MODEL 1
REMARK VINA RESULT:      -7.1      0.000      0.000
REMARK SMILES O=C(O)CCc1ccccc1
REMARK SMILES IDX 4 1 2 2 1 3 3 4 5 6 6 7 7 8 11 9 8 10 10 11 9 12
REMARK H PARENT 3 5
REMARK Flexibility Score: inf
ROOT
ATOM      1  C   UNL     1       8.451  -0.672  -2.059  1.00  0.00     0.127 C 
ENDROOT
BRANCH   1   2
ATOM      2  C   UNL     1       8.476  -1.915  -2.865  1.00  0.00     0.303 C 
ATOM      3  O   UNL     1       9.551  -2.527  -3.084  1.00  0.00    -0.252 OA
BRANCH   2   4
ATOM      4  O   UNL     1       7.310  -2.439  -3.400  1.00  0.00    -0.481 OA
ATOM      5  H   UNL     1       6.749  -3.087  -2.840  1.00  0.00     0.296 HD
ENDBRANCH   2   4
ENDBRANCH   1   2
BRANCH   1   6
ATOM      6  C   UNL     1       7.055  -0.128  -2.077  1.00  0.00     0.047 C 
BRANCH   6   7
ATOM      7  C   UNL     1       6.472   0.057  -0.749  1.00  0.00    -0.047 A 
ATOM      8  C   UNL     1       5.824   1.225  -0.422  1.00  0.00     0.004 A 
ATOM      9  C   UNL     1       6.575  -0.956   0.176  1.00  0.00     0.004 A 
ATOM     10  C   UNL     1       5.291   1.332   0.865  1.00  0.00     0.000 A 
ATOM     11  C   UNL     1       6.047  -0.848   1.448  1.00  0.00     0.000 A 
ATOM     12  C   UNL     1       5.397   0.319   1.784  1.00  0.00     0.000 A 
ENDBRANCH   6   7
ENDBRANCH   1   6
TORSDOF 4
ENDMDL
MODEL 2
REMARK VINA RESULT:      -6.6      1.406      2.216
REMARK SMILES O=C(O)CCc1ccccc1
REMARK SMILES IDX 4 1 2 2 1 3 3 4 5 6 6 7 7 8 11 9 8 10 10 11 9 12
REMARK H PARENT 3 5
REMARK Flexibility Score: inf
ROOT
ATOM      1  C   UNL     1       8.291  -0.552  -2.146  1.00  0.00     0.127 C 
ENDROOT
BRANCH   1   2
ATOM      2  C   UNL     1       8.314  -1.823  -2.907  1.00  0.00     0.303 C 
ATOM      3  O   UNL     1       7.250  -2.387  -3.265  1.00  0.00    -0.252 OA
BRANCH   2   4
ATOM      4  O   UNL     1       9.515  -2.426  -3.247  1.00  0.00    -0.481 OA
ATOM      5  H   UNL     1      10.298  -2.389  -2.588  1.00  0.00     0.296 HD
ENDBRANCH   2   4
ENDBRANCH   1   2
BRANCH   1   6
ATOM      6  C   UNL     1       6.954  -0.426  -1.482  1.00  0.00     0.047 C 
BRANCH   6   7
ATOM      7  C   UNL     1       6.786   0.806  -0.713  1.00  0.00    -0.047 A 
ATOM      8  C   UNL     1       7.854   1.381  -0.064  1.00  0.00     0.004 A 
ATOM      9  C   UNL     1       5.543   1.392  -0.646  1.00  0.00     0.004 A 
ATOM     10  C   UNL     1       7.621   2.558   0.651  1.00  0.00     0.000 A 
ATOM     11  C   UNL     1       5.314   2.555   0.062  1.00  0.00     0.000 A 
ATOM     12  C   UNL     1       6.378   3.137   0.716  1.00  0.00     0.000 A 
ENDBRANCH   6   7
ENDBRANCH   1   6
TORSDOF 4
ENDMDL
