@<TRIPOS>MOLECULE
/home/cewinharhar/GITHUB/reincatalyze/data/processed/docking_pred/2023-May-05-1615_maxeplen10_maxtrainstep1000_seadep16_gamma099_lrac9e-4_lrcr1e-3/05fc2472135fbee8f2c0d268145bdd055e68f396_ligand_2.pdbqt
 12 12 0 0 0
SMALL
GASTEIGER

@<TRIPOS>ATOM
      1  C          8.2910   -0.5520   -2.1460 C.3     1  UNL1        0.1270
      2  C          8.3140   -1.8230   -2.9070 C.2     1  UNL1        0.3030
      3  O          7.2500   -2.3870   -3.2650 O.2     1  UNL1       -0.2520
      4  O          9.5150   -2.4260   -3.2470 O.3     1  UNL1       -0.4810
      5  H         10.2980   -2.3890   -2.5880 H       1  UNL1        0.2960
      6  C          6.9540   -0.4260   -1.4820 C.3     1  UNL1        0.0470
      7  C          6.7860    0.8060   -0.7130 C.2     1  UNL1       -0.0470
      8  C          7.8540    1.3810   -0.0640 C.2     1  UNL1        0.0040
      9  C          5.5430    1.3920   -0.6460 C.2     1  UNL1        0.0040
     10  C          7.6210    2.5580    0.6510 C.2     1  UNL1        0.0000
     11  C          5.3140    2.5550    0.0620 C.2     1  UNL1        0.0000
     12  C          6.3780    3.1370    0.7160 C.2     1  UNL1        0.0000
@<TRIPOS>BOND
     1     3     2    2
     2     4     2    1
     3     4     5    1
     4     2     1    1
     5     1     6    1
     6     6     7    1
     7     7     9    2
     8     7     8    1
     9     9    11    1
    10     8    10    2
    11    11    12    2
    12    10    12    1
