@<TRIPOS>MOLECULE
/home/cewinharhar/GITHUB/reincatalyze/data/processed/docking_pred/2023-May-05-1615_maxeplen10_maxtrainstep1000_seadep16_gamma099_lrac9e-4_lrcr1e-3/05fc2472135fbee8f2c0d268145bdd055e68f396_ligand_2.pdbqt
 12 12 0 0 0
SMALL
GASTEIGER

@<TRIPOS>ATOM
      1  C          8.4510   -0.6720   -2.0590 C.3     1  UNL1        0.1270
      2  C          8.4760   -1.9150   -2.8650 C.2     1  UNL1        0.3030
      3  O          9.5510   -2.5270   -3.0840 O.2     1  UNL1       -0.2520
      4  O          7.3100   -2.4390   -3.4000 O.3     1  UNL1       -0.4810
      5  H          6.7490   -3.0870   -2.8400 H       1  UNL1        0.2960
      6  C          7.0550   -0.1280   -2.0770 C.3     1  UNL1        0.0470
      7  C          6.4720    0.0570   -0.7490 C.2     1  UNL1       -0.0470
      8  C          5.8240    1.2250   -0.4220 C.2     1  UNL1        0.0040
      9  C          6.5750   -0.9560    0.1760 C.2     1  UNL1        0.0040
     10  C          5.2910    1.3320    0.8650 C.2     1  UNL1        0.0000
     11  C          6.0470   -0.8480    1.4480 C.2     1  UNL1        0.0000
     12  C          5.3970    0.3190    1.7840 C.2     1  UNL1        0.0000
@<TRIPOS>BOND
     1     4     2    1
     2     4     5    1
     3     3     2    2
     4     2     1    1
     5     6     1    1
     6     6     7    1
     7     7     8    2
     8     7     9    1
     9     8    10    1
    10     9    11    2
    11    10    12    2
    12    11    12    1
