MODEL 1
REMARK VINA RESULT:      -7.1      0.000      0.000
REMARK SMILES O=C(O)CCc1ccccc1
REMARK SMILES IDX 4 1 2 2 1 3 3 4 5 6 6 7 7 8 11 9 8 10 10 11 9 12
REMARK H PARENT 3 5
REMARK Flexibility Score: inf
ROOT
ATOM      1  C   UNL     1       8.445  -0.680  -2.053  1.00  0.00     0.127 C 
ENDROOT
BRANCH   1   2
ATOM      2  C   UNL     1       8.473  -1.922  -2.861  1.00  0.00     0.303 C 
ATOM      3  O   UNL     1       9.549  -2.533  -3.077  1.00  0.00    -0.252 OA
BRANCH   2   4
ATOM      4  O   UNL     1       7.310  -2.443  -3.403  1.00  0.00    -0.481 OA
ATOM      5  H   UNL     1       6.499  -1.831  -3.533  1.00  0.00     0.296 HD
ENDBRANCH   2   4
ENDBRANCH   1   2
BRANCH   1   6
ATOM      6  C   UNL     1       7.048  -0.137  -2.073  1.00  0.00     0.047 C 
BRANCH   6   7
ATOM      7  C   UNL     1       6.466   0.055  -0.746  1.00  0.00    -0.047 A 
ATOM      8  C   UNL     1       5.818   1.225  -0.424  1.00  0.00     0.004 A 
ATOM      9  C   UNL     1       6.570  -0.953   0.185  1.00  0.00     0.004 A 
ATOM     10  C   UNL     1       5.285   1.339   0.862  1.00  0.00     0.000 A 
ATOM     11  C   UNL     1       6.043  -0.839   1.456  1.00  0.00     0.000 A 
ATOM     12  C   UNL     1       5.393   0.331   1.786  1.00  0.00     0.000 A 
ENDBRANCH   6   7
ENDBRANCH   1   6
TORSDOF 4
ENDMDL
MODEL 2
REMARK VINA RESULT:      -6.7      1.394      2.220
REMARK SMILES O=C(O)CCc1ccccc1
REMARK SMILES IDX 4 1 2 2 1 3 3 4 5 6 6 7 7 8 11 9 8 10 10 11 9 12
REMARK H PARENT 3 5
REMARK Flexibility Score: inf
ROOT
ATOM      1  C   UNL     1       8.251  -0.519  -2.230  1.00  0.00     0.127 C 
ENDROOT
BRANCH   1   2
ATOM      2  C   UNL     1       8.290  -1.818  -2.942  1.00  0.00     0.303 C 
ATOM      3  O   UNL     1       7.234  -2.391  -3.309  1.00  0.00    -0.252 OA
BRANCH   2   4
ATOM      4  O   UNL     1       9.497  -2.438  -3.222  1.00  0.00    -0.481 OA
ATOM      5  H   UNL     1      10.368  -2.006  -2.903  1.00  0.00     0.296 HD
ENDBRANCH   2   4
ENDBRANCH   1   2
BRANCH   1   6
ATOM      6  C   UNL     1       6.992  -0.464  -1.419  1.00  0.00     0.047 C 
BRANCH   6   7
ATOM      7  C   UNL     1       6.813   0.786  -0.683  1.00  0.00    -0.047 A 
ATOM      8  C   UNL     1       7.876   1.389  -0.050  1.00  0.00     0.004 A 
ATOM      9  C   UNL     1       5.564   1.361  -0.630  1.00  0.00     0.004 A 
ATOM     10  C   UNL     1       7.631   2.582   0.633  1.00  0.00     0.000 A 
ATOM     11  C   UNL     1       5.325   2.541   0.046  1.00  0.00     0.000 A 
ATOM     12  C   UNL     1       6.384   3.150   0.683  1.00  0.00     0.000 A 
ENDBRANCH   6   7
ENDBRANCH   1   6
TORSDOF 4
ENDMDL
