@<TRIPOS>MOLECULE
/home/cewinharhar/GITHUB/reincatalyze/data/processed/docking_pred/2023-May-05-1615_maxeplen10_maxtrainstep1000_seadep16_gamma099_lrac9e-4_lrcr1e-3/074f71e156faecc69724e62cc987f5104d3c940c_ligand_2.pdbqt
 12 12 0 0 0
SMALL
GASTEIGER

@<TRIPOS>ATOM
      1  C          8.4450   -0.6800   -2.0530 C.3     1  UNL1        0.1270
      2  C          8.4730   -1.9220   -2.8610 C.2     1  UNL1        0.3030
      3  O          9.5490   -2.5330   -3.0770 O.2     1  UNL1       -0.2520
      4  O          7.3100   -2.4430   -3.4030 O.3     1  UNL1       -0.4810
      5  H          6.4990   -1.8310   -3.5330 H       1  UNL1        0.2960
      6  C          7.0480   -0.1370   -2.0730 C.3     1  UNL1        0.0470
      7  C          6.4660    0.0550   -0.7460 C.2     1  UNL1       -0.0470
      8  C          5.8180    1.2250   -0.4240 C.2     1  UNL1        0.0040
      9  C          6.5700   -0.9530    0.1850 C.2     1  UNL1        0.0040
     10  C          5.2850    1.3390    0.8620 C.2     1  UNL1        0.0000
     11  C          6.0430   -0.8390    1.4560 C.2     1  UNL1        0.0000
     12  C          5.3930    0.3310    1.7860 C.2     1  UNL1        0.0000
@<TRIPOS>BOND
     1     5     4    1
     2     4     2    1
     3     3     2    2
     4     2     1    1
     5     6     1    1
     6     6     7    1
     7     7     8    2
     8     7     9    1
     9     8    10    1
    10     9    11    2
    11    10    12    2
    12    11    12    1
