@<TRIPOS>MOLECULE
/home/cewinharhar/GITHUB/reincatalyze/data/processed/docking_pred/2023-May-05-1615_maxeplen10_maxtrainstep1000_seadep16_gamma099_lrac9e-4_lrcr1e-3/074f71e156faecc69724e62cc987f5104d3c940c_ligand_2.pdbqt
 12 12 0 0 0
SMALL
GASTEIGER

@<TRIPOS>ATOM
      1  C          8.2510   -0.5190   -2.2300 C.3     1  UNL1        0.1270
      2  C          8.2900   -1.8180   -2.9420 C.2     1  UNL1        0.3030
      3  O          7.2340   -2.3910   -3.3090 O.2     1  UNL1       -0.2520
      4  O          9.4970   -2.4380   -3.2220 O.3     1  UNL1       -0.4810
      5  H         10.3680   -2.0060   -2.9030 H       1  UNL1        0.2960
      6  C          6.9920   -0.4640   -1.4190 C.3     1  UNL1        0.0470
      7  C          6.8130    0.7860   -0.6830 C.2     1  UNL1       -0.0470
      8  C          7.8760    1.3890   -0.0500 C.2     1  UNL1        0.0040
      9  C          5.5640    1.3610   -0.6300 C.2     1  UNL1        0.0040
     10  C          7.6310    2.5820    0.6330 C.2     1  UNL1        0.0000
     11  C          5.3250    2.5410    0.0460 C.2     1  UNL1        0.0000
     12  C          6.3840    3.1500    0.6830 C.2     1  UNL1        0.0000
@<TRIPOS>BOND
     1     3     2    2
     2     4     2    1
     3     4     5    1
     4     2     1    1
     5     1     6    1
     6     6     7    1
     7     7     9    2
     8     7     8    1
     9     9    11    1
    10     8    10    2
    11    11    12    2
    12    10    12    1
