@<TRIPOS>MOLECULE
/home/cewinharhar/GITHUB/reincatalyze/data/processed/docking_pred/2023-May-05-1615_maxeplen10_maxtrainstep1000_seadep16_gamma099_lrac9e-4_lrcr1e-3/088b63c47bd4d7a6949fea46fb2e227d24226938_ligand_2.pdbqt
 12 12 0 0 0
SMALL
GASTEIGER

@<TRIPOS>ATOM
      1  C          8.3200   -0.5950   -2.1330 C.3     1  UNL1        0.1270
      2  C          8.3320   -1.8590   -2.9060 C.2     1  UNL1        0.3030
      3  O          7.2630   -2.4040   -3.2790 O.2     1  UNL1       -0.2520
      4  O          9.5260   -2.4770   -3.2380 O.3     1  UNL1       -0.4810
      5  H         10.1250   -2.0580   -3.9560 H       1  UNL1        0.2960
      6  C          6.9580   -0.4230   -1.5320 C.3     1  UNL1        0.0470
      7  C          6.8070    0.7970   -0.7410 C.2     1  UNL1       -0.0470
      8  C          7.8910    1.3680   -0.1150 C.2     1  UNL1        0.0040
      9  C          5.5630    1.3740   -0.6270 C.2     1  UNL1        0.0040
     10  C          7.6730    2.5330    0.6230 C.2     1  UNL1        0.0000
     11  C          5.3500    2.5250    0.1040 C.2     1  UNL1        0.0000
     12  C          6.4300    3.1040    0.7340 C.2     1  UNL1        0.0000
@<TRIPOS>BOND
     1     5     4    1
     2     3     2    2
     3     4     2    1
     4     2     1    1
     5     1     6    1
     6     6     7    1
     7     7     9    2
     8     7     8    1
     9     9    11    1
    10     8    10    2
    11    11    12    2
    12    10    12    1
