@<TRIPOS>MOLECULE
/home/cewinharhar/GITHUB/reincatalyze/data/processed/docking_pred/2023-May-05-1615_maxeplen10_maxtrainstep1000_seadep16_gamma099_lrac9e-4_lrcr1e-3/088b63c47bd4d7a6949fea46fb2e227d24226938_ligand_2.pdbqt
 12 12 0 0 0
SMALL
GASTEIGER

@<TRIPOS>ATOM
      1  C          8.4460   -0.6660   -2.0670 C.3     1  UNL1        0.1270
      2  C          8.4770   -1.9130   -2.8680 C.2     1  UNL1        0.3030
      3  O          9.5540   -2.5240   -3.0780 O.2     1  UNL1       -0.2520
      4  O          7.3150   -2.4390   -3.4080 O.3     1  UNL1       -0.4810
      5  H          6.8940   -3.2680   -2.9800 H       1  UNL1        0.2960
      6  C          7.0450   -0.1350   -2.0790 C.3     1  UNL1        0.0470
      7  C          6.4670    0.0470   -0.7480 C.2     1  UNL1       -0.0470
      8  C          5.8210    1.2150   -0.4150 C.2     1  UNL1        0.0040
      9  C          6.5740   -0.9680    0.1740 C.2     1  UNL1        0.0040
     10  C          5.2930    1.3180    0.8740 C.2     1  UNL1        0.0000
     11  C          6.0520   -0.8640    1.4480 C.2     1  UNL1        0.0000
     12  C          5.4030    0.3030    1.7900 C.2     1  UNL1        0.0000
@<TRIPOS>BOND
     1     4     5    1
     2     4     2    1
     3     3     2    2
     4     2     1    1
     5     6     1    1
     6     6     7    1
     7     7     8    2
     8     7     9    1
     9     8    10    1
    10     9    11    2
    11    10    12    2
    12    11    12    1
