MODEL 1
REMARK VINA RESULT:      -7.1      0.000      0.000
REMARK SMILES O=C(O)CCc1ccccc1
REMARK SMILES IDX 4 1 2 2 1 3 3 4 5 6 6 7 7 8 11 9 8 10 10 11 9 12
REMARK H PARENT 3 5
REMARK Flexibility Score: inf
ROOT
ATOM      1  C   UNL     1       8.446  -0.666  -2.067  1.00  0.00     0.127 C 
ENDROOT
BRANCH   1   2
ATOM      2  C   UNL     1       8.477  -1.913  -2.868  1.00  0.00     0.303 C 
ATOM      3  O   UNL     1       9.554  -2.524  -3.078  1.00  0.00    -0.252 OA
BRANCH   2   4
ATOM      4  O   UNL     1       7.315  -2.439  -3.408  1.00  0.00    -0.481 OA
ATOM      5  H   UNL     1       6.894  -3.268  -2.980  1.00  0.00     0.296 HD
ENDBRANCH   2   4
ENDBRANCH   1   2
BRANCH   1   6
ATOM      6  C   UNL     1       7.045  -0.135  -2.079  1.00  0.00     0.047 C 
BRANCH   6   7
ATOM      7  C   UNL     1       6.467   0.047  -0.748  1.00  0.00    -0.047 A 
ATOM      8  C   UNL     1       5.821   1.215  -0.415  1.00  0.00     0.004 A 
ATOM      9  C   UNL     1       6.574  -0.968   0.174  1.00  0.00     0.004 A 
ATOM     10  C   UNL     1       5.293   1.318   0.874  1.00  0.00     0.000 A 
ATOM     11  C   UNL     1       6.052  -0.864   1.448  1.00  0.00     0.000 A 
ATOM     12  C   UNL     1       5.403   0.303   1.790  1.00  0.00     0.000 A 
ENDBRANCH   6   7
ENDBRANCH   1   6
TORSDOF 4
ENDMDL
MODEL 2
REMARK VINA RESULT:      -6.7      1.409      2.213
REMARK SMILES O=C(O)CCc1ccccc1
REMARK SMILES IDX 4 1 2 2 1 3 3 4 5 6 6 7 7 8 11 9 8 10 10 11 9 12
REMARK H PARENT 3 5
REMARK Flexibility Score: inf
ROOT
ATOM      1  C   UNL     1       8.320  -0.595  -2.133  1.00  0.00     0.127 C 
ENDROOT
BRANCH   1   2
ATOM      2  C   UNL     1       8.332  -1.859  -2.906  1.00  0.00     0.303 C 
ATOM      3  O   UNL     1       7.263  -2.404  -3.279  1.00  0.00    -0.252 OA
BRANCH   2   4
ATOM      4  O   UNL     1       9.526  -2.477  -3.238  1.00  0.00    -0.481 OA
ATOM      5  H   UNL     1      10.125  -2.058  -3.956  1.00  0.00     0.296 HD
ENDBRANCH   2   4
ENDBRANCH   1   2
BRANCH   1   6
ATOM      6  C   UNL     1       6.958  -0.423  -1.532  1.00  0.00     0.047 C 
BRANCH   6   7
ATOM      7  C   UNL     1       6.807   0.797  -0.741  1.00  0.00    -0.047 A 
ATOM      8  C   UNL     1       7.891   1.368  -0.115  1.00  0.00     0.004 A 
ATOM      9  C   UNL     1       5.563   1.374  -0.627  1.00  0.00     0.004 A 
ATOM     10  C   UNL     1       7.673   2.533   0.623  1.00  0.00     0.000 A 
ATOM     11  C   UNL     1       5.350   2.525   0.104  1.00  0.00     0.000 A 
ATOM     12  C   UNL     1       6.430   3.104   0.734  1.00  0.00     0.000 A 
ENDBRANCH   6   7
ENDBRANCH   1   6
TORSDOF 4
ENDMDL
