@<TRIPOS>MOLECULE
/home/cewinharhar/GITHUB/reincatalyze/data/processed/docking_pred/2023-May-05-1615_maxeplen10_maxtrainstep1000_seadep16_gamma099_lrac9e-4_lrcr1e-3/08a74a7e320cd1ecb560e86b752820c061dfae11_ligand_2.pdbqt
 12 12 0 0 0
SMALL
GASTEIGER

@<TRIPOS>ATOM
      1  C          7.2720   -1.2740   -2.1390 C.3     1  UNL1        0.1270
      2  C          8.7080   -1.3360   -2.4980 C.2     1  UNL1        0.3030
      3  O          9.5210   -0.4750   -2.0800 O.2     1  UNL1       -0.2520
      4  O          9.1950   -2.3490   -3.3080 O.3     1  UNL1       -0.4810
      5  H          9.4320   -3.2540   -2.8910 H       1  UNL1        0.2960
      6  C          7.1560   -1.3530   -0.6480 C.3     1  UNL1        0.0470
      7  C          6.3860   -0.2610   -0.0530 C.2     1  UNL1       -0.0470
      8  C          5.9170   -0.3530    1.2370 C.2     1  UNL1        0.0040
      9  C          6.1360    0.8670   -0.7980 C.2     1  UNL1        0.0040
     10  C          5.1910    0.7280    1.7410 C.2     1  UNL1        0.0000
     11  C          5.4170    1.9350   -0.2990 C.2     1  UNL1        0.0000
     12  C          4.9430    1.8510    0.9930 C.2     1  UNL1        0.0000
@<TRIPOS>BOND
     1     4     5    1
     2     4     2    1
     3     2     1    1
     4     2     3    2
     5     1     6    1
     6     9    11    1
     7     9     7    2
     8     6     7    1
     9    11    12    2
    10     7     8    1
    11    12    10    1
    12     8    10    2
