@<TRIPOS>MOLECULE
/home/cewinharhar/GITHUB/reincatalyze/data/processed/docking_pred/2023-May-05-1615_maxeplen10_maxtrainstep1000_seadep16_gamma099_lrac9e-4_lrcr1e-3/08d2e2d4a7c660d60546aaed77652d308bf13ce5_ligand_2.pdbqt
 12 12 0 0 0
SMALL
GASTEIGER

@<TRIPOS>ATOM
      1  C          5.0870   -0.1240    2.0370 C.3     1  UNL1        0.1270
      2  C          4.4090    1.1920    1.9740 C.2     1  UNL1        0.3030
      3  O          4.9260    2.1610    1.3650 O.2     1  UNL1       -0.2520
      4  O          3.1820    1.3890    2.5860 O.3     1  UNL1       -0.4810
      5  H          2.8160    2.3400    2.6800 H       1  UNL1        0.2960
      6  C          6.5370    0.0780    1.7210 C.3     1  UNL1        0.0470
      7  C          7.0100   -0.6980    0.5760 C.2     1  UNL1       -0.0470
      8  C          6.6290   -0.3660   -0.7040 C.2     1  UNL1        0.0040
      9  C          7.8460   -1.7700    0.7900 C.2     1  UNL1        0.0040
     10  C          7.1200   -1.1510   -1.7500 C.2     1  UNL1        0.0000
     11  C          8.3300   -2.5440   -0.2460 C.2     1  UNL1        0.0000
     12  C          7.9530   -2.2190   -1.5310 C.2     1  UNL1        0.0000
@<TRIPOS>BOND
     1    10    12    2
     2    10     8    1
     3    12    11    1
     4     8     7    2
     5    11     9    2
     6     7     9    1
     7     7     6    1
     8     3     2    2
     9     6     1    1
    10     2     1    1
    11     2     4    1
    12     4     5    1
