MODEL 1
REMARK VINA RESULT:      -6.5      0.000      0.000
REMARK SMILES O=C(O)CCc1ccccc1
REMARK SMILES IDX 4 1 2 2 1 3 3 4 5 6 6 7 7 8 11 9 8 10 10 11 9 12
REMARK H PARENT 3 5
REMARK Flexibility Score: inf
ROOT
ATOM      1  C   UNL     1       8.315  -0.689  -2.163  1.00  0.00     0.127 C 
ENDROOT
BRANCH   1   2
ATOM      2  C   UNL     1       8.436  -1.952  -2.929  1.00  0.00     0.303 C 
ATOM      3  O   UNL     1       9.551  -2.502  -3.104  1.00  0.00    -0.252 OA
BRANCH   2   4
ATOM      4  O   UNL     1       7.318  -2.560  -3.477  1.00  0.00    -0.481 OA
ATOM      5  H   UNL     1       7.209  -2.585  -4.494  1.00  0.00     0.296 HD
ENDBRANCH   2   4
ENDBRANCH   1   2
BRANCH   1   6
ATOM      6  C   UNL     1       6.888  -0.536  -1.730  1.00  0.00     0.047 C 
BRANCH   6   7
ATOM      7  C   UNL     1       6.682  -0.700  -0.292  1.00  0.00    -0.047 A 
ATOM      8  C   UNL     1       7.285  -1.730   0.392  1.00  0.00     0.004 A 
ATOM      9  C   UNL     1       5.876   0.193   0.376  1.00  0.00     0.004 A 
ATOM     10  C   UNL     1       7.044  -1.824   1.765  1.00  0.00     0.000 A 
ATOM     11  C   UNL     1       5.639   0.097   1.733  1.00  0.00     0.000 A 
ATOM     12  C   UNL     1       6.238  -0.932   2.426  1.00  0.00     0.000 A 
ENDBRANCH   6   7
ENDBRANCH   1   6
TORSDOF 4
ENDMDL
MODEL 2
REMARK VINA RESULT:      -6.3      3.192      4.943
REMARK SMILES O=C(O)CCc1ccccc1
REMARK SMILES IDX 4 1 2 2 1 3 3 4 5 6 6 7 7 8 11 9 8 10 10 11 9 12
REMARK H PARENT 3 5
REMARK Flexibility Score: inf
ROOT
ATOM      1  C   UNL     1       5.940  -0.896   1.763  1.00  0.00     0.127 C 
ENDROOT
BRANCH   1   2
ATOM      2  C   UNL     1       5.370   0.444   2.040  1.00  0.00     0.303 C 
ATOM      3  O   UNL     1       4.194   0.577   2.460  1.00  0.00    -0.252 OA
BRANCH   2   4
ATOM      4  O   UNL     1       6.123   1.590   1.842  1.00  0.00    -0.481 OA
ATOM      5  H   UNL     1       6.958   1.746   2.413  1.00  0.00     0.296 HD
ENDBRANCH   2   4
ENDBRANCH   1   2
BRANCH   1   6
ATOM      6  C   UNL     1       7.401  -0.735   1.473  1.00  0.00     0.047 C 
BRANCH   6   7
ATOM      7  C   UNL     1       7.717  -0.641   0.048  1.00  0.00    -0.047 A 
ATOM      8  C   UNL     1       8.859  -0.003  -0.378  1.00  0.00     0.004 A 
ATOM      9  C   UNL     1       6.859  -1.202  -0.868  1.00  0.00     0.004 A 
ATOM     10  C   UNL     1       9.099   0.048  -1.753  1.00  0.00     0.000 A 
ATOM     11  C   UNL     1       7.097  -1.150  -2.228  1.00  0.00     0.000 A 
ATOM     12  C   UNL     1       8.238  -0.513  -2.663  1.00  0.00     0.000 A 
ENDBRANCH   6   7
ENDBRANCH   1   6
TORSDOF 4
ENDMDL
MODEL 3
REMARK VINA RESULT:      -6.1      3.457      5.108
REMARK SMILES O=C(O)CCc1ccccc1
REMARK SMILES IDX 4 1 2 2 1 3 3 4 5 6 6 7 7 8 11 9 8 10 10 11 9 12
REMARK H PARENT 3 5
REMARK Flexibility Score: inf
ROOT
ATOM      1  C   UNL     1       5.087  -0.124   2.037  1.00  0.00     0.127 C 
ENDROOT
BRANCH   1   2
ATOM      2  C   UNL     1       4.409   1.192   1.974  1.00  0.00     0.303 C 
ATOM      3  O   UNL     1       4.926   2.161   1.365  1.00  0.00    -0.252 OA
BRANCH   2   4
ATOM      4  O   UNL     1       3.182   1.389   2.586  1.00  0.00    -0.481 OA
ATOM      5  H   UNL     1       2.816   2.340   2.680  1.00  0.00     0.296 HD
ENDBRANCH   2   4
ENDBRANCH   1   2
BRANCH   1   6
ATOM      6  C   UNL     1       6.537   0.078   1.721  1.00  0.00     0.047 C 
BRANCH   6   7
ATOM      7  C   UNL     1       7.010  -0.698   0.576  1.00  0.00    -0.047 A 
ATOM      8  C   UNL     1       6.629  -0.366  -0.704  1.00  0.00     0.004 A 
ATOM      9  C   UNL     1       7.846  -1.770   0.790  1.00  0.00     0.004 A 
ATOM     10  C   UNL     1       7.120  -1.151  -1.750  1.00  0.00     0.000 A 
ATOM     11  C   UNL     1       8.330  -2.544  -0.246  1.00  0.00     0.000 A 
ATOM     12  C   UNL     1       7.953  -2.219  -1.531  1.00  0.00     0.000 A 
ENDBRANCH   6   7
ENDBRANCH   1   6
TORSDOF 4
ENDMDL
