@<TRIPOS>MOLECULE
/home/cewinharhar/GITHUB/reincatalyze/data/processed/docking_pred/2023-May-05-1615_maxeplen10_maxtrainstep1000_seadep16_gamma099_lrac9e-4_lrcr1e-3/08d2e2d4a7c660d60546aaed77652d308bf13ce5_ligand_2.pdbqt
 12 12 0 0 0
SMALL
GASTEIGER

@<TRIPOS>ATOM
      1  C          5.9400   -0.8960    1.7630 C.3     1  UNL1        0.1270
      2  C          5.3700    0.4440    2.0400 C.2     1  UNL1        0.3030
      3  O          4.1940    0.5770    2.4600 O.2     1  UNL1       -0.2520
      4  O          6.1230    1.5900    1.8420 O.3     1  UNL1       -0.4810
      5  H          6.9580    1.7460    2.4130 H       1  UNL1        0.2960
      6  C          7.4010   -0.7350    1.4730 C.3     1  UNL1        0.0470
      7  C          7.7170   -0.6410    0.0480 C.2     1  UNL1       -0.0470
      8  C          8.8590   -0.0030   -0.3780 C.2     1  UNL1        0.0040
      9  C          6.8590   -1.2020   -0.8680 C.2     1  UNL1        0.0040
     10  C          9.0990    0.0480   -1.7530 C.2     1  UNL1        0.0000
     11  C          7.0970   -1.1500   -2.2280 C.2     1  UNL1        0.0000
     12  C          8.2380   -0.5130   -2.6630 C.2     1  UNL1        0.0000
@<TRIPOS>BOND
     1    12    11    2
     2    12    10    1
     3    11     9    1
     4    10     8    2
     5     9     7    2
     6     8     7    1
     7     7     6    1
     8     6     1    1
     9     1     2    1
    10     4     2    1
    11     4     5    1
    12     2     3    2
