@<TRIPOS>MOLECULE
/home/cewinharhar/GITHUB/reincatalyze/data/processed/docking_pred/2023-May-05-1615_maxeplen10_maxtrainstep1000_seadep16_gamma099_lrac9e-4_lrcr1e-3/08e84468c81f1cd513554bb3b422d21af10d92b8_ligand_2.pdbqt
 12 12 0 0 0
SMALL
GASTEIGER

@<TRIPOS>ATOM
      1  C          8.3260   -0.5380   -2.2790 C.3     1  UNL1        0.1270
      2  C          8.4040   -1.8600   -2.9430 C.2     1  UNL1        0.3030
      3  O          9.5000   -2.4620   -3.0680 O.2     1  UNL1       -0.2520
      4  O          7.2670   -2.4710   -3.4450 O.3     1  UNL1       -0.4810
      5  H          7.3640   -3.2320   -4.1220 H       1  UNL1        0.2960
      6  C          6.9860   -0.4200   -1.6190 C.3     1  UNL1        0.0470
      7  C          6.8360    0.7710   -0.7860 C.2     1  UNL1       -0.0470
      8  C          7.9260    1.3390   -0.1680 C.2     1  UNL1        0.0040
      9  C          5.5870    1.3250   -0.6240 C.2     1  UNL1        0.0040
     10  C          7.7090    2.4770    0.6120 C.2     1  UNL1        0.0000
     11  C          5.3740    2.4490    0.1480 C.2     1  UNL1        0.0000
     12  C          6.4610    3.0240    0.7700 C.2     1  UNL1        0.0000
@<TRIPOS>BOND
     1     5     4    1
     2     4     2    1
     3     3     2    2
     4     2     1    1
     5     1     6    1
     6     6     7    1
     7     7     9    2
     8     7     8    1
     9     9    11    1
    10     8    10    2
    11    11    12    2
    12    10    12    1
