@<TRIPOS>MOLECULE
/home/cewinharhar/GITHUB/reincatalyze/data/processed/docking_pred/2023-May-05-1615_maxeplen10_maxtrainstep1000_seadep16_gamma099_lrac9e-4_lrcr1e-3/090474ec6ad34f6c7e6271970b3dfdf762d08d64_ligand_2.pdbqt
 12 12 0 0 0
SMALL
GASTEIGER

@<TRIPOS>ATOM
      1  C          9.9510    1.7520    1.3200 C.3     1  UNL1        0.1270
      2  C         10.7800    0.6950    0.6930 C.2     1  UNL1        0.3030
      3  O         11.3420   -0.1880    1.3860 O.2     1  UNL1       -0.2520
      4  O         10.9580    0.6540   -0.6810 O.3     1  UNL1       -0.4810
      5  H         10.4170   -0.0150   -1.2360 H       1  UNL1        0.2960
      6  C          8.6750    1.1280    1.7970 C.3     1  UNL1        0.0470
      7  C          7.4840    1.5980    1.0910 C.2     1  UNL1       -0.0470
      8  C          6.6840    0.7180    0.4000 C.2     1  UNL1        0.0040
      9  C          7.1670    2.9360    1.1260 C.2     1  UNL1        0.0040
     10  C          5.5610    1.2360   -0.2500 C.2     1  UNL1        0.0000
     11  C          6.0570    3.4460    0.4830 C.2     1  UNL1        0.0000
     12  C          5.2500    2.5720   -0.2130 C.2     1  UNL1        0.0000
@<TRIPOS>BOND
     1     5     4    1
     2     4     2    1
     3    10    12    2
     4    10     8    1
     5    12    11    1
     6     8     7    2
     7    11     9    2
     8     2     1    1
     9     2     3    2
    10     7     9    1
    11     7     6    1
    12     1     6    1
