@<TRIPOS>MOLECULE
/home/cewinharhar/GITHUB/reincatalyze/data/processed/docking_pred/2023-May-05-1615_maxeplen10_maxtrainstep1000_seadep16_gamma099_lrac9e-4_lrcr1e-3/090474ec6ad34f6c7e6271970b3dfdf762d08d64_ligand_2.pdbqt
 12 12 0 0 0
SMALL
GASTEIGER

@<TRIPOS>ATOM
      1  C          6.3080    3.6940    0.1990 C.3     1  UNL1        0.1270
      2  C          6.6540    4.0110    1.6050 C.2     1  UNL1        0.3030
      3  O          5.9340    4.7740    2.2960 O.2     1  UNL1       -0.2520
      4  O          7.7860    3.4740    2.1960 O.3     1  UNL1       -0.4810
      5  H          8.5680    4.0900    2.4320 H       1  UNL1        0.2960
      6  C          5.1810    2.7060    0.2030 C.3     1  UNL1        0.0470
      7  C          5.6050    1.3220    0.4070 C.2     1  UNL1       -0.0470
      8  C          6.2930    0.6450   -0.5730 C.2     1  UNL1        0.0040
      9  C          5.3090    0.6980    1.5970 C.2     1  UNL1        0.0040
     10  C          6.6670   -0.6750   -0.3090 C.2     1  UNL1        0.0000
     11  C          5.6790   -0.6070    1.8570 C.2     1  UNL1        0.0000
     12  C          6.3680   -1.2920    0.8800 C.2     1  UNL1        0.0000
@<TRIPOS>BOND
     1     8    10    1
     2     8     7    2
     3    10    12    2
     4     1     6    1
     5     1     2    1
     6     6     7    1
     7     7     9    1
     8    12    11    1
     9     9    11    2
    10     2     4    1
    11     2     3    2
    12     4     5    1
