@<TRIPOS>MOLECULE
/home/cewinharhar/GITHUB/reincatalyze/data/processed/docking_pred/2023-May-05-1615_maxeplen10_maxtrainstep1000_seadep16_gamma099_lrac9e-4_lrcr1e-3/090474ec6ad34f6c7e6271970b3dfdf762d08d64_ligand_2.pdbqt
 12 12 0 0 0
SMALL
GASTEIGER

@<TRIPOS>ATOM
      1  C          8.4490   -0.6810   -2.0580 C.3     1  UNL1        0.1270
      2  C          8.4650   -1.9180   -2.8740 C.2     1  UNL1        0.3030
      3  O          9.5340   -2.5370   -3.0960 O.2     1  UNL1       -0.2520
      4  O          7.2950   -2.4260   -3.4160 O.3     1  UNL1       -0.4810
      5  H          7.3310   -3.2890   -3.9660 H       1  UNL1        0.2960
      6  C          7.0530   -0.1350   -2.0580 C.3     1  UNL1        0.0470
      7  C          6.4790    0.0290   -0.7240 C.2     1  UNL1       -0.0470
      8  C          5.8200    1.1870   -0.3790 C.2     1  UNL1        0.0040
      9  C          6.6020   -0.9910    0.1900 C.2     1  UNL1        0.0040
     10  C          5.2960    1.2740    0.9120 C.2     1  UNL1        0.0000
     11  C          6.0840   -0.9030    1.4670 C.2     1  UNL1        0.0000
     12  C          5.4230    0.2530    1.8200 C.2     1  UNL1        0.0000
@<TRIPOS>BOND
     1     5     4    1
     2     4     2    1
     3     3     2    2
     4     2     1    1
     5     1     6    1
     6     6     7    1
     7     7     8    2
     8     7     9    1
     9     8    10    1
    10     9    11    2
    11    10    12    2
    12    11    12    1
