@<TRIPOS>MOLECULE
/home/cewinharhar/GITHUB/reincatalyze/data/processed/docking_pred/2023-May-05-1615_maxeplen10_maxtrainstep1000_seadep16_gamma099_lrac9e-4_lrcr1e-3/090474ec6ad34f6c7e6271970b3dfdf762d08d64_ligand_2.pdbqt
 12 12 0 0 0
SMALL
GASTEIGER

@<TRIPOS>ATOM
      1  C          8.2040   -1.0240    0.1600 C.3     1  UNL1        0.1270
      2  C          7.9020   -2.3240    0.8050 C.2     1  UNL1        0.3030
      3  O          8.6960   -3.2930    0.7190 O.2     1  UNL1       -0.2520
      4  O          6.7310   -2.5050    1.5230 O.3     1  UNL1       -0.4810
      5  H          6.5300   -3.4220    1.9310 H       1  UNL1        0.2960
      6  C          6.9390   -0.4910   -0.4410 C.3     1  UNL1        0.0470
      7  C          6.6580    0.9010   -0.0960 C.2     1  UNL1       -0.0470
      8  C          5.4200    1.4500   -0.3380 C.2     1  UNL1        0.0040
      9  C          7.6480    1.6630    0.4800 C.2     1  UNL1        0.0040
     10  C          5.2220    2.7860    0.0180 C.2     1  UNL1        0.0000
     11  C          7.4500    2.9840    0.8310 C.2     1  UNL1        0.0000
     12  C          6.2130    3.5410    0.5910 C.2     1  UNL1        0.0000
@<TRIPOS>BOND
     1     6     7    1
     2     6     1    1
     3     8     7    2
     4     8    10    1
     5     7     9    1
     6    10    12    2
     7     1     2    1
     8     9    11    2
     9    12    11    1
    10     3     2    2
    11     2     4    1
    12     4     5    1
