MODEL 1
REMARK VINA RESULT:      -7.1      0.000      0.000
REMARK SMILES O=C(O)CCc1ccccc1
REMARK SMILES IDX 4 1 2 2 1 3 3 4 5 6 6 7 7 8 11 9 8 10 10 11 9 12
REMARK H PARENT 3 5
REMARK Flexibility Score: inf
ROOT
ATOM      1  C   UNL     1       8.449  -0.681  -2.058  1.00  0.00     0.127 C 
ENDROOT
BRANCH   1   2
ATOM      2  C   UNL     1       8.465  -1.918  -2.874  1.00  0.00     0.303 C 
ATOM      3  O   UNL     1       9.534  -2.537  -3.096  1.00  0.00    -0.252 OA
BRANCH   2   4
ATOM      4  O   UNL     1       7.295  -2.426  -3.416  1.00  0.00    -0.481 OA
ATOM      5  H   UNL     1       7.331  -3.289  -3.966  1.00  0.00     0.296 HD
ENDBRANCH   2   4
ENDBRANCH   1   2
BRANCH   1   6
ATOM      6  C   UNL     1       7.053  -0.135  -2.058  1.00  0.00     0.047 C 
BRANCH   6   7
ATOM      7  C   UNL     1       6.479   0.029  -0.724  1.00  0.00    -0.047 A 
ATOM      8  C   UNL     1       5.820   1.187  -0.379  1.00  0.00     0.004 A 
ATOM      9  C   UNL     1       6.602  -0.991   0.190  1.00  0.00     0.004 A 
ATOM     10  C   UNL     1       5.296   1.274   0.912  1.00  0.00     0.000 A 
ATOM     11  C   UNL     1       6.084  -0.903   1.467  1.00  0.00     0.000 A 
ATOM     12  C   UNL     1       5.423   0.253   1.820  1.00  0.00     0.000 A 
ENDBRANCH   6   7
ENDBRANCH   1   6
TORSDOF 4
ENDMDL
MODEL 2
REMARK VINA RESULT:      -6.6      1.424      2.237
REMARK SMILES O=C(O)CCc1ccccc1
REMARK SMILES IDX 4 1 2 2 1 3 3 4 5 6 6 7 7 8 11 9 8 10 10 11 9 12
REMARK H PARENT 3 5
REMARK Flexibility Score: inf
ROOT
ATOM      1  C   UNL     1       8.321  -0.598  -2.104  1.00  0.00     0.127 C 
ENDROOT
BRANCH   1   2
ATOM      2  C   UNL     1       8.330  -1.854  -2.890  1.00  0.00     0.303 C 
ATOM      3  O   UNL     1       7.260  -2.395  -3.265  1.00  0.00    -0.252 OA
BRANCH   2   4
ATOM      4  O   UNL     1       9.524  -2.469  -3.232  1.00  0.00    -0.481 OA
ATOM      5  H   UNL     1      10.404  -2.085  -2.879  1.00  0.00     0.296 HD
ENDBRANCH   2   4
ENDBRANCH   1   2
BRANCH   1   6
ATOM      6  C   UNL     1       6.965  -0.438  -1.486  1.00  0.00     0.047 C 
BRANCH   6   7
ATOM      7  C   UNL     1       6.804   0.793  -0.715  1.00  0.00    -0.047 A 
ATOM      8  C   UNL     1       7.880   1.373  -0.084  1.00  0.00     0.004 A 
ATOM      9  C   UNL     1       5.559   1.372  -0.627  1.00  0.00     0.004 A 
ATOM     10  C   UNL     1       7.653   2.549   0.634  1.00  0.00     0.000 A 
ATOM     11  C   UNL     1       5.337   2.534   0.084  1.00  0.00     0.000 A 
ATOM     12  C   UNL     1       6.409   3.122   0.720  1.00  0.00     0.000 A 
ENDBRANCH   6   7
ENDBRANCH   1   6
TORSDOF 4
ENDMDL
