@<TRIPOS>MOLECULE
/home/cewinharhar/GITHUB/reincatalyze/data/processed/docking_pred/2023-May-05-1615_maxeplen10_maxtrainstep1000_seadep16_gamma099_lrac9e-4_lrcr1e-3/090474ec6ad34f6c7e6271970b3dfdf762d08d64_ligand_2.pdbqt
 12 12 0 0 0
SMALL
GASTEIGER

@<TRIPOS>ATOM
      1  C          8.3210   -0.5980   -2.1040 C.3     1  UNL1        0.1270
      2  C          8.3300   -1.8540   -2.8900 C.2     1  UNL1        0.3030
      3  O          7.2600   -2.3950   -3.2650 O.2     1  UNL1       -0.2520
      4  O          9.5240   -2.4690   -3.2320 O.3     1  UNL1       -0.4810
      5  H         10.4040   -2.0850   -2.8790 H       1  UNL1        0.2960
      6  C          6.9650   -0.4380   -1.4860 C.3     1  UNL1        0.0470
      7  C          6.8040    0.7930   -0.7150 C.2     1  UNL1       -0.0470
      8  C          7.8800    1.3730   -0.0840 C.2     1  UNL1        0.0040
      9  C          5.5590    1.3720   -0.6270 C.2     1  UNL1        0.0040
     10  C          7.6530    2.5490    0.6340 C.2     1  UNL1        0.0000
     11  C          5.3370    2.5340    0.0840 C.2     1  UNL1        0.0000
     12  C          6.4090    3.1220    0.7200 C.2     1  UNL1        0.0000
@<TRIPOS>BOND
     1     3     2    2
     2     4     2    1
     3     4     5    1
     4     2     1    1
     5     1     6    1
     6     6     7    1
     7     7     9    2
     8     7     8    1
     9     9    11    1
    10     8    10    2
    11    11    12    2
    12    10    12    1
