@<TRIPOS>MOLECULE
/home/cewinharhar/GITHUB/reincatalyze/data/processed/docking_pred/2023-May-05-1615_maxeplen10_maxtrainstep1000_seadep16_gamma099_lrac9e-4_lrcr1e-3/09c0e00cbaa22f287e1ef7d21129eabb08ea3244_ligand_2.pdbqt
 12 12 0 0 0
SMALL
GASTEIGER

@<TRIPOS>ATOM
      1  C          8.2230    0.2110   -2.3230 C.3     1  UNL1        0.1270
      2  C          9.4770   -0.0860   -1.5920 C.2     1  UNL1        0.3030
      3  O          9.8030   -1.2660   -1.3120 O.2     1  UNL1       -0.2520
      4  O         10.3260    0.9340   -1.1950 O.3     1  UNL1       -0.4810
      5  H         11.1920    0.7020   -0.7020 H       1  UNL1        0.2960
      6  C          7.1480   -0.6950   -1.8030 C.3     1  UNL1        0.0470
      7  C          6.5020   -0.2110   -0.5840 C.2     1  UNL1       -0.0470
      8  C          6.4520   -0.9950    0.5450 C.2     1  UNL1        0.0040
      9  C          5.9420    1.0460   -0.5750 C.2     1  UNL1        0.0040
     10  C          5.8190   -0.4680    1.6730 C.2     1  UNL1        0.0000
     11  C          5.3170    1.5660    0.5410 C.2     1  UNL1        0.0000
     12  C          5.2620    0.7860    1.6760 C.2     1  UNL1        0.0000
@<TRIPOS>BOND
     1     1     6    1
     2     1     2    1
     3     6     7    1
     4     2     3    2
     5     2     4    1
     6     4     5    1
     7     7     9    2
     8     7     8    1
     9     9    11    1
    10    11    12    2
    11     8    10    2
    12    10    12    1
