MODEL 1
REMARK VINA RESULT:      -7.0      0.000      0.000
REMARK SMILES O=C(O)CCc1ccccc1
REMARK SMILES IDX 4 1 2 2 1 3 3 4 5 6 6 7 7 8 11 9 8 10 10 11 9 12
REMARK H PARENT 3 5
REMARK Flexibility Score: inf
ROOT
ATOM      1  C   UNL     1       8.605  -0.705  -2.020  1.00  0.00     0.127 C 
ENDROOT
BRANCH   1   2
ATOM      2  C   UNL     1       8.654  -1.920  -2.868  1.00  0.00     0.303 C 
ATOM      3  O   UNL     1       9.744  -2.485  -3.133  1.00  0.00    -0.252 OA
BRANCH   2   4
ATOM      4  O   UNL     1       7.494  -2.467  -3.393  1.00  0.00    -0.481 OA
ATOM      5  H   UNL     1       7.407  -2.579  -4.407  1.00  0.00     0.296 HD
ENDBRANCH   2   4
ENDBRANCH   1   2
BRANCH   1   6
ATOM      6  C   UNL     1       7.214  -0.150  -2.073  1.00  0.00     0.047 C 
BRANCH   6   7
ATOM      7  C   UNL     1       6.594   0.025  -0.761  1.00  0.00    -0.047 A 
ATOM      8  C   UNL     1       5.955   1.199  -0.436  1.00  0.00     0.004 A 
ATOM      9  C   UNL     1       6.652  -1.003   0.152  1.00  0.00     0.004 A 
ATOM     10  C   UNL     1       5.384   1.296   0.834  1.00  0.00     0.000 A 
ATOM     11  C   UNL     1       6.087  -0.905   1.408  1.00  0.00     0.000 A 
ATOM     12  C   UNL     1       5.446   0.269   1.741  1.00  0.00     0.000 A 
ENDBRANCH   6   7
ENDBRANCH   1   6
TORSDOF 4
ENDMDL
MODEL 2
REMARK VINA RESULT:      -6.6      1.493      2.325
REMARK SMILES O=C(O)CCc1ccccc1
REMARK SMILES IDX 4 1 2 2 1 3 3 4 5 6 6 7 7 8 11 9 8 10 10 11 9 12
REMARK H PARENT 3 5
REMARK Flexibility Score: inf
ROOT
ATOM      1  C   UNL     1       8.223   0.211  -2.323  1.00  0.00     0.127 C 
ENDROOT
BRANCH   1   2
ATOM      2  C   UNL     1       9.477  -0.086  -1.592  1.00  0.00     0.303 C 
ATOM      3  O   UNL     1       9.803  -1.266  -1.312  1.00  0.00    -0.252 OA
BRANCH   2   4
ATOM      4  O   UNL     1      10.326   0.934  -1.195  1.00  0.00    -0.481 OA
ATOM      5  H   UNL     1      11.192   0.702  -0.702  1.00  0.00     0.296 HD
ENDBRANCH   2   4
ENDBRANCH   1   2
BRANCH   1   6
ATOM      6  C   UNL     1       7.148  -0.695  -1.803  1.00  0.00     0.047 C 
BRANCH   6   7
ATOM      7  C   UNL     1       6.502  -0.211  -0.584  1.00  0.00    -0.047 A 
ATOM      8  C   UNL     1       6.452  -0.995   0.545  1.00  0.00     0.004 A 
ATOM      9  C   UNL     1       5.942   1.046  -0.575  1.00  0.00     0.004 A 
ATOM     10  C   UNL     1       5.819  -0.468   1.673  1.00  0.00     0.000 A 
ATOM     11  C   UNL     1       5.317   1.566   0.541  1.00  0.00     0.000 A 
ATOM     12  C   UNL     1       5.262   0.786   1.676  1.00  0.00     0.000 A 
ENDBRANCH   6   7
ENDBRANCH   1   6
TORSDOF 4
ENDMDL
