@<TRIPOS>MOLECULE
/home/cewinharhar/GITHUB/reincatalyze/data/processed/docking_pred/2023-May-05-1615_maxeplen10_maxtrainstep1000_seadep16_gamma099_lrac9e-4_lrcr1e-3/09c0e00cbaa22f287e1ef7d21129eabb08ea3244_ligand_2.pdbqt
 12 12 0 0 0
SMALL
GASTEIGER

@<TRIPOS>ATOM
      1  C          8.6050   -0.7050   -2.0200 C.3     1  UNL1        0.1270
      2  C          8.6540   -1.9200   -2.8680 C.2     1  UNL1        0.3030
      3  O          9.7440   -2.4850   -3.1330 O.2     1  UNL1       -0.2520
      4  O          7.4940   -2.4670   -3.3930 O.3     1  UNL1       -0.4810
      5  H          7.4070   -2.5790   -4.4070 H       1  UNL1        0.2960
      6  C          7.2140   -0.1500   -2.0730 C.3     1  UNL1        0.0470
      7  C          6.5940    0.0250   -0.7610 C.2     1  UNL1       -0.0470
      8  C          5.9550    1.1990   -0.4360 C.2     1  UNL1        0.0040
      9  C          6.6520   -1.0030    0.1520 C.2     1  UNL1        0.0040
     10  C          5.3840    1.2960    0.8340 C.2     1  UNL1        0.0000
     11  C          6.0870   -0.9050    1.4080 C.2     1  UNL1        0.0000
     12  C          5.4460    0.2690    1.7410 C.2     1  UNL1        0.0000
@<TRIPOS>BOND
     1     5     4    1
     2     4     2    1
     3     3     2    2
     4     2     1    1
     5     6     1    1
     6     6     7    1
     7     7     8    2
     8     7     9    1
     9     8    10    1
    10     9    11    2
    11    10    12    2
    12    11    12    1
