@<TRIPOS>MOLECULE
/home/cewinharhar/GITHUB/reincatalyze/data/processed/docking_pred/2023-May-05-1615_maxeplen10_maxtrainstep1000_seadep16_gamma099_lrac9e-4_lrcr1e-3/0c0669ff2f8dcec30d9aff9f411b757c1c1ac29f_ligand_2.pdbqt
 12 12 0 0 0
SMALL
GASTEIGER

@<TRIPOS>ATOM
      1  C          8.4350   -0.6390   -2.1250 C.3     1  UNL1        0.1270
      2  C          8.4730   -1.9030   -2.8980 C.2     1  UNL1        0.3030
      3  O          9.5510   -2.5170   -3.0890 O.2     1  UNL1       -0.2520
      4  O          7.3140   -2.4430   -3.4320 O.3     1  UNL1       -0.4810
      5  H          7.0520   -2.2140   -4.3950 H       1  UNL1        0.2960
      6  C          7.0250   -0.1340   -2.1170 C.3     1  UNL1        0.0470
      7  C          6.4700    0.0580   -0.7780 C.2     1  UNL1       -0.0470
      8  C          5.8340    1.2310   -0.4410 C.2     1  UNL1        0.0040
      9  C          6.5870   -0.9520    0.1490 C.2     1  UNL1        0.0040
     10  C          5.3270    1.3440    0.8550 C.2     1  UNL1        0.0000
     11  C          6.0860   -0.8380    1.4300 C.2     1  UNL1        0.0000
     12  C          5.4480    0.3330    1.7760 C.2     1  UNL1        0.0000
@<TRIPOS>BOND
     1     5     4    1
     2     4     2    1
     3     3     2    2
     4     2     1    1
     5     1     6    1
     6     6     7    1
     7     7     8    2
     8     7     9    1
     9     8    10    1
    10     9    11    2
    11    10    12    2
    12    11    12    1
