@<TRIPOS>MOLECULE
/home/cewinharhar/GITHUB/reincatalyze/data/processed/docking_pred/2023-May-05-1615_maxeplen10_maxtrainstep1000_seadep16_gamma099_lrac9e-4_lrcr1e-3/0c0669ff2f8dcec30d9aff9f411b757c1c1ac29f_ligand_2.pdbqt
 12 12 0 0 0
SMALL
GASTEIGER

@<TRIPOS>ATOM
      1  C          7.7170   -1.4540    0.6610 C.3     1  UNL1        0.1270
      2  C          8.3050   -2.7070    0.1330 C.2     1  UNL1        0.3030
      3  O          8.9230   -3.5030    0.8830 O.2     1  UNL1       -0.2520
      4  O          8.1890   -3.0360   -1.2080 O.3     1  UNL1       -0.4810
      5  H          7.8510   -3.9670   -1.4680 H       1  UNL1        0.2960
      6  C          7.5770   -0.4850   -0.4730 C.3     1  UNL1        0.0470
      7  C          6.8380    0.7290   -0.1300 C.2     1  UNL1       -0.0470
      8  C          7.1680    1.4610    0.9860 C.2     1  UNL1        0.0040
      9  C          5.8030    1.1360   -0.9400 C.2     1  UNL1        0.0040
     10  C          6.4200    2.6110    1.2520 C.2     1  UNL1        0.0000
     11  C          5.0640    2.2720   -0.6760 C.2     1  UNL1        0.0000
     12  C          5.3880    3.0120    0.4410 C.2     1  UNL1        0.0000
@<TRIPOS>BOND
     1     5     4    1
     2     4     2    1
     3     9    11    1
     4     9     7    2
     5    11    12    2
     6     6     7    1
     7     6     1    1
     8     7     8    1
     9     2     1    1
    10     2     3    2
    11    12    10    1
    12     8    10    2
