@<TRIPOS>MOLECULE
/home/cewinharhar/GITHUB/reincatalyze/data/processed/docking_pred/2023-May-05-1615_maxeplen10_maxtrainstep1000_seadep16_gamma099_lrac9e-4_lrcr1e-3/0df60b8790b800bbceb9ee276e91b409308b6f54_ligand_2.pdbqt
 12 12 0 0 0
SMALL
GASTEIGER

@<TRIPOS>ATOM
      1  C          6.8370   -0.5510   -2.6100 C.3     1  UNL1        0.1270
      2  C          8.1340   -1.1350   -3.0260 C.2     1  UNL1        0.3030
      3  O          9.0490   -1.3480   -2.1920 O.2     1  UNL1       -0.2520
      4  O          8.3730   -1.4630   -4.3500 O.3     1  UNL1       -0.4810
      5  H          8.0300   -0.8440   -5.0900 H       1  UNL1        0.2960
      6  C          7.1050    0.5150   -1.5910 C.3     1  UNL1        0.0470
      7  C          6.6390    0.1830   -0.2460 C.2     1  UNL1       -0.0470
      8  C          5.9280    1.0960    0.4970 C.2     1  UNL1        0.0040
      9  C          6.9160   -1.0610    0.2730 C.2     1  UNL1        0.0040
     10  C          5.5130    0.7100    1.7740 C.2     1  UNL1        0.0000
     11  C          6.5060   -1.4400    1.5350 C.2     1  UNL1        0.0000
     12  C          5.7940   -0.5310    2.2870 C.2     1  UNL1        0.0000
@<TRIPOS>BOND
     1     5     4    1
     2     4     2    1
     3     2     1    1
     4     2     3    2
     5     1     6    1
     6     6     7    1
     7     7     9    2
     8     7     8    1
     9     9    11    1
    10     8    10    2
    11    11    12    2
    12    10    12    1
