@<TRIPOS>MOLECULE
/home/cewinharhar/GITHUB/reincatalyze/data/processed/docking_pred/2023-May-05-1615_maxeplen10_maxtrainstep1000_seadep16_gamma099_lrac9e-4_lrcr1e-3/0df60b8790b800bbceb9ee276e91b409308b6f54_ligand_2.pdbqt
 12 12 0 0 0
SMALL
GASTEIGER

@<TRIPOS>ATOM
      1  C          8.4010   -0.6490   -2.0860 C.3     1  UNL1        0.1270
      2  C          8.3720   -1.9000   -2.8790 C.2     1  UNL1        0.3030
      3  O          7.2850   -2.4090   -3.2520 O.2     1  UNL1       -0.2520
      4  O          9.5460   -2.5460   -3.2310 O.3     1  UNL1       -0.4810
      5  H         10.2290   -2.0590   -3.8180 H       1  UNL1        0.2960
      6  C          7.0210   -0.0650   -2.0760 C.3     1  UNL1        0.0470
      7  C          6.4560    0.1010   -0.7380 C.2     1  UNL1       -0.0470
      8  C          5.8000    1.2600   -0.3910 C.2     1  UNL1        0.0040
      9  C          6.5840   -0.9180    0.1770 C.2     1  UNL1        0.0040
     10  C          5.2840    1.3490    0.9040 C.2     1  UNL1        0.0000
     11  C          6.0740   -0.8280    1.4560 C.2     1  UNL1        0.0000
     12  C          5.4160    0.3290    1.8130 C.2     1  UNL1        0.0000
@<TRIPOS>BOND
     1     5     4    1
     2     3     2    2
     3     4     2    1
     4     2     1    1
     5     1     6    1
     6     6     7    1
     7     7     8    2
     8     7     9    1
     9     8    10    1
    10     9    11    2
    11    10    12    2
    12    11    12    1
