@<TRIPOS>MOLECULE
/home/cewinharhar/GITHUB/reincatalyze/data/processed/docking_pred/2023-May-05-1615_maxeplen10_maxtrainstep1000_seadep16_gamma099_lrac9e-4_lrcr1e-3/104e94148118840ff9051874ebdd157f969f5898_ligand_2.pdbqt
 12 12 0 0 0
SMALL
GASTEIGER

@<TRIPOS>ATOM
      1  C          7.8880   -1.5070    2.3480 C.3     1  UNL1        0.1270
      2  C          8.8110   -2.4280    1.6440 C.2     1  UNL1        0.3030
      3  O         10.0250   -2.4970    1.9560 O.2     1  UNL1       -0.2520
      4  O          8.3570   -3.2410    0.6180 O.3     1  UNL1       -0.4810
      5  H          8.8330   -3.2170   -0.2880 H       1  UNL1        0.2960
      6  C          6.5440   -1.5940    1.6910 C.3     1  UNL1        0.0470
      7  C          6.1600   -0.3890    0.9590 C.2     1  UNL1       -0.0470
      8  C          6.5400   -0.2110   -0.3510 C.2     1  UNL1        0.0040
      9  C          5.4080    0.5720    1.5950 C.2     1  UNL1        0.0040
     10  C          6.1370    0.9650   -0.9890 C.2     1  UNL1        0.0000
     11  C          5.0110    1.7340    0.9630 C.2     1  UNL1        0.0000
     12  C          5.3880    1.9200   -0.3500 C.2     1  UNL1        0.0000
@<TRIPOS>BOND
     1    10     8    1
     2    10    12    2
     3     8     7    2
     4    12    11    1
     5     5     4    1
     6     4     2    1
     7     7     9    1
     8     7     6    1
     9    11     9    2
    10     2     3    2
    11     2     1    1
    12     6     1    1
