MODEL 1
REMARK VINA RESULT:      -7.1      0.000      0.000
REMARK SMILES O=C(O)CCc1ccccc1
REMARK SMILES IDX 4 1 2 2 1 3 3 4 5 6 6 7 7 8 11 9 8 10 10 11 9 12
REMARK H PARENT 3 5
REMARK Flexibility Score: inf
ROOT
ATOM      1  C   UNL     1       8.480  -0.662  -2.097  1.00  0.00     0.127 C 
ENDROOT
BRANCH   1   2
ATOM      2  C   UNL     1       8.491  -1.913  -2.891  1.00  0.00     0.303 C 
ATOM      3  O   UNL     1       9.558  -2.544  -3.096  1.00  0.00    -0.252 OA
BRANCH   2   4
ATOM      4  O   UNL     1       7.321  -2.422  -3.431  1.00  0.00    -0.481 OA
ATOM      5  H   UNL     1       7.108  -2.250  -4.417  1.00  0.00     0.296 HD
ENDBRANCH   2   4
ENDBRANCH   1   2
BRANCH   1   6
ATOM      6  C   UNL     1       7.083  -0.118  -2.095  1.00  0.00     0.047 C 
BRANCH   6   7
ATOM      7  C   UNL     1       6.504   0.027  -0.761  1.00  0.00    -0.047 A 
ATOM      8  C   UNL     1       6.615  -0.981   0.168  1.00  0.00     0.004 A 
ATOM      9  C   UNL     1       5.844   1.191  -0.439  1.00  0.00     0.004 A 
ATOM     10  C   UNL     1       6.038  -0.773   1.423  1.00  0.00     0.000 A 
ATOM     11  C   UNL     1       5.274   1.395   0.802  1.00  0.00     0.000 A 
ATOM     12  C   UNL     1       5.380   0.389   1.738  1.00  0.00     0.000 A 
ENDBRANCH   6   7
ENDBRANCH   1   6
TORSDOF 4
ENDMDL
MODEL 2
REMARK VINA RESULT:      -6.5      2.325      3.398
REMARK SMILES O=C(O)CCc1ccccc1
REMARK SMILES IDX 4 1 2 2 1 3 3 4 5 6 6 7 7 8 11 9 8 10 10 11 9 12
REMARK H PARENT 3 5
REMARK Flexibility Score: inf
ROOT
ATOM      1  C   UNL     1       7.888  -1.507   2.348  1.00  0.00     0.127 C 
ENDROOT
BRANCH   1   2
ATOM      2  C   UNL     1       8.811  -2.428   1.644  1.00  0.00     0.303 C 
ATOM      3  O   UNL     1      10.025  -2.497   1.956  1.00  0.00    -0.252 OA
BRANCH   2   4
ATOM      4  O   UNL     1       8.357  -3.241   0.618  1.00  0.00    -0.481 OA
ATOM      5  H   UNL     1       8.833  -3.217  -0.288  1.00  0.00     0.296 HD
ENDBRANCH   2   4
ENDBRANCH   1   2
BRANCH   1   6
ATOM      6  C   UNL     1       6.544  -1.594   1.691  1.00  0.00     0.047 C 
BRANCH   6   7
ATOM      7  C   UNL     1       6.160  -0.389   0.959  1.00  0.00    -0.047 A 
ATOM      8  C   UNL     1       6.540  -0.211  -0.351  1.00  0.00     0.004 A 
ATOM      9  C   UNL     1       5.408   0.572   1.595  1.00  0.00     0.004 A 
ATOM     10  C   UNL     1       6.137   0.965  -0.989  1.00  0.00     0.000 A 
ATOM     11  C   UNL     1       5.011   1.734   0.963  1.00  0.00     0.000 A 
ATOM     12  C   UNL     1       5.388   1.920  -0.350  1.00  0.00     0.000 A 
ENDBRANCH   6   7
ENDBRANCH   1   6
TORSDOF 4
ENDMDL
