@<TRIPOS>MOLECULE
/home/cewinharhar/GITHUB/reincatalyze/data/processed/docking_pred/2023-May-05-1615_maxeplen10_maxtrainstep1000_seadep16_gamma099_lrac9e-4_lrcr1e-3/104e94148118840ff9051874ebdd157f969f5898_ligand_2.pdbqt
 12 12 0 0 0
SMALL
GASTEIGER

@<TRIPOS>ATOM
      1  C          8.4800   -0.6620   -2.0970 C.3     1  UNL1        0.1270
      2  C          8.4910   -1.9130   -2.8910 C.2     1  UNL1        0.3030
      3  O          9.5580   -2.5440   -3.0960 O.2     1  UNL1       -0.2520
      4  O          7.3210   -2.4220   -3.4310 O.3     1  UNL1       -0.4810
      5  H          7.1080   -2.2500   -4.4170 H       1  UNL1        0.2960
      6  C          7.0830   -0.1180   -2.0950 C.3     1  UNL1        0.0470
      7  C          6.5040    0.0270   -0.7610 C.2     1  UNL1       -0.0470
      8  C          6.6150   -0.9810    0.1680 C.2     1  UNL1        0.0040
      9  C          5.8440    1.1910   -0.4390 C.2     1  UNL1        0.0040
     10  C          6.0380   -0.7730    1.4230 C.2     1  UNL1        0.0000
     11  C          5.2740    1.3950    0.8020 C.2     1  UNL1        0.0000
     12  C          5.3800    0.3890    1.7380 C.2     1  UNL1        0.0000
@<TRIPOS>BOND
     1     5     4    1
     2     4     2    1
     3     3     2    2
     4     2     1    1
     5     1     6    1
     6     6     7    1
     7     7     9    2
     8     7     8    1
     9     9    11    1
    10     8    10    2
    11    11    12    2
    12    10    12    1
