@<TRIPOS>MOLECULE
/home/cewinharhar/GITHUB/reincatalyze/data/processed/docking_pred/2023-May-05-1615_maxeplen10_maxtrainstep1000_seadep16_gamma099_lrac9e-4_lrcr1e-3/10ef791c1764d6d7d99274693c0e95c254b80295_ligand_2.pdbqt
 12 12 0 0 0
SMALL
GASTEIGER

@<TRIPOS>ATOM
      1  C          8.2920   -0.5030   -2.3310 C.3     1  UNL1        0.1270
      2  C          8.3970   -1.8400   -2.9610 C.2     1  UNL1        0.3030
      3  O          9.5050   -2.4210   -3.0740 O.2     1  UNL1       -0.2520
      4  O          7.2720   -2.4890   -3.4440 O.3     1  UNL1       -0.4810
      5  H          6.8300   -3.2170   -2.8750 H       1  UNL1        0.2960
      6  C          6.9840   -0.4270   -1.6050 C.3     1  UNL1        0.0470
      7  C          6.8280    0.7740   -0.7850 C.2     1  UNL1       -0.0470
      8  C          7.9120    1.3400   -0.1550 C.2     1  UNL1        0.0040
      9  C          5.5800    1.3370   -0.6490 C.2     1  UNL1        0.0040
     10  C          7.6900    2.4870    0.6110 C.2     1  UNL1        0.0000
     11  C          5.3630    2.4700    0.1090 C.2     1  UNL1        0.0000
     12  C          6.4430    3.0440    0.7440 C.2     1  UNL1        0.0000
@<TRIPOS>BOND
     1     4     2    1
     2     4     5    1
     3     3     2    2
     4     2     1    1
     5     1     6    1
     6     6     7    1
     7     7     9    2
     8     7     8    1
     9     9    11    1
    10     8    10    2
    11    11    12    2
    12    10    12    1
