MODEL 1
REMARK VINA RESULT:      -7.0      0.000      0.000
REMARK SMILES O=C(O)CCc1ccccc1
REMARK SMILES IDX 4 1 2 2 1 3 3 4 5 6 6 7 7 8 11 9 8 10 10 11 9 12
REMARK H PARENT 3 5
REMARK Flexibility Score: inf
ROOT
ATOM      1  C   UNL     1       8.406  -0.677  -2.053  1.00  0.00     0.127 C 
ENDROOT
BRANCH   1   2
ATOM      2  C   UNL     1       8.373  -1.913  -2.869  1.00  0.00     0.303 C 
ATOM      3  O   UNL     1       7.286  -2.410  -3.255  1.00  0.00    -0.252 OA
BRANCH   2   4
ATOM      4  O   UNL     1       9.546  -2.558  -3.228  1.00  0.00    -0.481 OA
ATOM      5  H   UNL     1      10.084  -3.054  -2.513  1.00  0.00     0.296 HD
ENDBRANCH   2   4
ENDBRANCH   1   2
BRANCH   1   6
ATOM      6  C   UNL     1       7.035  -0.072  -2.059  1.00  0.00     0.047 C 
BRANCH   6   7
ATOM      7  C   UNL     1       6.454   0.097  -0.728  1.00  0.00    -0.047 A 
ATOM      8  C   UNL     1       5.795   1.256  -0.391  1.00  0.00     0.004 A 
ATOM      9  C   UNL     1       6.572  -0.920   0.191  1.00  0.00     0.004 A 
ATOM     10  C   UNL     1       5.264   1.349   0.898  1.00  0.00     0.000 A 
ATOM     11  C   UNL     1       6.047  -0.827   1.464  1.00  0.00     0.000 A 
ATOM     12  C   UNL     1       5.386   0.331   1.810  1.00  0.00     0.000 A 
ENDBRANCH   6   7
ENDBRANCH   1   6
TORSDOF 4
ENDMDL
MODEL 2
REMARK VINA RESULT:      -6.8      1.418      2.187
REMARK SMILES O=C(O)CCc1ccccc1
REMARK SMILES IDX 4 1 2 2 1 3 3 4 5 6 6 7 7 8 11 9 8 10 10 11 9 12
REMARK H PARENT 3 5
REMARK Flexibility Score: inf
ROOT
ATOM      1  C   UNL     1       8.292  -0.503  -2.331  1.00  0.00     0.127 C 
ENDROOT
BRANCH   1   2
ATOM      2  C   UNL     1       8.397  -1.840  -2.961  1.00  0.00     0.303 C 
ATOM      3  O   UNL     1       9.505  -2.421  -3.074  1.00  0.00    -0.252 OA
BRANCH   2   4
ATOM      4  O   UNL     1       7.272  -2.489  -3.444  1.00  0.00    -0.481 OA
ATOM      5  H   UNL     1       6.830  -3.217  -2.875  1.00  0.00     0.296 HD
ENDBRANCH   2   4
ENDBRANCH   1   2
BRANCH   1   6
ATOM      6  C   UNL     1       6.984  -0.427  -1.605  1.00  0.00     0.047 C 
BRANCH   6   7
ATOM      7  C   UNL     1       6.828   0.774  -0.785  1.00  0.00    -0.047 A 
ATOM      8  C   UNL     1       7.912   1.340  -0.155  1.00  0.00     0.004 A 
ATOM      9  C   UNL     1       5.580   1.337  -0.649  1.00  0.00     0.004 A 
ATOM     10  C   UNL     1       7.690   2.487   0.611  1.00  0.00     0.000 A 
ATOM     11  C   UNL     1       5.363   2.470   0.109  1.00  0.00     0.000 A 
ATOM     12  C   UNL     1       6.443   3.044   0.744  1.00  0.00     0.000 A 
ENDBRANCH   6   7
ENDBRANCH   1   6
TORSDOF 4
ENDMDL
