@<TRIPOS>MOLECULE
/home/cewinharhar/GITHUB/reincatalyze/data/processed/docking_pred/2023-May-05-1615_maxeplen10_maxtrainstep1000_seadep16_gamma099_lrac9e-4_lrcr1e-3/12e5788d749ca0b681d4f032b25b6d257325d045_ligand_2.pdbqt
 12 12 0 0 0
SMALL
GASTEIGER

@<TRIPOS>ATOM
      1  C          8.4030   -0.6530   -2.0800 C.3     1  UNL1        0.1270
      2  C          8.3720   -1.9010   -2.8780 C.2     1  UNL1        0.3030
      3  O          7.2860   -2.4100   -3.2490 O.2     1  UNL1       -0.2520
      4  O          9.5460   -2.5440   -3.2370 O.3     1  UNL1       -0.4810
      5  H         10.2140   -2.8110   -2.5080 H       1  UNL1        0.2960
      6  C          7.0250   -0.0640   -2.0730 C.3     1  UNL1        0.0470
      7  C          6.4570    0.1020   -0.7370 C.2     1  UNL1       -0.0470
      8  C          5.8000    1.2610   -0.3910 C.2     1  UNL1        0.0040
      9  C          6.5830   -0.9170    0.1780 C.2     1  UNL1        0.0040
     10  C          5.2820    1.3500    0.9030 C.2     1  UNL1        0.0000
     11  C          6.0700   -0.8270    1.4570 C.2     1  UNL1        0.0000
     12  C          5.4110    0.3310    1.8110 C.2     1  UNL1        0.0000
@<TRIPOS>BOND
     1     3     2    2
     2     4     2    1
     3     4     5    1
     4     2     1    1
     5     1     6    1
     6     6     7    1
     7     7     8    2
     8     7     9    1
     9     8    10    1
    10     9    11    2
    11    10    12    2
    12    11    12    1
