@<TRIPOS>MOLECULE
/home/cewinharhar/GITHUB/reincatalyze/data/processed/docking_pred/2023-May-05-1615_maxeplen10_maxtrainstep1000_seadep16_gamma099_lrac9e-4_lrcr1e-3/13c3a96d7f073914410e4f6d6c0e2190084e407e_ligand_2.pdbqt
 12 12 0 0 0
SMALL
GASTEIGER

@<TRIPOS>ATOM
      1  C          8.4080   -0.6640   -2.0620 C.3     1  UNL1        0.1270
      2  C          8.3760   -1.9020   -2.8760 C.2     1  UNL1        0.3030
      3  O          7.2890   -2.4140   -3.2410 O.2     1  UNL1       -0.2520
      4  O          9.5510   -2.5310   -3.2580 O.3     1  UNL1       -0.4810
      5  H          9.9650   -2.3090   -4.1680 H       1  UNL1        0.2960
      6  C          7.0350   -0.0640   -2.0650 C.3     1  UNL1        0.0470
      7  C          6.4590    0.1080   -0.7330 C.2     1  UNL1       -0.0470
      8  C          5.8050    1.2700   -0.3940 C.2     1  UNL1        0.0040
      9  C          6.5760   -0.9090    0.1860 C.2     1  UNL1        0.0040
     10  C          5.2780    1.3650    0.8960 C.2     1  UNL1        0.0000
     11  C          6.0550   -0.8130    1.4610 C.2     1  UNL1        0.0000
     12  C          5.3980    0.3470    1.8080 C.2     1  UNL1        0.0000
@<TRIPOS>BOND
     1     5     4    1
     2     4     2    1
     3     3     2    2
     4     2     1    1
     5     6     1    1
     6     6     7    1
     7     7     8    2
     8     7     9    1
     9     8    10    1
    10     9    11    2
    11    10    12    2
    12    11    12    1
