@<TRIPOS>MOLECULE
/home/cewinharhar/GITHUB/reincatalyze/data/processed/docking_pred/2023-May-05-1615_maxeplen10_maxtrainstep1000_seadep16_gamma099_lrac9e-4_lrcr1e-3/13c3a96d7f073914410e4f6d6c0e2190084e407e_ligand_2.pdbqt
 12 12 0 0 0
SMALL
GASTEIGER

@<TRIPOS>ATOM
      1  C          8.2930   -0.5750   -2.1810 C.3     1  UNL1        0.1270
      2  C          8.3150   -1.8620   -2.9160 C.2     1  UNL1        0.3030
      3  O          7.2530   -2.4030   -3.3120 O.2     1  UNL1       -0.2520
      4  O          9.5120   -2.5040   -3.1870 O.3     1  UNL1       -0.4810
      5  H         10.3570   -2.2240   -2.6810 H       1  UNL1        0.2960
      6  C          6.9750   -0.4570   -1.4780 C.3     1  UNL1        0.0470
      7  C          6.8220    0.7740   -0.7040 C.2     1  UNL1       -0.0470
      8  C          7.9070    1.3590   -0.0920 C.2     1  UNL1        0.0040
      9  C          5.5770    1.3470   -0.5930 C.2     1  UNL1        0.0040
     10  C          7.6870    2.5340    0.6300 C.2     1  UNL1        0.0000
     11  C          5.3620    2.5090    0.1220 C.2     1  UNL1        0.0000
     12  C          6.4420    3.1010    0.7380 C.2     1  UNL1        0.0000
@<TRIPOS>BOND
     1     3     2    2
     2     4     2    1
     3     4     5    1
     4     2     1    1
     5     1     6    1
     6     6     7    1
     7     7     9    2
     8     7     8    1
     9     9    11    1
    10     8    10    2
    11    11    12    2
    12    10    12    1
