@<TRIPOS>MOLECULE
/home/cewinharhar/GITHUB/reincatalyze/data/processed/docking_pred/2023-May-05-1615_maxeplen10_maxtrainstep1000_seadep16_gamma099_lrac9e-4_lrcr1e-3/13c3a96d7f073914410e4f6d6c0e2190084e407e_ligand_2.pdbqt
 12 12 0 0 0
SMALL
GASTEIGER

@<TRIPOS>ATOM
      1  C          9.9740    1.7900    1.2980 C.3     1  UNL1        0.1270
      2  C         10.7760    0.6970    0.7010 C.2     1  UNL1        0.3030
      3  O         11.3070   -0.1870    1.4180 O.2     1  UNL1       -0.2520
      4  O         10.9630    0.6200   -0.6700 O.3     1  UNL1       -0.4810
      5  H         10.1940    0.2960   -1.2630 H       1  UNL1        0.2960
      6  C          8.6930    1.2070    1.8140 C.3     1  UNL1        0.0470
      7  C          7.4980    1.7040    1.1350 C.2     1  UNL1       -0.0470
      8  C          7.1730    3.0410    1.1710 C.2     1  UNL1        0.0040
      9  C          6.6960    0.8190    0.4540 C.2     1  UNL1        0.0040
     10  C          6.0170    3.4450    0.4990 C.2     1  UNL1        0.0000
     11  C          5.5530    1.2200   -0.2090 C.2     1  UNL1        0.0000
     12  C          5.2200    2.5570   -0.1780 C.2     1  UNL1        0.0000
@<TRIPOS>BOND
     1     5     4    1
     2     4     2    1
     3    11    12    2
     4    11     9    1
     5    12    10    1
     6     9     7    2
     7    10     8    2
     8     2     1    1
     9     2     3    2
    10     7     8    1
    11     7     6    1
    12     1     6    1
