@<TRIPOS>MOLECULE
/home/cewinharhar/GITHUB/reincatalyze/data/processed/docking_pred/2023-May-05-1615_maxeplen10_maxtrainstep1000_seadep16_gamma099_lrac9e-4_lrcr1e-3/13e8c6f9c16a4fbf8ad14846e02839591438c51f_ligand_2.pdbqt
 12 12 0 0 0
SMALL
GASTEIGER

@<TRIPOS>ATOM
      1  C          8.2900   -0.5790   -2.1470 C.3     1  UNL1        0.1270
      2  C          8.3140   -1.8470   -2.9140 C.2     1  UNL1        0.3030
      3  O          7.2510   -2.3970   -3.2940 O.2     1  UNL1       -0.2520
      4  O          9.5140   -2.4620   -3.2330 O.3     1  UNL1       -0.4810
      5  H         10.3400   -1.8850   -3.4140 H       1  UNL1        0.2960
      6  C          6.9610   -0.4660   -1.4640 C.3     1  UNL1        0.0470
      7  C          6.7860    0.7710   -0.7050 C.2     1  UNL1       -0.0470
      8  C          5.5520    1.3720   -0.6150 C.2     1  UNL1        0.0040
      9  C          7.8730    1.3310   -0.0750 C.2     1  UNL1        0.0040
     10  C          5.4590    2.5510    0.1280 C.2     1  UNL1        0.0000
     11  C          7.7790    2.4970    0.6590 C.2     1  UNL1        0.0000
     12  C          6.5470    3.1060    0.7540 C.2     1  UNL1        0.0000
@<TRIPOS>BOND
     1     5     4    1
     2     3     2    2
     3     4     2    1
     4     2     1    1
     5     1     6    1
     6     6     7    1
     7     7     8    2
     8     7     9    1
     9     8    10    1
    10     9    11    2
    11    10    12    2
    12    11    12    1
