@<TRIPOS>MOLECULE
/home/cewinharhar/GITHUB/reincatalyze/data/processed/docking_pred/2023-May-05-1615_maxeplen10_maxtrainstep1000_seadep16_gamma099_lrac9e-4_lrcr1e-3/141a4713aaf07cdd351da17b8461b13d6c9c65f9_ligand_2.pdbqt
 12 12 0 0 0
SMALL
GASTEIGER

@<TRIPOS>ATOM
      1  C          8.2730   -0.5370   -2.2090 C.3     1  UNL1        0.1270
      2  C          8.3060   -1.8300   -2.9330 C.2     1  UNL1        0.3030
      3  O          7.2470   -2.3980   -3.2980 O.2     1  UNL1       -0.2520
      4  O          9.5100   -2.4480   -3.2270 O.3     1  UNL1       -0.4810
      5  H         10.0900   -2.0810   -3.9870 H       1  UNL1        0.2960
      6  C          6.9810   -0.4530   -1.4540 C.3     1  UNL1        0.0470
      7  C          6.8120    0.7900   -0.7030 C.2     1  UNL1       -0.0470
      8  C          7.8820    1.3830   -0.0750 C.2     1  UNL1        0.0040
      9  C          5.5650    1.3660   -0.6300 C.2     1  UNL1        0.0040
     10  C          7.6480    2.5690    0.6250 C.2     1  UNL1        0.0000
     11  C          5.3340    2.5380    0.0620 C.2     1  UNL1        0.0000
     12  C          6.4010    3.1380    0.6950 C.2     1  UNL1        0.0000
@<TRIPOS>BOND
     1     5     4    1
     2     3     2    2
     3     4     2    1
     4     2     1    1
     5     1     6    1
     6     6     7    1
     7     7     9    2
     8     7     8    1
     9     9    11    1
    10     8    10    2
    11    11    12    2
    12    10    12    1
