@<TRIPOS>MOLECULE
/home/cewinharhar/GITHUB/reincatalyze/data/processed/docking_pred/2023-May-05-1615_maxeplen10_maxtrainstep1000_seadep16_gamma099_lrac9e-4_lrcr1e-3/141a4713aaf07cdd351da17b8461b13d6c9c65f9_ligand_2.pdbqt
 12 12 0 0 0
SMALL
GASTEIGER

@<TRIPOS>ATOM
      1  C          8.4610   -0.6800   -2.0650 C.3     1  UNL1        0.1270
      2  C          8.4710   -1.9190   -2.8780 C.2     1  UNL1        0.3030
      3  O          9.5350   -2.5540   -3.0850 O.2     1  UNL1       -0.2520
      4  O          7.3020   -2.4120   -3.4350 O.3     1  UNL1       -0.4810
      5  H          6.5500   -2.7340   -2.8180 H       1  UNL1        0.2960
      6  C          7.0710   -0.1200   -2.0780 C.3     1  UNL1        0.0470
      7  C          6.4860    0.0480   -0.7490 C.2     1  UNL1       -0.0470
      8  C          5.8240    1.2060   -0.4130 C.2     1  UNL1        0.0040
      9  C          6.6020   -0.9700    0.1700 C.2     1  UNL1        0.0040
     10  C          5.2890    1.2970    0.8740 C.2     1  UNL1        0.0000
     11  C          6.0730   -0.8780    1.4420 C.2     1  UNL1        0.0000
     12  C          5.4090    0.2790    1.7860 C.2     1  UNL1        0.0000
@<TRIPOS>BOND
     1     4     2    1
     2     4     5    1
     3     3     2    2
     4     2     1    1
     5     6     1    1
     6     6     7    1
     7     7     8    2
     8     7     9    1
     9     8    10    1
    10     9    11    2
    11    10    12    2
    12    11    12    1
