@<TRIPOS>MOLECULE
/home/cewinharhar/GITHUB/reincatalyze/data/processed/docking_pred/2023-May-05-1615_maxeplen10_maxtrainstep1000_seadep16_gamma099_lrac9e-4_lrcr1e-3/141be626e2cd6ba8f6b8a46d6dbef4dd02701a2b_ligand_2.pdbqt
 12 12 0 0 0
SMALL
GASTEIGER

@<TRIPOS>ATOM
      1  C          8.1080   -1.0590    0.0550 C.3     1  UNL1        0.1270
      2  C          7.8760   -2.3230    0.7940 C.2     1  UNL1        0.3030
      3  O          8.7280   -3.2450    0.7880 O.2     1  UNL1       -0.2520
      4  O          6.7090   -2.5210    1.5130 O.3     1  UNL1       -0.4810
      5  H          6.7620   -2.9180    2.4550 H       1  UNL1        0.2960
      6  C          6.7800   -0.5200   -0.3830 C.3     1  UNL1        0.0470
      7  C          6.5790    0.8940   -0.0690 C.2     1  UNL1       -0.0470
      8  C          5.3790    1.5100   -0.3360 C.2     1  UNL1        0.0040
      9  C          7.6080    1.6070    0.5020 C.2     1  UNL1        0.0040
     10  C          5.2570    2.8620   -0.0080 C.2     1  UNL1        0.0000
     11  C          7.4860    2.9440    0.8250 C.2     1  UNL1        0.0000
     12  C          6.2870    3.5690    0.5600 C.2     1  UNL1        0.0000
@<TRIPOS>BOND
     1     6     7    1
     2     6     1    1
     3     8     7    2
     4     8    10    1
     5     7     9    1
     6    10    12    2
     7     1     2    1
     8     9    11    2
     9    12    11    1
    10     3     2    2
    11     2     4    1
    12     4     5    1
