@<TRIPOS>MOLECULE
/home/cewinharhar/GITHUB/reincatalyze/data/processed/docking_pred/2023-May-05-1615_maxeplen10_maxtrainstep1000_seadep16_gamma099_lrac9e-4_lrcr1e-3/141be626e2cd6ba8f6b8a46d6dbef4dd02701a2b_ligand_2.pdbqt
 12 12 0 0 0
SMALL
GASTEIGER

@<TRIPOS>ATOM
      1  C          7.6530   -0.3530    1.0660 C.3     1  UNL1        0.1270
      2  C          6.6350   -1.1080    1.8340 C.2     1  UNL1        0.3030
      3  O          5.8760   -0.5300    2.6510 O.2     1  UNL1       -0.2520
      4  O          6.4940   -2.4760    1.6710 O.3     1  UNL1       -0.4810
      5  H          6.7760   -3.1030    2.4300 H       1  UNL1        0.2960
      6  C          8.0550    0.8470    1.8690 C.3     1  UNL1        0.0470
      7  C          9.4840    0.9050    2.1750 C.2     1  UNL1       -0.0470
      8  C         10.3690    0.0470    1.5660 C.2     1  UNL1        0.0040
      9  C          9.9380    1.8340    3.0830 C.2     1  UNL1        0.0040
     10  C         11.7190    0.1610    1.9050 C.2     1  UNL1        0.0000
     11  C         11.2730    1.9440    3.4170 C.2     1  UNL1        0.0000
     12  C         12.1670    1.0880    2.8120 C.2     1  UNL1        0.0000
@<TRIPOS>BOND
     1     1     2    1
     2     1     6    1
     3     8    10    1
     4     8     7    2
     5     4     2    1
     6     4     5    1
     7     2     3    2
     8     6     7    1
     9    10    12    2
    10     7     9    1
    11    12    11    1
    12     9    11    2
