@<TRIPOS>MOLECULE
/home/cewinharhar/GITHUB/reincatalyze/data/processed/docking_pred/2023-May-05-1615_maxeplen10_maxtrainstep1000_seadep16_gamma099_lrac9e-4_lrcr1e-3/141be626e2cd6ba8f6b8a46d6dbef4dd02701a2b_ligand_2.pdbqt
 12 12 0 0 0
SMALL
GASTEIGER

@<TRIPOS>ATOM
      1  C          6.4800    3.7170    0.3260 C.3     1  UNL1        0.1270
      2  C          6.8220    3.9920    1.7420 C.2     1  UNL1        0.3030
      3  O          6.1180    4.7570    2.4450 O.2     1  UNL1       -0.2520
      4  O          7.9340    3.4100    2.3290 O.3     1  UNL1       -0.4810
      5  H          8.2150    3.7030    3.2690 H       1  UNL1        0.2960
      6  C          5.2990    2.7950    0.2980 C.3     1  UNL1        0.0470
      7  C          5.6460    1.3820    0.4400 C.2     1  UNL1       -0.0470
      8  C          5.2790    0.6770    1.5630 C.2     1  UNL1        0.0040
      9  C          6.3440    0.7580   -0.5680 C.2     1  UNL1        0.0040
     10  C          5.6420   -0.6700    1.6300 C.2     1  UNL1        0.0000
     11  C          6.7030   -0.5740   -0.4990 C.2     1  UNL1        0.0000
     12  C          6.3400   -1.2870    0.6220 C.2     1  UNL1        0.0000
@<TRIPOS>BOND
     1     9    11    1
     2     9     7    2
     3    11    12    2
     4     6     1    1
     5     6     7    1
     6     1     2    1
     7     7     8    1
     8    12    10    1
     9     8    10    2
    10     2     4    1
    11     2     3    2
    12     4     5    1
