@<TRIPOS>MOLECULE
/home/cewinharhar/GITHUB/reincatalyze/data/processed/docking_pred/2023-May-05-1615_maxeplen10_maxtrainstep1000_seadep16_gamma099_lrac9e-4_lrcr1e-3/141be626e2cd6ba8f6b8a46d6dbef4dd02701a2b_ligand_2.pdbqt
 12 12 0 0 0
SMALL
GASTEIGER

@<TRIPOS>ATOM
      1  C          9.9600    1.7770    1.2840 C.3     1  UNL1        0.1270
      2  C         10.7490    0.6840    0.6680 C.2     1  UNL1        0.3030
      3  O         11.2580   -0.2260    1.3690 O.2     1  UNL1       -0.2520
      4  O         10.9470    0.6360   -0.7030 O.3     1  UNL1       -0.4810
      5  H         10.4000   -0.0210   -1.2650 H       1  UNL1        0.2960
      6  C          8.6920    1.1930    1.8270 C.3     1  UNL1        0.0470
      7  C          7.4870    1.6280    1.1210 C.2     1  UNL1       -0.0470
      8  C          6.7230    0.7280    0.4150 C.2     1  UNL1        0.0040
      9  C          7.1210    2.9530    1.1720 C.2     1  UNL1        0.0040
     10  C          5.5850    1.2130   -0.2340 C.2     1  UNL1        0.0000
     11  C          5.9960    3.4310    0.5290 C.2     1  UNL1        0.0000
     12  C          5.2250    2.5360   -0.1810 C.2     1  UNL1        0.0000
@<TRIPOS>BOND
     1     5     4    1
     2     4     2    1
     3    10    12    2
     4    10     8    1
     5    12    11    1
     6     8     7    2
     7    11     9    2
     8     2     1    1
     9     2     3    2
    10     7     9    1
    11     7     6    1
    12     1     6    1
