@<TRIPOS>MOLECULE
/home/cewinharhar/GITHUB/reincatalyze/data/processed/docking_pred/2023-May-05-1615_maxeplen10_maxtrainstep1000_seadep16_gamma099_lrac9e-4_lrcr1e-3/1444e75be78da7e2931ed2b5f85ad252461f0798_ligand_2.pdbqt
 12 12 0 0 0
SMALL
GASTEIGER

@<TRIPOS>ATOM
      1  C          5.0200    1.6400    0.6620 C.3     1  UNL1        0.1270
      2  C          4.5710    0.9940    1.9180 C.2     1  UNL1        0.3030
      3  O          5.2790    0.1340    2.4970 O.2     1  UNL1       -0.2520
      4  O          3.3520    1.3220    2.4890 O.3     1  UNL1       -0.4810
      5  H          2.5750    0.6580    2.4290 H       1  UNL1        0.2960
      6  C          6.5160    1.7240    0.6850 C.3     1  UNL1        0.0470
      7  C          7.1700    0.9610   -0.3770 C.2     1  UNL1       -0.0470
      8  C          8.4870    1.1920   -0.7000 C.2     1  UNL1        0.0040
      9  C          6.4520    0.0020   -1.0540 C.2     1  UNL1        0.0040
     10  C          9.0470    0.4250   -1.7240 C.2     1  UNL1        0.0000
     11  C          7.0070   -0.7550   -2.0670 C.2     1  UNL1        0.0000
     12  C          8.3260   -0.5290   -2.3970 C.2     1  UNL1        0.0000
@<TRIPOS>BOND
     1    12    11    2
     2    12    10    1
     3    11     9    1
     4    10     8    2
     5     9     7    2
     6     8     7    1
     7     7     6    1
     8     1     6    1
     9     1     2    1
    10     2     4    1
    11     2     3    2
    12     5     4    1
