@<TRIPOS>MOLECULE
/home/cewinharhar/GITHUB/reincatalyze/data/processed/docking_pred/2023-May-05-1615_maxeplen10_maxtrainstep1000_seadep16_gamma099_lrac9e-4_lrcr1e-3/1444e75be78da7e2931ed2b5f85ad252461f0798_ligand_2.pdbqt
 12 12 0 0 0
SMALL
GASTEIGER

@<TRIPOS>ATOM
      1  C          8.4210   -0.6150   -2.1550 C.3     1  UNL1        0.1270
      2  C          8.4630   -1.8860   -2.9170 C.2     1  UNL1        0.3030
      3  O          9.5450   -2.4950   -3.1060 O.2     1  UNL1       -0.2520
      4  O          7.3060   -2.4370   -3.4440 O.3     1  UNL1       -0.4810
      5  H          7.1710   -3.4510   -3.4040 H       1  UNL1        0.2960
      6  C          6.9900   -0.1880   -2.0310 C.3     1  UNL1        0.0470
      7  C          6.4930   -0.1670   -0.6570 C.2     1  UNL1       -0.0470
      8  C          5.7790    0.9100   -0.1840 C.2     1  UNL1        0.0040
      9  C          6.7450   -1.2400    0.1650 C.2     1  UNL1        0.0040
     10  C          5.3350    0.8630    1.1390 C.2     1  UNL1        0.0000
     11  C          6.3050   -1.2860    1.4730 C.2     1  UNL1        0.0000
     12  C          5.5900   -0.2110    1.9550 C.2     1  UNL1        0.0000
@<TRIPOS>BOND
     1     4     5    1
     2     4     2    1
     3     3     2    2
     4     2     1    1
     5     1     6    1
     6     6     7    1
     7     7     8    2
     8     7     9    1
     9     8    10    1
    10     9    11    2
    11    10    12    2
    12    11    12    1
