MODEL 1
REMARK VINA RESULT:      -7.2      0.000      0.000
REMARK SMILES O=C(O)CCc1ccccc1
REMARK SMILES IDX 4 1 2 2 1 3 3 4 5 6 6 7 7 8 11 9 8 10 10 11 9 12
REMARK H PARENT 3 5
REMARK Flexibility Score: inf
ROOT
ATOM      1  C   UNL     1       8.421  -0.615  -2.155  1.00  0.00     0.127 C 
ENDROOT
BRANCH   1   2
ATOM      2  C   UNL     1       8.463  -1.886  -2.917  1.00  0.00     0.303 C 
ATOM      3  O   UNL     1       9.545  -2.495  -3.106  1.00  0.00    -0.252 OA
BRANCH   2   4
ATOM      4  O   UNL     1       7.306  -2.437  -3.444  1.00  0.00    -0.481 OA
ATOM      5  H   UNL     1       7.171  -3.451  -3.404  1.00  0.00     0.296 HD
ENDBRANCH   2   4
ENDBRANCH   1   2
BRANCH   1   6
ATOM      6  C   UNL     1       6.990  -0.188  -2.031  1.00  0.00     0.047 C 
BRANCH   6   7
ATOM      7  C   UNL     1       6.493  -0.167  -0.657  1.00  0.00    -0.047 A 
ATOM      8  C   UNL     1       5.779   0.910  -0.184  1.00  0.00     0.004 A 
ATOM      9  C   UNL     1       6.745  -1.240   0.165  1.00  0.00     0.004 A 
ATOM     10  C   UNL     1       5.335   0.863   1.139  1.00  0.00     0.000 A 
ATOM     11  C   UNL     1       6.305  -1.286   1.473  1.00  0.00     0.000 A 
ATOM     12  C   UNL     1       5.590  -0.211   1.955  1.00  0.00     0.000 A 
ENDBRANCH   6   7
ENDBRANCH   1   6
TORSDOF 4
ENDMDL
