MODEL 1
REMARK VINA RESULT:      -7.3      0.000      0.000
REMARK SMILES O=C(O)CCc1ccccc1
REMARK SMILES IDX 4 1 2 2 1 3 3 4 5 6 6 7 7 8 11 9 8 10 10 11 9 12
REMARK H PARENT 3 5
REMARK Flexibility Score: inf
ROOT
ATOM      1  C   UNL     1       8.405  -0.660  -2.071  1.00  0.00     0.127 C 
ENDROOT
BRANCH   1   2
ATOM      2  C   UNL     1       8.372  -1.903  -2.876  1.00  0.00     0.303 C 
ATOM      3  O   UNL     1       7.285  -2.409  -3.249  1.00  0.00    -0.252 OA
BRANCH   2   4
ATOM      4  O   UNL     1       9.545  -2.545  -3.240  1.00  0.00    -0.481 OA
ATOM      5  H   UNL     1       9.629  -2.940  -4.181  1.00  0.00     0.296 HD
ENDBRANCH   2   4
ENDBRANCH   1   2
BRANCH   1   6
ATOM      6  C   UNL     1       7.030  -0.064  -2.068  1.00  0.00     0.047 C 
BRANCH   6   7
ATOM      7  C   UNL     1       6.458   0.104  -0.733  1.00  0.00    -0.047 A 
ATOM      8  C   UNL     1       5.801   1.263  -0.391  1.00  0.00     0.004 A 
ATOM      9  C   UNL     1       6.581  -0.915   0.183  1.00  0.00     0.004 A 
ATOM     10  C   UNL     1       5.278   1.354   0.901  1.00  0.00     0.000 A 
ATOM     11  C   UNL     1       6.064  -0.823   1.460  1.00  0.00     0.000 A 
ATOM     12  C   UNL     1       5.405   0.335   1.812  1.00  0.00     0.000 A 
ENDBRANCH   6   7
ENDBRANCH   1   6
TORSDOF 4
ENDMDL
