@<TRIPOS>MOLECULE
/home/cewinharhar/GITHUB/reincatalyze/data/processed/docking_pred/2023-May-05-1615_maxeplen10_maxtrainstep1000_seadep16_gamma099_lrac9e-4_lrcr1e-3/1a0a4210c7fbec369f44508687af2363e72d8760_ligand_2.pdbqt
 12 12 0 0 0
SMALL
GASTEIGER

@<TRIPOS>ATOM
      1  C          8.4050   -0.6600   -2.0710 C.3     1  UNL1        0.1270
      2  C          8.3720   -1.9030   -2.8760 C.2     1  UNL1        0.3030
      3  O          7.2850   -2.4090   -3.2490 O.2     1  UNL1       -0.2520
      4  O          9.5450   -2.5450   -3.2400 O.3     1  UNL1       -0.4810
      5  H          9.6290   -2.9400   -4.1810 H       1  UNL1        0.2960
      6  C          7.0300   -0.0640   -2.0680 C.3     1  UNL1        0.0470
      7  C          6.4580    0.1040   -0.7330 C.2     1  UNL1       -0.0470
      8  C          5.8010    1.2630   -0.3910 C.2     1  UNL1        0.0040
      9  C          6.5810   -0.9150    0.1830 C.2     1  UNL1        0.0040
     10  C          5.2780    1.3540    0.9010 C.2     1  UNL1        0.0000
     11  C          6.0640   -0.8230    1.4600 C.2     1  UNL1        0.0000
     12  C          5.4050    0.3350    1.8120 C.2     1  UNL1        0.0000
@<TRIPOS>BOND
     1     5     4    1
     2     3     2    2
     3     4     2    1
     4     2     1    1
     5     1     6    1
     6     6     7    1
     7     7     8    2
     8     7     9    1
     9     8    10    1
    10     9    11    2
    11    10    12    2
    12    11    12    1
