@<TRIPOS>MOLECULE
/home/cewinharhar/GITHUB/reincatalyze/data/processed/docking_pred/2023-May-05-1615_maxeplen10_maxtrainstep1000_seadep16_gamma099_lrac9e-4_lrcr1e-3/1b5ae47dc41e9fd81b532b383f57e012b2e09fc7_ligand_2.pdbqt
 12 12 0 0 0
SMALL
GASTEIGER

@<TRIPOS>ATOM
      1  C          8.4400   -0.5910   -2.1820 C.3     1  UNL1        0.1270
      2  C          8.4780   -1.8750   -2.9210 C.2     1  UNL1        0.3030
      3  O          9.5590   -2.4840   -3.1120 O.2     1  UNL1       -0.2520
      4  O          7.3160   -2.4400   -3.4220 O.3     1  UNL1       -0.4810
      5  H          6.7210   -1.8890   -4.0470 H       1  UNL1        0.2960
      6  C          7.0090   -0.1650   -2.0510 C.3     1  UNL1        0.0470
      7  C          6.5280   -0.1120   -0.6720 C.2     1  UNL1       -0.0470
      8  C          5.8780    1.0030   -0.1960 C.2     1  UNL1        0.0040
      9  C          6.7310   -1.1950    0.1520 C.2     1  UNL1        0.0040
     10  C          5.4450    0.9840    1.1310 C.2     1  UNL1        0.0000
     11  C          6.3020   -1.2120    1.4640 C.2     1  UNL1        0.0000
     12  C          5.6500   -0.0990    1.9490 C.2     1  UNL1        0.0000
@<TRIPOS>BOND
     1     5     4    1
     2     4     2    1
     3     3     2    2
     4     2     1    1
     5     1     6    1
     6     6     7    1
     7     7     8    2
     8     7     9    1
     9     8    10    1
    10     9    11    2
    11    10    12    2
    12    11    12    1
