@<TRIPOS>MOLECULE
/home/cewinharhar/GITHUB/reincatalyze/data/processed/docking_pred/2023-May-05-1615_maxeplen10_maxtrainstep1000_seadep16_gamma099_lrac9e-4_lrcr1e-3/1b5ae47dc41e9fd81b532b383f57e012b2e09fc7_ligand_2.pdbqt
 12 12 0 0 0
SMALL
GASTEIGER

@<TRIPOS>ATOM
      1  C          6.0910    1.4160    1.2160 C.3     1  UNL1        0.1270
      2  C          5.2550    0.5040    2.0330 C.2     1  UNL1        0.3030
      3  O          5.6730   -0.6290    2.3760 O.2     1  UNL1       -0.2520
      4  O          3.9850    0.8790    2.4400 O.3     1  UNL1       -0.4810
      5  H          3.8830    1.5540    3.2030 H       1  UNL1        0.2960
      6  C          5.7870    1.1640   -0.2300 C.3     1  UNL1        0.0470
      7  C          6.8800    0.5300   -0.9650 C.2     1  UNL1       -0.0470
      8  C          8.1620    1.0240   -0.8840 C.2     1  UNL1        0.0040
      9  C          6.6150   -0.5740   -1.7420 C.2     1  UNL1        0.0040
     10  C          9.1560    0.3680   -1.6130 C.2     1  UNL1        0.0000
     11  C          7.6000   -1.2210   -2.4620 C.2     1  UNL1        0.0000
     12  C          8.8860   -0.7330   -2.3870 C.2     1  UNL1        0.0000
@<TRIPOS>BOND
     1    11    12    2
     2    11     9    1
     3    12    10    1
     4     9     7    2
     5    10     8    2
     6     7     8    1
     7     7     6    1
     8     6     1    1
     9     1     2    1
    10     2     3    2
    11     2     4    1
    12     4     5    1
