MODEL 1
REMARK VINA RESULT:      -7.3      0.000      0.000
REMARK SMILES O=C(O)CCc1ccccc1
REMARK SMILES IDX 4 1 2 2 1 3 3 4 5 6 6 7 7 8 11 9 8 10 10 11 9 12
REMARK H PARENT 3 5
REMARK Flexibility Score: inf
ROOT
ATOM      1  C   UNL     1       8.440  -0.591  -2.182  1.00  0.00     0.127 C 
ENDROOT
BRANCH   1   2
ATOM      2  C   UNL     1       8.478  -1.875  -2.921  1.00  0.00     0.303 C 
ATOM      3  O   UNL     1       9.559  -2.484  -3.112  1.00  0.00    -0.252 OA
BRANCH   2   4
ATOM      4  O   UNL     1       7.316  -2.440  -3.422  1.00  0.00    -0.481 OA
ATOM      5  H   UNL     1       6.721  -1.889  -4.047  1.00  0.00     0.296 HD
ENDBRANCH   2   4
ENDBRANCH   1   2
BRANCH   1   6
ATOM      6  C   UNL     1       7.009  -0.165  -2.051  1.00  0.00     0.047 C 
BRANCH   6   7
ATOM      7  C   UNL     1       6.528  -0.112  -0.672  1.00  0.00    -0.047 A 
ATOM      8  C   UNL     1       5.878   1.003  -0.196  1.00  0.00     0.004 A 
ATOM      9  C   UNL     1       6.731  -1.195   0.152  1.00  0.00     0.004 A 
ATOM     10  C   UNL     1       5.445   0.984   1.131  1.00  0.00     0.000 A 
ATOM     11  C   UNL     1       6.302  -1.212   1.464  1.00  0.00     0.000 A 
ATOM     12  C   UNL     1       5.650  -0.099   1.949  1.00  0.00     0.000 A 
ENDBRANCH   6   7
ENDBRANCH   1   6
TORSDOF 4
ENDMDL
