@<TRIPOS>MOLECULE
/home/cewinharhar/GITHUB/reincatalyze/data/processed/docking_pred/2023-May-05-1615_maxeplen10_maxtrainstep1000_seadep16_gamma099_lrac9e-4_lrcr1e-3/1c0c8a91d3eae7937fa2398dc61f909c50ab5738_ligand_2.pdbqt
 12 12 0 0 0
SMALL
GASTEIGER

@<TRIPOS>ATOM
      1  C          8.4730   -0.6660   -2.0930 C.3     1  UNL1        0.1270
      2  C          8.4900   -1.9170   -2.8870 C.2     1  UNL1        0.3030
      3  O          9.5640   -2.5250   -3.1190 O.2     1  UNL1       -0.2520
      4  O          7.3170   -2.4510   -3.3970 O.3     1  UNL1       -0.4810
      5  H          7.0030   -3.3690   -3.0720 H       1  UNL1        0.2960
      6  C          7.0760   -0.1230   -2.1000 C.3     1  UNL1        0.0470
      7  C          6.5050    0.0680   -0.7680 C.2     1  UNL1       -0.0470
      8  C          5.8470    1.2320   -0.4450 C.2     1  UNL1        0.0040
      9  C          6.6300   -0.9350    0.1660 C.2     1  UNL1        0.0040
     10  C          5.3260    1.3440    0.8460 C.2     1  UNL1        0.0000
     11  C          6.1150   -0.8210    1.4410 C.2     1  UNL1        0.0000
     12  C          5.4550    0.3420    1.7740 C.2     1  UNL1        0.0000
@<TRIPOS>BOND
     1     4     5    1
     2     4     2    1
     3     3     2    2
     4     2     1    1
     5     6     1    1
     6     6     7    1
     7     7     8    2
     8     7     9    1
     9     8    10    1
    10     9    11    2
    11    10    12    2
    12    11    12    1
