@<TRIPOS>MOLECULE
/home/cewinharhar/GITHUB/reincatalyze/data/processed/docking_pred/2023-May-05-1615_maxeplen10_maxtrainstep1000_seadep16_gamma099_lrac9e-4_lrcr1e-3/1c0c8a91d3eae7937fa2398dc61f909c50ab5738_ligand_2.pdbqt
 12 12 0 0 0
SMALL
GASTEIGER

@<TRIPOS>ATOM
      1  C          8.2790   -0.5410   -2.2110 C.3     1  UNL1        0.1270
      2  C          8.3110   -1.8340   -2.9340 C.2     1  UNL1        0.3030
      3  O          7.2520   -2.4040   -3.2970 O.2     1  UNL1       -0.2520
      4  O          9.5160   -2.4520   -3.2300 O.3     1  UNL1       -0.4810
      5  H         10.3750   -1.8960   -3.2380 H       1  UNL1        0.2960
      6  C          6.9550   -0.4210   -1.5200 C.3     1  UNL1        0.0470
      7  C          6.8030    0.8020   -0.7330 C.2     1  UNL1       -0.0470
      8  C          7.8850    1.3710   -0.1030 C.2     1  UNL1        0.0040
      9  C          5.5610    1.3830   -0.6300 C.2     1  UNL1        0.0040
     10  C          7.6670    2.5390    0.6310 C.2     1  UNL1        0.0000
     11  C          5.3470    2.5380    0.0970 C.2     1  UNL1        0.0000
     12  C          6.4250    3.1150    0.7320 C.2     1  UNL1        0.0000
@<TRIPOS>BOND
     1     3     2    2
     2     5     4    1
     3     4     2    1
     4     2     1    1
     5     1     6    1
     6     6     7    1
     7     7     9    2
     8     7     8    1
     9     9    11    1
    10     8    10    2
    11    11    12    2
    12    10    12    1
