MODEL 1
REMARK VINA RESULT:      -7.1      0.000      0.000
REMARK SMILES O=C(O)CCc1ccccc1
REMARK SMILES IDX 4 1 2 2 1 3 3 4 5 6 6 7 7 8 11 9 8 10 10 11 9 12
REMARK H PARENT 3 5
REMARK Flexibility Score: inf
ROOT
ATOM      1  C   UNL     1       8.473  -0.666  -2.093  1.00  0.00     0.127 C 
ENDROOT
BRANCH   1   2
ATOM      2  C   UNL     1       8.490  -1.917  -2.887  1.00  0.00     0.303 C 
ATOM      3  O   UNL     1       9.564  -2.525  -3.119  1.00  0.00    -0.252 OA
BRANCH   2   4
ATOM      4  O   UNL     1       7.317  -2.451  -3.397  1.00  0.00    -0.481 OA
ATOM      5  H   UNL     1       7.003  -3.369  -3.072  1.00  0.00     0.296 HD
ENDBRANCH   2   4
ENDBRANCH   1   2
BRANCH   1   6
ATOM      6  C   UNL     1       7.076  -0.123  -2.100  1.00  0.00     0.047 C 
BRANCH   6   7
ATOM      7  C   UNL     1       6.505   0.068  -0.768  1.00  0.00    -0.047 A 
ATOM      8  C   UNL     1       5.847   1.232  -0.445  1.00  0.00     0.004 A 
ATOM      9  C   UNL     1       6.630  -0.935   0.166  1.00  0.00     0.004 A 
ATOM     10  C   UNL     1       5.326   1.344   0.846  1.00  0.00     0.000 A 
ATOM     11  C   UNL     1       6.115  -0.821   1.441  1.00  0.00     0.000 A 
ATOM     12  C   UNL     1       5.455   0.342   1.774  1.00  0.00     0.000 A 
ENDBRANCH   6   7
ENDBRANCH   1   6
TORSDOF 4
ENDMDL
MODEL 2
REMARK VINA RESULT:      -6.6      1.390      2.200
REMARK SMILES O=C(O)CCc1ccccc1
REMARK SMILES IDX 4 1 2 2 1 3 3 4 5 6 6 7 7 8 11 9 8 10 10 11 9 12
REMARK H PARENT 3 5
REMARK Flexibility Score: inf
ROOT
ATOM      1  C   UNL     1       8.279  -0.541  -2.211  1.00  0.00     0.127 C 
ENDROOT
BRANCH   1   2
ATOM      2  C   UNL     1       8.311  -1.834  -2.934  1.00  0.00     0.303 C 
ATOM      3  O   UNL     1       7.252  -2.404  -3.297  1.00  0.00    -0.252 OA
BRANCH   2   4
ATOM      4  O   UNL     1       9.516  -2.452  -3.230  1.00  0.00    -0.481 OA
ATOM      5  H   UNL     1      10.375  -1.896  -3.238  1.00  0.00     0.296 HD
ENDBRANCH   2   4
ENDBRANCH   1   2
BRANCH   1   6
ATOM      6  C   UNL     1       6.955  -0.421  -1.520  1.00  0.00     0.047 C 
BRANCH   6   7
ATOM      7  C   UNL     1       6.803   0.802  -0.733  1.00  0.00    -0.047 A 
ATOM      8  C   UNL     1       7.885   1.371  -0.103  1.00  0.00     0.004 A 
ATOM      9  C   UNL     1       5.561   1.383  -0.630  1.00  0.00     0.004 A 
ATOM     10  C   UNL     1       7.667   2.539   0.631  1.00  0.00     0.000 A 
ATOM     11  C   UNL     1       5.347   2.538   0.097  1.00  0.00     0.000 A 
ATOM     12  C   UNL     1       6.425   3.115   0.732  1.00  0.00     0.000 A 
ENDBRANCH   6   7
ENDBRANCH   1   6
TORSDOF 4
ENDMDL
