@<TRIPOS>MOLECULE
/home/cewinharhar/GITHUB/reincatalyze/data/processed/docking_pred/2023-May-05-1615_maxeplen10_maxtrainstep1000_seadep16_gamma099_lrac9e-4_lrcr1e-3/1c0c8a91d3eae7937fa2398dc61f909c50ab5738_ligand_2.pdbqt
 12 12 0 0 0
SMALL
GASTEIGER

@<TRIPOS>ATOM
      1  C          5.0410   -0.0940    2.0230 C.3     1  UNL1        0.1270
      2  C          4.3520    1.2160    1.9540 C.2     1  UNL1        0.3030
      3  O          4.8480    2.1790    1.3190 O.2     1  UNL1       -0.2520
      4  O          3.1380    1.4140    2.5920 O.3     1  UNL1       -0.4810
      5  H          2.4080    1.9560    2.1220 H       1  UNL1        0.2960
      6  C          6.4920    0.1200    1.7130 C.3     1  UNL1        0.0470
      7  C          6.9860   -0.6820    0.5950 C.2     1  UNL1       -0.0470
      8  C          6.6610   -0.3570   -0.7020 C.2     1  UNL1        0.0040
      9  C          7.7860   -1.7710    0.8520 C.2     1  UNL1        0.0040
     10  C          7.1690   -1.1660   -1.7200 C.2     1  UNL1        0.0000
     11  C          8.2870   -2.5710   -0.1560 C.2     1  UNL1        0.0000
     12  C          7.9650   -2.2520   -1.4580 C.2     1  UNL1        0.0000
@<TRIPOS>BOND
     1    10    12    2
     2    10     8    1
     3    12    11    1
     4     8     7    2
     5    11     9    2
     6     7     9    1
     7     7     6    1
     8     3     2    2
     9     6     1    1
    10     2     1    1
    11     2     4    1
    12     5     4    1
