@<TRIPOS>MOLECULE
/home/cewinharhar/GITHUB/reincatalyze/data/processed/docking_pred/2023-May-05-1615_maxeplen10_maxtrainstep1000_seadep16_gamma099_lrac9e-4_lrcr1e-3/1c86ade130d2cc9f902dffb19ba95248752a952e_ligand_2.pdbqt
 12 12 0 0 0
SMALL
GASTEIGER

@<TRIPOS>ATOM
      1  C          5.1040   -0.1190    2.0480 C.3     1  UNL1        0.1270
      2  C          4.4170    1.1920    1.9660 C.2     1  UNL1        0.3030
      3  O          4.9290    2.1570    1.3470 O.2     1  UNL1       -0.2520
      4  O          3.1860    1.3880    2.5720 O.3     1  UNL1       -0.4810
      5  H          2.3980    1.7190    2.0100 H       1  UNL1        0.2960
      6  C          6.5510    0.0870    1.7210 C.3     1  UNL1        0.0470
      7  C          7.0160   -0.6880    0.5720 C.2     1  UNL1       -0.0470
      8  C          6.6330   -0.3520   -0.7050 C.2     1  UNL1        0.0040
      9  C          7.8490   -1.7630    0.7810 C.2     1  UNL1        0.0040
     10  C          7.1160   -1.1370   -1.7550 C.2     1  UNL1        0.0000
     11  C          8.3260   -2.5380   -0.2580 C.2     1  UNL1        0.0000
     12  C          7.9460   -2.2080   -1.5410 C.2     1  UNL1        0.0000
@<TRIPOS>BOND
     1    10    12    2
     2    10     8    1
     3    12    11    1
     4     8     7    2
     5    11     9    2
     6     7     9    1
     7     7     6    1
     8     3     2    2
     9     6     1    1
    10     2     1    1
    11     2     4    1
    12     5     4    1
