@<TRIPOS>MOLECULE
/home/cewinharhar/GITHUB/reincatalyze/data/processed/docking_pred/2023-May-05-1615_maxeplen10_maxtrainstep1000_seadep16_gamma099_lrac9e-4_lrcr1e-3/1c86ade130d2cc9f902dffb19ba95248752a952e_ligand_2.pdbqt
 12 12 0 0 0
SMALL
GASTEIGER

@<TRIPOS>ATOM
      1  C          5.9270   -0.8920    1.7680 C.3     1  UNL1        0.1270
      2  C          5.3690    0.4520    2.0470 C.2     1  UNL1        0.3030
      3  O          4.1940    0.5940    2.4680 O.2     1  UNL1       -0.2520
      4  O          6.1310    1.5920    1.8510 O.3     1  UNL1       -0.4810
      5  H          5.9430    2.1870    1.0400 H       1  UNL1        0.2960
      6  C          7.3920   -0.7440    1.4860 C.3     1  UNL1        0.0470
      7  C          7.7160   -0.6430    0.0650 C.2     1  UNL1       -0.0470
      8  C          8.8600   -0.0020   -0.3520 C.2     1  UNL1        0.0040
      9  C          6.8640   -1.2000   -0.8600 C.2     1  UNL1        0.0040
     10  C          9.1070    0.0560   -1.7250 C.2     1  UNL1        0.0000
     11  C          7.1100   -1.1420   -2.2180 C.2     1  UNL1        0.0000
     12  C          8.2530   -0.5010   -2.6430 C.2     1  UNL1        0.0000
@<TRIPOS>BOND
     1    12    11    2
     2    12    10    1
     3    11     9    1
     4    10     8    2
     5     9     7    2
     6     8     7    1
     7     7     6    1
     8     5     4    1
     9     6     1    1
    10     1     2    1
    11     4     2    1
    12     2     3    2
