MODEL 1
REMARK VINA RESULT:      -6.5      0.000      0.000
REMARK SMILES O=C(O)CCc1ccccc1
REMARK SMILES IDX 4 1 2 2 1 3 3 4 5 6 6 7 7 8 11 9 8 10 10 11 9 12
REMARK H PARENT 3 5
REMARK Flexibility Score: inf
ROOT
ATOM      1  C   UNL     1       8.312  -0.681  -2.169  1.00  0.00     0.127 C 
ENDROOT
BRANCH   1   2
ATOM      2  C   UNL     1       8.433  -1.947  -2.931  1.00  0.00     0.303 C 
ATOM      3  O   UNL     1       9.548  -2.498  -3.103  1.00  0.00    -0.252 OA
BRANCH   2   4
ATOM      4  O   UNL     1       7.315  -2.558  -3.475  1.00  0.00    -0.481 OA
ATOM      5  H   UNL     1       6.710  -2.025  -4.105  1.00  0.00     0.296 HD
ENDBRANCH   2   4
ENDBRANCH   1   2
BRANCH   1   6
ATOM      6  C   UNL     1       6.886  -0.529  -1.734  1.00  0.00     0.047 C 
BRANCH   6   7
ATOM      7  C   UNL     1       6.682  -0.697  -0.297  1.00  0.00    -0.047 A 
ATOM      8  C   UNL     1       7.287  -1.728   0.384  1.00  0.00     0.004 A 
ATOM      9  C   UNL     1       5.876   0.192   0.376  1.00  0.00     0.004 A 
ATOM     10  C   UNL     1       7.048  -1.827   1.756  1.00  0.00     0.000 A 
ATOM     11  C   UNL     1       5.640   0.092   1.732  1.00  0.00     0.000 A 
ATOM     12  C   UNL     1       6.242  -0.938   2.421  1.00  0.00     0.000 A 
ENDBRANCH   6   7
ENDBRANCH   1   6
TORSDOF 4
ENDMDL
MODEL 2
REMARK VINA RESULT:      -6.3      3.196      4.943
REMARK SMILES O=C(O)CCc1ccccc1
REMARK SMILES IDX 4 1 2 2 1 3 3 4 5 6 6 7 7 8 11 9 8 10 10 11 9 12
REMARK H PARENT 3 5
REMARK Flexibility Score: inf
ROOT
ATOM      1  C   UNL     1       5.927  -0.892   1.768  1.00  0.00     0.127 C 
ENDROOT
BRANCH   1   2
ATOM      2  C   UNL     1       5.369   0.452   2.047  1.00  0.00     0.303 C 
ATOM      3  O   UNL     1       4.194   0.594   2.468  1.00  0.00    -0.252 OA
BRANCH   2   4
ATOM      4  O   UNL     1       6.131   1.592   1.851  1.00  0.00    -0.481 OA
ATOM      5  H   UNL     1       5.943   2.187   1.040  1.00  0.00     0.296 HD
ENDBRANCH   2   4
ENDBRANCH   1   2
BRANCH   1   6
ATOM      6  C   UNL     1       7.392  -0.744   1.486  1.00  0.00     0.047 C 
BRANCH   6   7
ATOM      7  C   UNL     1       7.716  -0.643   0.065  1.00  0.00    -0.047 A 
ATOM      8  C   UNL     1       8.860  -0.002  -0.352  1.00  0.00     0.004 A 
ATOM      9  C   UNL     1       6.864  -1.200  -0.860  1.00  0.00     0.004 A 
ATOM     10  C   UNL     1       9.107   0.056  -1.725  1.00  0.00     0.000 A 
ATOM     11  C   UNL     1       7.110  -1.142  -2.218  1.00  0.00     0.000 A 
ATOM     12  C   UNL     1       8.253  -0.501  -2.643  1.00  0.00     0.000 A 
ENDBRANCH   6   7
ENDBRANCH   1   6
TORSDOF 4
ENDMDL
MODEL 3
REMARK VINA RESULT:      -6.1      3.449      5.101
REMARK SMILES O=C(O)CCc1ccccc1
REMARK SMILES IDX 4 1 2 2 1 3 3 4 5 6 6 7 7 8 11 9 8 10 10 11 9 12
REMARK H PARENT 3 5
REMARK Flexibility Score: inf
ROOT
ATOM      1  C   UNL     1       5.104  -0.119   2.048  1.00  0.00     0.127 C 
ENDROOT
BRANCH   1   2
ATOM      2  C   UNL     1       4.417   1.192   1.966  1.00  0.00     0.303 C 
ATOM      3  O   UNL     1       4.929   2.157   1.347  1.00  0.00    -0.252 OA
BRANCH   2   4
ATOM      4  O   UNL     1       3.186   1.388   2.572  1.00  0.00    -0.481 OA
ATOM      5  H   UNL     1       2.398   1.719   2.010  1.00  0.00     0.296 HD
ENDBRANCH   2   4
ENDBRANCH   1   2
BRANCH   1   6
ATOM      6  C   UNL     1       6.551   0.087   1.721  1.00  0.00     0.047 C 
BRANCH   6   7
ATOM      7  C   UNL     1       7.016  -0.688   0.572  1.00  0.00    -0.047 A 
ATOM      8  C   UNL     1       6.633  -0.352  -0.705  1.00  0.00     0.004 A 
ATOM      9  C   UNL     1       7.849  -1.763   0.781  1.00  0.00     0.004 A 
ATOM     10  C   UNL     1       7.116  -1.137  -1.755  1.00  0.00     0.000 A 
ATOM     11  C   UNL     1       8.326  -2.538  -0.258  1.00  0.00     0.000 A 
ATOM     12  C   UNL     1       7.946  -2.208  -1.541  1.00  0.00     0.000 A 
ENDBRANCH   6   7
ENDBRANCH   1   6
TORSDOF 4
ENDMDL
