@<TRIPOS>MOLECULE
/home/cewinharhar/GITHUB/reincatalyze/data/processed/docking_pred/2023-May-05-1615_maxeplen10_maxtrainstep1000_seadep16_gamma099_lrac9e-4_lrcr1e-3/1c86ade130d2cc9f902dffb19ba95248752a952e_ligand_2.pdbqt
 12 12 0 0 0
SMALL
GASTEIGER

@<TRIPOS>ATOM
      1  C          8.3120   -0.6810   -2.1690 C.3     1  UNL1        0.1270
      2  C          8.4330   -1.9470   -2.9310 C.2     1  UNL1        0.3030
      3  O          9.5480   -2.4980   -3.1030 O.2     1  UNL1       -0.2520
      4  O          7.3150   -2.5580   -3.4750 O.3     1  UNL1       -0.4810
      5  H          6.7100   -2.0250   -4.1050 H       1  UNL1        0.2960
      6  C          6.8860   -0.5290   -1.7340 C.3     1  UNL1        0.0470
      7  C          6.6820   -0.6970   -0.2970 C.2     1  UNL1       -0.0470
      8  C          7.2870   -1.7280    0.3840 C.2     1  UNL1        0.0040
      9  C          5.8760    0.1920    0.3760 C.2     1  UNL1        0.0040
     10  C          7.0480   -1.8270    1.7560 C.2     1  UNL1        0.0000
     11  C          5.6400    0.0920    1.7320 C.2     1  UNL1        0.0000
     12  C          6.2420   -0.9380    2.4210 C.2     1  UNL1        0.0000
@<TRIPOS>BOND
     1     5     4    1
     2     4     2    1
     3     3     2    2
     4     2     1    1
     5     1     6    1
     6     6     7    1
     7     7     9    2
     8     7     8    1
     9     9    11    1
    10     8    10    2
    11    11    12    2
    12    10    12    1
