MODEL 1
REMARK VINA RESULT:      -7.2      0.000      0.000
REMARK SMILES O=C(O)CCc1ccccc1
REMARK SMILES IDX 4 1 2 2 1 3 3 4 5 6 6 7 7 8 11 9 8 10 10 11 9 12
REMARK H PARENT 3 5
REMARK Flexibility Score: inf
ROOT
ATOM      1  C   UNL     1       8.416  -0.628  -2.134  1.00  0.00     0.127 C 
ENDROOT
BRANCH   1   2
ATOM      2  C   UNL     1       8.462  -1.889  -2.911  1.00  0.00     0.303 C 
ATOM      3  O   UNL     1       9.545  -2.492  -3.109  1.00  0.00    -0.252 OA
BRANCH   2   4
ATOM      4  O   UNL     1       7.306  -2.438  -3.443  1.00  0.00    -0.481 OA
ATOM      5  H   UNL     1       6.489  -1.839  -3.590  1.00  0.00     0.296 HD
ENDBRANCH   2   4
ENDBRANCH   1   2
BRANCH   1   6
ATOM      6  C   UNL     1       6.985  -0.201  -2.015  1.00  0.00     0.047 C 
BRANCH   6   7
ATOM      7  C   UNL     1       6.487  -0.167  -0.640  1.00  0.00    -0.047 A 
ATOM      8  C   UNL     1       5.770   0.913  -0.178  1.00  0.00     0.004 A 
ATOM      9  C   UNL     1       6.741  -1.232   0.192  1.00  0.00     0.004 A 
ATOM     10  C   UNL     1       5.325   0.877   1.145  1.00  0.00     0.000 A 
ATOM     11  C   UNL     1       6.300  -1.266   1.500  1.00  0.00     0.000 A 
ATOM     12  C   UNL     1       5.582  -0.188   1.971  1.00  0.00     0.000 A 
ENDBRANCH   6   7
ENDBRANCH   1   6
TORSDOF 4
ENDMDL
MODEL 2
REMARK VINA RESULT:      -6.5      3.115      4.811
REMARK SMILES O=C(O)CCc1ccccc1
REMARK SMILES IDX 4 1 2 2 1 3 3 4 5 6 6 7 7 8 11 9 8 10 10 11 9 12
REMARK H PARENT 3 5
REMARK Flexibility Score: inf
ROOT
ATOM      1  C   UNL     1       6.072   1.441   1.226  1.00  0.00     0.127 C 
ENDROOT
BRANCH   1   2
ATOM      2  C   UNL     1       5.233   0.518   2.028  1.00  0.00     0.303 C 
ATOM      3  O   UNL     1       5.651  -0.618   2.360  1.00  0.00    -0.252 OA
BRANCH   2   4
ATOM      4  O   UNL     1       3.960   0.887   2.433  1.00  0.00    -0.481 OA
ATOM      5  H   UNL     1       3.148   0.451   1.989  1.00  0.00     0.296 HD
ENDBRANCH   2   4
ENDBRANCH   1   2
BRANCH   1   6
ATOM      6  C   UNL     1       5.781   1.201  -0.224  1.00  0.00     0.047 C 
BRANCH   6   7
ATOM      7  C   UNL     1       6.877   0.565  -0.952  1.00  0.00    -0.047 A 
ATOM      8  C   UNL     1       8.163   1.043  -0.848  1.00  0.00     0.004 A 
ATOM      9  C   UNL     1       6.611  -0.526  -1.747  1.00  0.00     0.004 A 
ATOM     10  C   UNL     1       9.160   0.384  -1.571  1.00  0.00     0.000 A 
ATOM     11  C   UNL     1       7.598  -1.176  -2.462  1.00  0.00     0.000 A 
ATOM     12  C   UNL     1       8.888  -0.703  -2.363  1.00  0.00     0.000 A 
ENDBRANCH   6   7
ENDBRANCH   1   6
TORSDOF 4
ENDMDL
