@<TRIPOS>MOLECULE
/home/cewinharhar/GITHUB/reincatalyze/data/processed/docking_pred/2023-May-05-1615_maxeplen10_maxtrainstep1000_seadep16_gamma099_lrac9e-4_lrcr1e-3/1caf15995fa8372ea76f1cb48e36fe3c815c3a18_ligand_2.pdbqt
 12 12 0 0 0
SMALL
GASTEIGER

@<TRIPOS>ATOM
      1  C          8.4160   -0.6280   -2.1340 C.3     1  UNL1        0.1270
      2  C          8.4620   -1.8890   -2.9110 C.2     1  UNL1        0.3030
      3  O          9.5450   -2.4920   -3.1090 O.2     1  UNL1       -0.2520
      4  O          7.3060   -2.4380   -3.4430 O.3     1  UNL1       -0.4810
      5  H          6.4890   -1.8390   -3.5900 H       1  UNL1        0.2960
      6  C          6.9850   -0.2010   -2.0150 C.3     1  UNL1        0.0470
      7  C          6.4870   -0.1670   -0.6400 C.2     1  UNL1       -0.0470
      8  C          5.7700    0.9130   -0.1780 C.2     1  UNL1        0.0040
      9  C          6.7410   -1.2320    0.1920 C.2     1  UNL1        0.0040
     10  C          5.3250    0.8770    1.1450 C.2     1  UNL1        0.0000
     11  C          6.3000   -1.2660    1.5000 C.2     1  UNL1        0.0000
     12  C          5.5820   -0.1880    1.9710 C.2     1  UNL1        0.0000
@<TRIPOS>BOND
     1     5     4    1
     2     4     2    1
     3     3     2    2
     4     2     1    1
     5     1     6    1
     6     6     7    1
     7     7     8    2
     8     7     9    1
     9     8    10    1
    10     9    11    2
    11    10    12    2
    12    11    12    1
