@<TRIPOS>MOLECULE
/home/cewinharhar/GITHUB/reincatalyze/data/processed/docking_pred/2023-May-05-1615_maxeplen10_maxtrainstep1000_seadep16_gamma099_lrac9e-4_lrcr1e-3/1caf15995fa8372ea76f1cb48e36fe3c815c3a18_ligand_2.pdbqt
 12 12 0 0 0
SMALL
GASTEIGER

@<TRIPOS>ATOM
      1  C          6.0720    1.4410    1.2260 C.3     1  UNL1        0.1270
      2  C          5.2330    0.5180    2.0280 C.2     1  UNL1        0.3030
      3  O          5.6510   -0.6180    2.3600 O.2     1  UNL1       -0.2520
      4  O          3.9600    0.8870    2.4330 O.3     1  UNL1       -0.4810
      5  H          3.1480    0.4510    1.9890 H       1  UNL1        0.2960
      6  C          5.7810    1.2010   -0.2240 C.3     1  UNL1        0.0470
      7  C          6.8770    0.5650   -0.9520 C.2     1  UNL1       -0.0470
      8  C          8.1630    1.0430   -0.8480 C.2     1  UNL1        0.0040
      9  C          6.6110   -0.5260   -1.7470 C.2     1  UNL1        0.0040
     10  C          9.1600    0.3840   -1.5710 C.2     1  UNL1        0.0000
     11  C          7.5980   -1.1760   -2.4620 C.2     1  UNL1        0.0000
     12  C          8.8880   -0.7030   -2.3630 C.2     1  UNL1        0.0000
@<TRIPOS>BOND
     1    11    12    2
     2    11     9    1
     3    12    10    1
     4     9     7    2
     5    10     8    2
     6     7     8    1
     7     7     6    1
     8     6     1    1
     9     1     2    1
    10     5     4    1
    11     2     3    2
    12     2     4    1
