@<TRIPOS>MOLECULE
/home/cewinharhar/GITHUB/reincatalyze/data/processed/docking_pred/2023-May-05-1615_maxeplen10_maxtrainstep1000_seadep16_gamma099_lrac9e-4_lrcr1e-3/1e16add1d5649bf0b13dd0d86c7d3fc630d89625_ligand_2.pdbqt
 12 12 0 0 0
SMALL
GASTEIGER

@<TRIPOS>ATOM
      1  C          8.4190   -0.5670   -2.0270 C.3     1  UNL1        0.1270
      2  C          8.4410   -1.8220   -2.8160 C.2     1  UNL1        0.3030
      3  O          7.3830   -2.3280   -3.2630 O.2     1  UNL1       -0.2520
      4  O          9.6360   -2.4720   -3.0830 O.3     1  UNL1       -0.4810
      5  H         10.3380   -2.5530   -2.3420 H       1  UNL1        0.2960
      6  C          7.0220   -0.0260   -2.0420 C.3     1  UNL1        0.0470
      7  C          6.4390    0.1530   -0.7140 C.2     1  UNL1       -0.0470
      8  C          5.7590    1.3040   -0.3930 C.2     1  UNL1        0.0040
      9  C          6.5760   -0.8490    0.2200 C.2     1  UNL1        0.0040
     10  C          5.2270    1.4060    0.8940 C.2     1  UNL1        0.0000
     11  C          6.0500   -0.7460    1.4920 C.2     1  UNL1        0.0000
     12  C          5.3670    0.4050    1.8210 C.2     1  UNL1        0.0000
@<TRIPOS>BOND
     1     3     2    2
     2     4     2    1
     3     4     5    1
     4     2     1    1
     5     6     1    1
     6     6     7    1
     7     7     8    2
     8     7     9    1
     9     8    10    1
    10     9    11    2
    11    10    12    2
    12    11    12    1
