@<TRIPOS>MOLECULE
/home/cewinharhar/GITHUB/reincatalyze/data/processed/docking_pred/2023-May-05-1615_maxeplen10_maxtrainstep1000_seadep16_gamma099_lrac9e-4_lrcr1e-3/1e16add1d5649bf0b13dd0d86c7d3fc630d89625_ligand_2.pdbqt
 12 12 0 0 0
SMALL
GASTEIGER

@<TRIPOS>ATOM
      1  C          7.3040   -1.2400   -2.1680 C.3     1  UNL1        0.1270
      2  C          8.7610   -1.2600   -2.4380 C.2     1  UNL1        0.3030
      3  O          9.2850   -2.1760   -3.1190 O.2     1  UNL1       -0.2520
      4  O          9.5880   -0.2630   -1.9450 O.3     1  UNL1       -0.4810
      5  H          9.8530    0.5150   -2.5550 H       1  UNL1        0.2960
      6  C          7.0970   -1.3910   -0.6920 C.3     1  UNL1        0.0470
      7  C          6.3620   -0.2860   -0.0790 C.2     1  UNL1       -0.0470
      8  C          5.9390   -0.3620    1.2280 C.2     1  UNL1        0.0040
      9  C          6.0960    0.8390   -0.8250 C.2     1  UNL1        0.0040
     10  C          5.2430    0.7320    1.7480 C.2     1  UNL1        0.0000
     11  C          5.4080    1.9190   -0.3090 C.2     1  UNL1        0.0000
     12  C          4.9800    1.8510    0.9990 C.2     1  UNL1        0.0000
@<TRIPOS>BOND
     1     3     2    2
     2     5     4    1
     3     2     1    1
     4     2     4    1
     5     1     6    1
     6     9    11    1
     7     9     7    2
     8     6     7    1
     9    11    12    2
    10     7     8    1
    11    12    10    1
    12     8    10    2
