MODEL 1
REMARK VINA RESULT:      -6.8      0.000      0.000
REMARK SMILES O=C(O)CCc1ccccc1
REMARK SMILES IDX 4 1 2 2 1 3 3 4 5 6 6 7 7 8 11 9 8 10 10 11 9 12
REMARK H PARENT 3 5
REMARK Flexibility Score: inf
ROOT
ATOM      1  C   UNL     1       8.419  -0.567  -2.027  1.00  0.00     0.127 C 
ENDROOT
BRANCH   1   2
ATOM      2  C   UNL     1       8.441  -1.822  -2.816  1.00  0.00     0.303 C 
ATOM      3  O   UNL     1       7.383  -2.328  -3.263  1.00  0.00    -0.252 OA
BRANCH   2   4
ATOM      4  O   UNL     1       9.636  -2.472  -3.083  1.00  0.00    -0.481 OA
ATOM      5  H   UNL     1      10.338  -2.553  -2.342  1.00  0.00     0.296 HD
ENDBRANCH   2   4
ENDBRANCH   1   2
BRANCH   1   6
ATOM      6  C   UNL     1       7.022  -0.026  -2.042  1.00  0.00     0.047 C 
BRANCH   6   7
ATOM      7  C   UNL     1       6.439   0.153  -0.714  1.00  0.00    -0.047 A 
ATOM      8  C   UNL     1       5.759   1.304  -0.393  1.00  0.00     0.004 A 
ATOM      9  C   UNL     1       6.576  -0.849   0.220  1.00  0.00     0.004 A 
ATOM     10  C   UNL     1       5.227   1.406   0.894  1.00  0.00     0.000 A 
ATOM     11  C   UNL     1       6.050  -0.746   1.492  1.00  0.00     0.000 A 
ATOM     12  C   UNL     1       5.367   0.405   1.821  1.00  0.00     0.000 A 
ENDBRANCH   6   7
ENDBRANCH   1   6
TORSDOF 4
ENDMDL
MODEL 2
REMARK VINA RESULT:      -6.7      1.045      1.928
REMARK SMILES O=C(O)CCc1ccccc1
REMARK SMILES IDX 4 1 2 2 1 3 3 4 5 6 6 7 7 8 11 9 8 10 10 11 9 12
REMARK H PARENT 3 5
REMARK Flexibility Score: inf
ROOT
ATOM      1  C   UNL     1       7.304  -1.240  -2.168  1.00  0.00     0.127 C 
ENDROOT
BRANCH   1   2
ATOM      2  C   UNL     1       8.761  -1.260  -2.438  1.00  0.00     0.303 C 
ATOM      3  O   UNL     1       9.285  -2.176  -3.119  1.00  0.00    -0.252 OA
BRANCH   2   4
ATOM      4  O   UNL     1       9.588  -0.263  -1.945  1.00  0.00    -0.481 OA
ATOM      5  H   UNL     1       9.853   0.515  -2.555  1.00  0.00     0.296 HD
ENDBRANCH   2   4
ENDBRANCH   1   2
BRANCH   1   6
ATOM      6  C   UNL     1       7.097  -1.391  -0.692  1.00  0.00     0.047 C 
BRANCH   6   7
ATOM      7  C   UNL     1       6.362  -0.286  -0.079  1.00  0.00    -0.047 A 
ATOM      8  C   UNL     1       5.939  -0.362   1.228  1.00  0.00     0.004 A 
ATOM      9  C   UNL     1       6.096   0.839  -0.825  1.00  0.00     0.004 A 
ATOM     10  C   UNL     1       5.243   0.732   1.748  1.00  0.00     0.000 A 
ATOM     11  C   UNL     1       5.408   1.919  -0.309  1.00  0.00     0.000 A 
ATOM     12  C   UNL     1       4.980   1.851   0.999  1.00  0.00     0.000 A 
ENDBRANCH   6   7
ENDBRANCH   1   6
TORSDOF 4
ENDMDL
MODEL 3
REMARK VINA RESULT:      -6.7      3.772      4.958
REMARK SMILES O=C(O)CCc1ccccc1
REMARK SMILES IDX 4 1 2 2 1 3 3 4 5 6 6 7 7 8 11 9 8 10 10 11 9 12
REMARK H PARENT 3 5
REMARK Flexibility Score: inf
ROOT
ATOM      1  C   UNL     1       5.437   2.893   0.006  1.00  0.00     0.127 C 
ENDROOT
BRANCH   1   2
ATOM      2  C   UNL     1       6.222   3.874   0.792  1.00  0.00     0.303 C 
ATOM      3  O   UNL     1       6.891   4.775   0.228  1.00  0.00    -0.252 OA
BRANCH   2   4
ATOM      4  O   UNL     1       6.239   3.822   2.177  1.00  0.00    -0.481 OA
ATOM      5  H   UNL     1       6.983   3.301   2.649  1.00  0.00     0.296 HD
ENDBRANCH   2   4
ENDBRANCH   1   2
BRANCH   1   6
ATOM      6  C   UNL     1       4.904   1.855   0.945  1.00  0.00     0.047 C 
BRANCH   6   7
ATOM      7  C   UNL     1       5.687   0.620   0.972  1.00  0.00    -0.047 A 
ATOM      8  C   UNL     1       5.764  -0.139   2.117  1.00  0.00     0.004 A 
ATOM      9  C   UNL     1       6.348   0.219  -0.165  1.00  0.00     0.004 A 
ATOM     10  C   UNL     1       6.528  -1.306   2.071  1.00  0.00     0.000 A 
ATOM     11  C   UNL     1       7.104  -0.935  -0.209  1.00  0.00     0.000 A 
ATOM     12  C   UNL     1       7.187  -1.701   0.934  1.00  0.00     0.000 A 
ENDBRANCH   6   7
ENDBRANCH   1   6
TORSDOF 4
ENDMDL
