@<TRIPOS>MOLECULE
/home/cewinharhar/GITHUB/reincatalyze/data/processed/docking_pred/2023-May-05-1615_maxeplen10_maxtrainstep1000_seadep16_gamma099_lrac9e-4_lrcr1e-3/1e16add1d5649bf0b13dd0d86c7d3fc630d89625_ligand_2.pdbqt
 12 12 0 0 0
SMALL
GASTEIGER

@<TRIPOS>ATOM
      1  C          5.4370    2.8930    0.0060 C.3     1  UNL1        0.1270
      2  C          6.2220    3.8740    0.7920 C.2     1  UNL1        0.3030
      3  O          6.8910    4.7750    0.2280 O.2     1  UNL1       -0.2520
      4  O          6.2390    3.8220    2.1770 O.3     1  UNL1       -0.4810
      5  H          6.9830    3.3010    2.6490 H       1  UNL1        0.2960
      6  C          4.9040    1.8550    0.9450 C.3     1  UNL1        0.0470
      7  C          5.6870    0.6200    0.9720 C.2     1  UNL1       -0.0470
      8  C          5.7640   -0.1390    2.1170 C.2     1  UNL1        0.0040
      9  C          6.3480    0.2190   -0.1650 C.2     1  UNL1        0.0040
     10  C          6.5280   -1.3060    2.0710 C.2     1  UNL1        0.0000
     11  C          7.1040   -0.9350   -0.2090 C.2     1  UNL1        0.0000
     12  C          7.1870   -1.7010    0.9340 C.2     1  UNL1        0.0000
@<TRIPOS>BOND
     1    11     9    1
     2    11    12    2
     3     9     7    2
     4     1     2    1
     5     1     6    1
     6     3     2    2
     7     2     4    1
     8    12    10    1
     9     6     7    1
    10     7     8    1
    11    10     8    2
    12     4     5    1
