@<TRIPOS>MOLECULE
/home/cewinharhar/GITHUB/reincatalyze/data/processed/docking_pred/2023-May-05-1615_maxeplen10_maxtrainstep1000_seadep16_gamma099_lrac9e-4_lrcr1e-3/1e20ac6c45a20644dde897fa0fc5711864bcd284_ligand_2.pdbqt
 12 12 0 0 0
SMALL
GASTEIGER

@<TRIPOS>ATOM
      1  C          8.4040   -0.6610   -2.0700 C.3     1  UNL1        0.1270
      2  C          8.3740   -1.9020   -2.8790 C.2     1  UNL1        0.3030
      3  O          7.2880   -2.4130   -3.2470 O.2     1  UNL1       -0.2520
      4  O          9.5490   -2.5350   -3.2510 O.3     1  UNL1       -0.4810
      5  H          9.6270   -2.9330   -4.1910 H       1  UNL1        0.2960
      6  C          7.0280   -0.0670   -2.0680 C.3     1  UNL1        0.0470
      7  C          6.4550    0.1010   -0.7340 C.2     1  UNL1       -0.0470
      8  C          5.8030    1.2630   -0.3900 C.2     1  UNL1        0.0040
      9  C          6.5710   -0.9200    0.1810 C.2     1  UNL1        0.0040
     10  C          5.2790    1.3540    0.9020 C.2     1  UNL1        0.0000
     11  C          6.0530   -0.8270    1.4570 C.2     1  UNL1        0.0000
     12  C          5.4000    0.3330    1.8100 C.2     1  UNL1        0.0000
@<TRIPOS>BOND
     1     5     4    1
     2     4     2    1
     3     3     2    2
     4     2     1    1
     5     1     6    1
     6     6     7    1
     7     7     8    2
     8     7     9    1
     9     8    10    1
    10     9    11    2
    11    10    12    2
    12    11    12    1
