MODEL 1
REMARK VINA RESULT:      -5.5      0.000      0.000
REMARK SMILES O=C(O)CCc1ccccc1
REMARK SMILES IDX 4 1 2 2 1 3 3 4 5 6 6 7 7 8 11 9 8 10 10 11 9 12
REMARK H PARENT 3 5
REMARK Flexibility Score: inf
ROOT
ATOM      1  C   UNL     1       6.330  -0.528   2.734  1.00  0.00     0.127 C 
ENDROOT
BRANCH   1   2
ATOM      2  C   UNL     1       7.096  -1.488   1.905  1.00  0.00     0.303 C 
ATOM      3  O   UNL     1       8.263  -1.228   1.519  1.00  0.00    -0.252 OA
BRANCH   2   4
ATOM      4  O   UNL     1       6.544  -2.703   1.532  1.00  0.00    -0.481 OA
ATOM      5  H   UNL     1       6.342  -3.403   2.251  1.00  0.00     0.296 HD
ENDBRANCH   2   4
ENDBRANCH   1   2
BRANCH   1   6
ATOM      6  C   UNL     1       5.223   0.038   1.897  1.00  0.00     0.047 C 
BRANCH   6   7
ATOM      7  C   UNL     1       5.532   1.337   1.303  1.00  0.00    -0.047 A 
ATOM      8  C   UNL     1       4.894   1.757   0.158  1.00  0.00     0.004 A 
ATOM      9  C   UNL     1       6.471   2.144   1.903  1.00  0.00     0.004 A 
ATOM     10  C   UNL     1       5.238   3.010  -0.353  1.00  0.00     0.000 A 
ATOM     11  C   UNL     1       6.810   3.383   1.396  1.00  0.00     0.000 A 
ATOM     12  C   UNL     1       6.176   3.810   0.249  1.00  0.00     0.000 A 
ENDBRANCH   6   7
ENDBRANCH   1   6
TORSDOF 4
ENDMDL
MODEL 2
REMARK VINA RESULT:      -3.8     11.779     14.329
REMARK SMILES O=C(O)CCc1ccccc1
REMARK SMILES IDX 4 1 2 2 1 3 3 4 5 6 6 7 7 8 11 9 8 10 10 11 9 12
REMARK H PARENT 3 5
REMARK Flexibility Score: inf
ROOT
ATOM      1  C   UNL     1       7.895  -6.504  11.003  1.00  0.00     0.127 C 
ENDROOT
BRANCH   1   2
ATOM      2  C   UNL     1       8.299  -5.079  11.042  1.00  0.00     0.303 C 
ATOM      3  O   UNL     1       7.703  -4.214  10.353  1.00  0.00    -0.252 OA
BRANCH   2   4
ATOM      4  O   UNL     1       9.351  -4.660  11.841  1.00  0.00    -0.481 OA
ATOM      5  H   UNL     1       9.493  -5.102  12.754  1.00  0.00     0.296 HD
ENDBRANCH   2   4
ENDBRANCH   1   2
BRANCH   1   6
ATOM      6  C   UNL     1       8.545  -7.209  12.155  1.00  0.00     0.047 C 
BRANCH   6   7
ATOM      7  C   UNL     1       9.408  -8.321  11.761  1.00  0.00    -0.047 A 
ATOM      8  C   UNL     1      10.314  -8.178  10.735  1.00  0.00     0.004 A 
ATOM      9  C   UNL     1       9.308  -9.518  12.430  1.00  0.00     0.004 A 
ATOM     10  C   UNL     1      11.108  -9.282  10.414  1.00  0.00     0.000 A 
ATOM     11  C   UNL     1      10.093 -10.609  12.110  1.00  0.00     0.000 A 
ATOM     12  C   UNL     1      11.002 -10.475  11.084  1.00  0.00     0.000 A 
ENDBRANCH   6   7
ENDBRANCH   1   6
TORSDOF 4
ENDMDL
MODEL 3
REMARK VINA RESULT:      -3.7     11.960     13.490
REMARK SMILES O=C(O)CCc1ccccc1
REMARK SMILES IDX 4 1 2 2 1 3 3 4 5 6 6 7 7 8 11 9 8 10 10 11 9 12
REMARK H PARENT 3 5
REMARK Flexibility Score: inf
ROOT
ATOM      1  C   UNL     1       8.172  -6.138  11.436  1.00  0.00     0.127 C 
ENDROOT
BRANCH   1   2
ATOM      2  C   UNL     1       8.263  -4.669  11.601  1.00  0.00     0.303 C 
ATOM      3  O   UNL     1       7.480  -3.896  10.996  1.00  0.00    -0.252 OA
BRANCH   2   4
ATOM      4  O   UNL     1       9.220  -4.106  12.431  1.00  0.00    -0.481 OA
ATOM      5  H   UNL     1       9.074  -3.159  12.793  1.00  0.00     0.296 HD
ENDBRANCH   2   4
ENDBRANCH   1   2
BRANCH   1   6
ATOM      6  C   UNL     1       8.900  -6.517  10.182  1.00  0.00     0.047 C 
BRANCH   6   7
ATOM      7  C   UNL     1      10.168  -7.206  10.416  1.00  0.00    -0.047 A 
ATOM      8  C   UNL     1      10.219  -8.578  10.497  1.00  0.00     0.004 A 
ATOM      9  C   UNL     1      11.319  -6.464  10.553  1.00  0.00     0.004 A 
ATOM     10  C   UNL     1      11.465  -9.168  10.722  1.00  0.00     0.000 A 
ATOM     11  C   UNL     1      12.550  -7.049  10.775  1.00  0.00     0.000 A 
ATOM     12  C   UNL     1      12.610  -8.423  10.858  1.00  0.00     0.000 A 
ENDBRANCH   6   7
ENDBRANCH   1   6
TORSDOF 4
ENDMDL
MODEL 4
REMARK VINA RESULT:      -3.6     12.137     13.190
REMARK SMILES O=C(O)CCc1ccccc1
REMARK SMILES IDX 4 1 2 2 1 3 3 4 5 6 6 7 7 8 11 9 8 10 10 11 9 12
REMARK H PARENT 3 5
REMARK Flexibility Score: inf
ROOT
ATOM      1  C   UNL     1      12.430  -7.797  10.503  1.00  0.00     0.127 C 
ENDROOT
BRANCH   1   2
ATOM      2  C   UNL     1      13.692  -7.698   9.733  1.00  0.00     0.303 C 
ATOM      3  O   UNL     1      14.808  -7.831  10.292  1.00  0.00    -0.252 OA
BRANCH   2   4
ATOM      4  O   UNL     1      13.674  -7.455   8.369  1.00  0.00    -0.481 OA
ATOM      5  H   UNL     1      13.342  -6.550   8.025  1.00  0.00     0.296 HD
ENDBRANCH   2   4
ENDBRANCH   1   2
BRANCH   1   6
ATOM      6  C   UNL     1      12.147  -6.459  11.116  1.00  0.00     0.047 C 
BRANCH   6   7
ATOM      7  C   UNL     1      10.728  -6.111  11.155  1.00  0.00    -0.047 A 
ATOM      8  C   UNL     1       9.847  -6.646  10.244  1.00  0.00     0.004 A 
ATOM      9  C   UNL     1      10.276  -5.240  12.120  1.00  0.00     0.004 A 
ATOM     10  C   UNL     1       8.506  -6.270  10.341  1.00  0.00     0.000 A 
ATOM     11  C   UNL     1       8.949  -4.870  12.214  1.00  0.00     0.000 A 
ATOM     12  C   UNL     1       8.061  -5.400  11.304  1.00  0.00     0.000 A 
ENDBRANCH   6   7
ENDBRANCH   1   6
TORSDOF 4
ENDMDL
