@<TRIPOS>MOLECULE
/home/cewinharhar/GITHUB/reincatalyze/data/processed/docking_pred/2023-May-05-1615_maxeplen10_maxtrainstep1000_seadep16_gamma099_lrac9e-4_lrcr1e-3/1e8ffecbec14ce573bf52adb8829230239be76a8_ligand_2.pdbqt
 12 12 0 0 0
SMALL
GASTEIGER

@<TRIPOS>ATOM
      1  C         12.4300   -7.7970   10.5030 C.3     1  UNL1        0.1270
      2  C         13.6920   -7.6980    9.7330 C.2     1  UNL1        0.3030
      3  O         14.8080   -7.8310   10.2920 O.2     1  UNL1       -0.2520
      4  O         13.6740   -7.4550    8.3690 O.3     1  UNL1       -0.4810
      5  H         13.3420   -6.5500    8.0250 H       1  UNL1        0.2960
      6  C         12.1470   -6.4590   11.1160 C.3     1  UNL1        0.0470
      7  C         10.7280   -6.1110   11.1550 C.2     1  UNL1       -0.0470
      8  C          9.8470   -6.6460   10.2440 C.2     1  UNL1        0.0040
      9  C         10.2760   -5.2400   12.1200 C.2     1  UNL1        0.0040
     10  C          8.5060   -6.2700   10.3410 C.2     1  UNL1        0.0000
     11  C          8.9490   -4.8700   12.2140 C.2     1  UNL1        0.0000
     12  C          8.0610   -5.4000   11.3040 C.2     1  UNL1        0.0000
@<TRIPOS>BOND
     1     5     4    1
     2     4     2    1
     3     2     3    2
     4     2     1    1
     5     8    10    1
     6     8     7    2
     7    10    12    2
     8     1     6    1
     9     6     7    1
    10     7     9    1
    11    12    11    1
    12     9    11    2
