@<TRIPOS>MOLECULE
/home/cewinharhar/GITHUB/reincatalyze/data/processed/docking_pred/2023-May-05-1615_maxeplen10_maxtrainstep1000_seadep16_gamma099_lrac9e-4_lrcr1e-3/1e8ffecbec14ce573bf52adb8829230239be76a8_ligand_2.pdbqt
 12 12 0 0 0
SMALL
GASTEIGER

@<TRIPOS>ATOM
      1  C          7.8950   -6.5040   11.0030 C.3     1  UNL1        0.1270
      2  C          8.2990   -5.0790   11.0420 C.2     1  UNL1        0.3030
      3  O          7.7030   -4.2140   10.3530 O.2     1  UNL1       -0.2520
      4  O          9.3510   -4.6600   11.8410 O.3     1  UNL1       -0.4810
      5  H          9.4930   -5.1020   12.7540 H       1  UNL1        0.2960
      6  C          8.5450   -7.2090   12.1550 C.3     1  UNL1        0.0470
      7  C          9.4080   -8.3210   11.7610 C.2     1  UNL1       -0.0470
      8  C         10.3140   -8.1780   10.7350 C.2     1  UNL1        0.0040
      9  C          9.3080   -9.5180   12.4300 C.2     1  UNL1        0.0040
     10  C         11.1080   -9.2820   10.4140 C.2     1  UNL1        0.0000
     11  C         10.0930  -10.6090   12.1100 C.2     1  UNL1        0.0000
     12  C         11.0020  -10.4750   11.0840 C.2     1  UNL1        0.0000
@<TRIPOS>BOND
     1     3     2    2
     2    10     8    1
     3    10    12    2
     4     8     7    2
     5     1     2    1
     6     1     6    1
     7     2     4    1
     8    12    11    1
     9     7     6    1
    10     7     9    1
    11     4     5    1
    12    11     9    2
