@<TRIPOS>MOLECULE
/home/cewinharhar/GITHUB/reincatalyze/data/processed/docking_pred/2023-May-05-1615_maxeplen10_maxtrainstep1000_seadep16_gamma099_lrac9e-4_lrcr1e-3/1e8ffecbec14ce573bf52adb8829230239be76a8_ligand_2.pdbqt
 12 12 0 0 0
SMALL
GASTEIGER

@<TRIPOS>ATOM
      1  C          6.3300   -0.5280    2.7340 C.3     1  UNL1        0.1270
      2  C          7.0960   -1.4880    1.9050 C.2     1  UNL1        0.3030
      3  O          8.2630   -1.2280    1.5190 O.2     1  UNL1       -0.2520
      4  O          6.5440   -2.7030    1.5320 O.3     1  UNL1       -0.4810
      5  H          6.3420   -3.4030    2.2510 H       1  UNL1        0.2960
      6  C          5.2230    0.0380    1.8970 C.3     1  UNL1        0.0470
      7  C          5.5320    1.3370    1.3030 C.2     1  UNL1       -0.0470
      8  C          4.8940    1.7570    0.1580 C.2     1  UNL1        0.0040
      9  C          6.4710    2.1440    1.9030 C.2     1  UNL1        0.0040
     10  C          5.2380    3.0100   -0.3530 C.2     1  UNL1        0.0000
     11  C          6.8100    3.3830    1.3960 C.2     1  UNL1        0.0000
     12  C          6.1760    3.8100    0.2490 C.2     1  UNL1        0.0000
@<TRIPOS>BOND
     1    10     8    1
     2    10    12    2
     3     8     7    2
     4    12    11    1
     5     7     6    1
     6     7     9    1
     7    11     9    2
     8     3     2    2
     9     4     2    1
    10     4     5    1
    11     6     1    1
    12     2     1    1
