@<TRIPOS>MOLECULE
/home/cewinharhar/GITHUB/reincatalyze/data/processed/docking_pred/2023-May-05-1615_maxeplen10_maxtrainstep1000_seadep16_gamma099_lrac9e-4_lrcr1e-3/1e8ffecbec14ce573bf52adb8829230239be76a8_ligand_2.pdbqt
 12 12 0 0 0
SMALL
GASTEIGER

@<TRIPOS>ATOM
      1  C          8.1720   -6.1380   11.4360 C.3     1  UNL1        0.1270
      2  C          8.2630   -4.6690   11.6010 C.2     1  UNL1        0.3030
      3  O          7.4800   -3.8960   10.9960 O.2     1  UNL1       -0.2520
      4  O          9.2200   -4.1060   12.4310 O.3     1  UNL1       -0.4810
      5  H          9.0740   -3.1590   12.7930 H       1  UNL1        0.2960
      6  C          8.9000   -6.5170   10.1820 C.3     1  UNL1        0.0470
      7  C         10.1680   -7.2060   10.4160 C.2     1  UNL1       -0.0470
      8  C         10.2190   -8.5780   10.4970 C.2     1  UNL1        0.0040
      9  C         11.3190   -6.4640   10.5530 C.2     1  UNL1        0.0040
     10  C         11.4650   -9.1680   10.7220 C.2     1  UNL1        0.0000
     11  C         12.5500   -7.0490   10.7750 C.2     1  UNL1        0.0000
     12  C         12.6100   -8.4230   10.8580 C.2     1  UNL1        0.0000
@<TRIPOS>BOND
     1     6     7    1
     2     6     1    1
     3     7     8    2
     4     7     9    1
     5     8    10    1
     6     9    11    2
     7    10    12    2
     8    11    12    1
     9     3     2    2
    10     1     2    1
    11     2     4    1
    12     4     5    1
