@<TRIPOS>MOLECULE
/home/cewinharhar/GITHUB/reincatalyze/data/processed/docking_pred/2023-May-05-1615_maxeplen10_maxtrainstep1000_seadep16_gamma099_lrac9e-4_lrcr1e-3/1f774135605f6656ff2aa9e322f53f2a679c664c_ligand_2.pdbqt
 12 12 0 0 0
SMALL
GASTEIGER

@<TRIPOS>ATOM
      1  C          8.2400   -0.4790   -2.3490 C.3     1  UNL1        0.1270
      2  C          8.3710   -1.8210   -2.9630 C.2     1  UNL1        0.3030
      3  O          9.4880   -2.3880   -3.0570 O.2     1  UNL1       -0.2520
      4  O          7.2600   -2.4890   -3.4540 O.3     1  UNL1       -0.4810
      5  H          7.2210   -2.7320   -4.4480 H       1  UNL1        0.2960
      6  C          7.0270   -0.4810   -1.4690 C.3     1  UNL1        0.0470
      7  C          6.8390    0.7570   -0.7140 C.2     1  UNL1       -0.0470
      8  C          7.8970    1.3580   -0.0720 C.2     1  UNL1        0.0040
      9  C          5.5860    1.3220   -0.6530 C.2     1  UNL1        0.0040
     10  C          7.6440    2.5390    0.6290 C.2     1  UNL1        0.0000
     11  C          5.3370    2.4890    0.0410 C.2     1  UNL1        0.0000
     12  C          6.3910    3.0970    0.6880 C.2     1  UNL1        0.0000
@<TRIPOS>BOND
     1     5     4    1
     2     4     2    1
     3     3     2    2
     4     2     1    1
     5     1     6    1
     6     6     7    1
     7     7     9    2
     8     7     8    1
     9     9    11    1
    10     8    10    2
    11    11    12    2
    12    10    12    1
