@<TRIPOS>MOLECULE
/home/cewinharhar/GITHUB/reincatalyze/data/processed/docking_pred/2023-May-05-1615_maxeplen10_maxtrainstep1000_seadep16_gamma099_lrac9e-4_lrcr1e-3/2037f81c995398ea407fbfc0a5ecaefc5001139a_ligand_2.pdbqt
 12 12 0 0 0
SMALL
GASTEIGER

@<TRIPOS>ATOM
      1  C          8.4380   -0.6470   -2.1340 C.3     1  UNL1        0.1270
      2  C          8.4890   -1.9220   -2.8870 C.2     1  UNL1        0.3030
      3  O          9.5720   -2.5350   -3.0570 O.2     1  UNL1       -0.2520
      4  O          7.3390   -2.4750   -3.4260 O.3     1  UNL1       -0.4810
      5  H          6.7630   -1.9140   -4.0600 H       1  UNL1        0.2960
      6  C          7.0230   -0.1550   -2.1360 C.3     1  UNL1        0.0470
      7  C          6.4690    0.0680   -0.8020 C.2     1  UNL1       -0.0470
      8  C          5.8220    1.2430   -0.4970 C.2     1  UNL1        0.0040
      9  C          6.6000   -0.9140    0.1520 C.2     1  UNL1        0.0040
     10  C          5.3170    1.3880    0.7980 C.2     1  UNL1        0.0000
     11  C          6.1000   -0.7690    1.4310 C.2     1  UNL1        0.0000
     12  C          5.4510    0.4050    1.7460 C.2     1  UNL1        0.0000
@<TRIPOS>BOND
     1     5     4    1
     2     4     2    1
     3     3     2    2
     4     2     1    1
     5     6     1    1
     6     6     7    1
     7     7     8    2
     8     7     9    1
     9     8    10    1
    10     9    11    2
    11    10    12    2
    12    11    12    1
