@<TRIPOS>MOLECULE
/home/cewinharhar/GITHUB/reincatalyze/data/processed/docking_pred/2023-May-05-1615_maxeplen10_maxtrainstep1000_seadep16_gamma099_lrac9e-4_lrcr1e-3/21195065f8807259401ec3420f3b6dd683f2acc0_ligand_2.pdbqt
 12 12 0 0 0
SMALL
GASTEIGER

@<TRIPOS>ATOM
      1  C          8.4030   -0.6600   -2.0710 C.3     1  UNL1        0.1270
      2  C          8.3720   -1.9050   -2.8740 C.2     1  UNL1        0.3030
      3  O          7.2860   -2.4090   -3.2530 O.2     1  UNL1       -0.2520
      4  O          9.5460   -2.5500   -3.2300 O.3     1  UNL1       -0.4810
      5  H          9.9010   -2.4530   -4.1860 H       1  UNL1        0.2960
      6  C          7.0270   -0.0690   -2.0670 C.3     1  UNL1        0.0470
      7  C          6.4570    0.1020   -0.7310 C.2     1  UNL1       -0.0470
      8  C          5.8020    1.2620   -0.3890 C.2     1  UNL1        0.0040
      9  C          6.5800   -0.9160    0.1860 C.2     1  UNL1        0.0040
     10  C          5.2810    1.3550    0.9040 C.2     1  UNL1        0.0000
     11  C          6.0660   -0.8220    1.4640 C.2     1  UNL1        0.0000
     12  C          5.4090    0.3370    1.8150 C.2     1  UNL1        0.0000
@<TRIPOS>BOND
     1     5     4    1
     2     3     2    2
     3     4     2    1
     4     2     1    1
     5     1     6    1
     6     6     7    1
     7     7     8    2
     8     7     9    1
     9     8    10    1
    10     9    11    2
    11    10    12    2
    12    11    12    1
