@<TRIPOS>MOLECULE
/home/cewinharhar/GITHUB/reincatalyze/data/processed/docking_pred/2023-May-05-1615_maxeplen10_maxtrainstep1000_seadep16_gamma099_lrac9e-4_lrcr1e-3/22478e644e92021fed45641255b53d2cc77f0790_ligand_2.pdbqt
 12 12 0 0 0
SMALL
GASTEIGER

@<TRIPOS>ATOM
      1  C          8.4040   -0.6540   -2.0790 C.3     1  UNL1        0.1270
      2  C          8.3730   -1.9020   -2.8770 C.2     1  UNL1        0.3030
      3  O          7.2870   -2.4100   -3.2500 O.2     1  UNL1       -0.2520
      4  O          9.5470   -2.5460   -3.2340 O.3     1  UNL1       -0.4810
      5  H         10.3010   -2.6300   -2.5470 H       1  UNL1        0.2960
      6  C          7.0250   -0.0660   -2.0720 C.3     1  UNL1        0.0470
      7  C          6.4580    0.1020   -0.7350 C.2     1  UNL1       -0.0470
      8  C          5.8040    1.2620   -0.3900 C.2     1  UNL1        0.0040
      9  C          6.5820   -0.9170    0.1800 C.2     1  UNL1        0.0040
     10  C          5.2850    1.3530    0.9040 C.2     1  UNL1        0.0000
     11  C          6.0700   -0.8250    1.4590 C.2     1  UNL1        0.0000
     12  C          5.4140    0.3330    1.8140 C.2     1  UNL1        0.0000
@<TRIPOS>BOND
     1     3     2    2
     2     4     2    1
     3     4     5    1
     4     2     1    1
     5     1     6    1
     6     6     7    1
     7     7     8    2
     8     7     9    1
     9     8    10    1
    10     9    11    2
    11    10    12    2
    12    11    12    1
