@<TRIPOS>MOLECULE
/home/cewinharhar/GITHUB/reincatalyze/data/processed/docking_pred/2023-May-05-1615_maxeplen10_maxtrainstep1000_seadep16_gamma099_lrac9e-4_lrcr1e-3/22478e644e92021fed45641255b53d2cc77f0790_ligand_2.pdbqt
 12 12 0 0 0
SMALL
GASTEIGER

@<TRIPOS>ATOM
      1  C          8.0090   -1.5150    2.2360 C.3     1  UNL1        0.1270
      2  C          8.8550   -2.5350    1.5720 C.2     1  UNL1        0.3030
      3  O         10.0270   -2.7630    1.9630 O.2     1  UNL1       -0.2520
      4  O          8.3750   -3.2670    0.4990 O.3     1  UNL1       -0.4810
      5  H          8.4600   -4.2880    0.5100 H       1  UNL1        0.2960
      6  C          6.6270   -1.6050    1.6630 C.3     1  UNL1        0.0470
      7  C          6.1810   -0.3850    0.9930 C.2     1  UNL1       -0.0470
      8  C          5.4130    0.5420    1.6580 C.2     1  UNL1        0.0040
      9  C          6.5400   -0.1690   -0.3180 C.2     1  UNL1        0.0040
     10  C          5.0240    1.6850    0.9560 C.2     1  UNL1        0.0000
     11  C          6.1540    0.9610   -1.0110 C.2     1  UNL1        0.0000
     12  C          5.3840    1.8940   -0.3510 C.2     1  UNL1        0.0000
@<TRIPOS>BOND
     1    11    12    2
     2    11     9    1
     3    12    10    1
     4     9     7    2
     5     4     5    1
     6     4     2    1
     7    10     8    2
     8     7     8    1
     9     7     6    1
    10     2     3    2
    11     2     1    1
    12     6     1    1
