@<TRIPOS>MOLECULE
/home/cewinharhar/GITHUB/reincatalyze/data/processed/docking_pred/2023-May-05-1615_maxeplen10_maxtrainstep1000_seadep16_gamma099_lrac9e-4_lrcr1e-3/225d7738cc918e3754e3779366d54ccb252183f1_ligand_2.pdbqt
 12 12 0 0 0
SMALL
GASTEIGER

@<TRIPOS>ATOM
      1  C          7.2800   -1.2930   -2.1290 C.3     1  UNL1        0.1270
      2  C          8.7140   -1.3450   -2.4960 C.2     1  UNL1        0.3030
      3  O          9.5250   -0.4830   -2.0770 O.2     1  UNL1       -0.2520
      4  O          9.2020   -2.3510   -3.3150 O.3     1  UNL1       -0.4810
      5  H          9.2040   -2.2140   -4.3300 H       1  UNL1        0.2960
      6  C          7.1720   -1.3720   -0.6370 C.3     1  UNL1        0.0470
      7  C          6.3960   -0.2870   -0.0390 C.2     1  UNL1       -0.0470
      8  C          5.9240   -0.3870    1.2490 C.2     1  UNL1        0.0040
      9  C          6.1410    0.8440   -0.7800 C.2     1  UNL1        0.0040
     10  C          5.1900    0.6880    1.7560 C.2     1  UNL1        0.0000
     11  C          5.4150    1.9050   -0.2770 C.2     1  UNL1        0.0000
     12  C          4.9380    1.8130    1.0120 C.2     1  UNL1        0.0000
@<TRIPOS>BOND
     1     5     4    1
     2     4     2    1
     3     2     1    1
     4     2     3    2
     5     1     6    1
     6     9    11    1
     7     9     7    2
     8     6     7    1
     9    11    12    2
    10     7     8    1
    11    12    10    1
    12     8    10    2
