@<TRIPOS>MOLECULE
/home/cewinharhar/GITHUB/reincatalyze/data/processed/docking_pred/2023-May-05-1615_maxeplen10_maxtrainstep1000_seadep16_gamma099_lrac9e-4_lrcr1e-3/225d7738cc918e3754e3779366d54ccb252183f1_ligand_2.pdbqt
 12 12 0 0 0
SMALL
GASTEIGER

@<TRIPOS>ATOM
      1  C          8.4010   -0.6540   -2.0780 C.3     1  UNL1        0.1270
      2  C          8.3700   -1.9030   -2.8750 C.2     1  UNL1        0.3030
      3  O          7.2840   -2.4070   -3.2530 O.2     1  UNL1       -0.2520
      4  O          9.5440   -2.5500   -3.2270 O.3     1  UNL1       -0.4810
      5  H          9.5070   -3.3270   -3.8930 H       1  UNL1        0.2960
      6  C          7.0230   -0.0660   -2.0710 C.3     1  UNL1        0.0470
      7  C          6.4560    0.1040   -0.7340 C.2     1  UNL1       -0.0470
      8  C          5.7990    1.2630   -0.3920 C.2     1  UNL1        0.0040
      9  C          6.5850   -0.9120    0.1840 C.2     1  UNL1        0.0040
     10  C          5.2820    1.3560    0.9030 C.2     1  UNL1        0.0000
     11  C          6.0730   -0.8180    1.4630 C.2     1  UNL1        0.0000
     12  C          5.4140    0.3400    1.8140 C.2     1  UNL1        0.0000
@<TRIPOS>BOND
     1     5     4    1
     2     3     2    2
     3     4     2    1
     4     2     1    1
     5     1     6    1
     6     6     7    1
     7     7     8    2
     8     7     9    1
     9     8    10    1
    10     9    11    2
    11    10    12    2
    12    11    12    1
