@<TRIPOS>MOLECULE
/home/cewinharhar/GITHUB/reincatalyze/data/processed/docking_pred/2023-May-05-1615_maxeplen10_maxtrainstep1000_seadep16_gamma099_lrac9e-4_lrcr1e-3/2368d29bb7bbfa5e31d33bb3936e2ea89938fe66_ligand_2.pdbqt
 12 12 0 0 0
SMALL
GASTEIGER

@<TRIPOS>ATOM
      1  C         13.7940    1.4460    5.0550 C.3     1  UNL1        0.1270
      2  C         14.4390    2.6600    5.6070 C.2     1  UNL1        0.3030
      3  O         14.0490    3.8090    5.2820 O.2     1  UNL1       -0.2520
      4  O         15.4940    2.5600    6.5000 O.3     1  UNL1       -0.4810
      5  H         15.3290    2.7420    7.4930 H       1  UNL1        0.2960
      6  C         13.6660    1.6130    3.5720 C.3     1  UNL1        0.0470
      7  C         12.3340    1.3100    3.0520 C.2     1  UNL1       -0.0470
      8  C         12.1460    0.2860    2.1540 C.2     1  UNL1        0.0040
      9  C         11.2620    2.0630    3.4730 C.2     1  UNL1        0.0040
     10  C         10.8460    0.0520    1.7000 C.2     1  UNL1        0.0000
     11  C          9.9770    1.8310    3.0230 C.2     1  UNL1        0.0000
     12  C          9.7800    0.8060    2.1220 C.2     1  UNL1        0.0000
@<TRIPOS>BOND
     1    10    12    2
     2    10     8    1
     3    12    11    1
     4     8     7    2
     5    11     9    2
     6     7     9    1
     7     7     6    1
     8     6     1    1
     9     1     2    1
    10     3     2    2
    11     2     4    1
    12     4     5    1
