@<TRIPOS>MOLECULE
/home/cewinharhar/GITHUB/reincatalyze/data/processed/docking_pred/2023-May-05-1615_maxeplen10_maxtrainstep1000_seadep16_gamma099_lrac9e-4_lrcr1e-3/2368d29bb7bbfa5e31d33bb3936e2ea89938fe66_ligand_2.pdbqt
 12 12 0 0 0
SMALL
GASTEIGER

@<TRIPOS>ATOM
      1  C          8.4530   -0.6590   -2.1100 C.3     1  UNL1        0.1270
      2  C          8.4740   -1.9250   -2.8800 C.2     1  UNL1        0.3030
      3  O          9.5420   -2.5600   -3.0600 O.2     1  UNL1       -0.2520
      4  O          7.3100   -2.4430   -3.4260 O.3     1  UNL1       -0.4810
      5  H          7.3610   -2.9850   -4.2930 H       1  UNL1        0.2960
      6  C          7.0400   -0.1630   -2.0580 C.3     1  UNL1        0.0470
      7  C          6.5020   -0.0410   -0.7040 C.2     1  UNL1       -0.0470
      8  C          6.6760   -1.0500    0.2150 C.2     1  UNL1        0.0040
      9  C          5.8170    1.0990   -0.3540 C.2     1  UNL1        0.0040
     10  C          6.1350   -0.8660    1.4890 C.2     1  UNL1        0.0000
     11  C          5.2830    1.2790    0.9070 C.2     1  UNL1        0.0000
     12  C          5.4520    0.2730    1.8330 C.2     1  UNL1        0.0000
@<TRIPOS>BOND
     1     5     4    1
     2     4     2    1
     3     3     2    2
     4     2     1    1
     5     1     6    1
     6     6     7    1
     7     7     9    2
     8     7     8    1
     9     9    11    1
    10     8    10    2
    11    11    12    2
    12    10    12    1
