MODEL 1
REMARK VINA RESULT:      -7.1      0.000      0.000
REMARK SMILES O=C(O)CCc1ccccc1
REMARK SMILES IDX 4 1 2 2 1 3 3 4 5 6 6 7 7 8 11 9 8 10 10 11 9 12
REMARK H PARENT 3 5
REMARK Flexibility Score: inf
ROOT
ATOM      1  C   UNL     1       8.453  -0.659  -2.110  1.00  0.00     0.127 C 
ENDROOT
BRANCH   1   2
ATOM      2  C   UNL     1       8.474  -1.925  -2.880  1.00  0.00     0.303 C 
ATOM      3  O   UNL     1       9.542  -2.560  -3.060  1.00  0.00    -0.252 OA
BRANCH   2   4
ATOM      4  O   UNL     1       7.310  -2.443  -3.426  1.00  0.00    -0.481 OA
ATOM      5  H   UNL     1       7.361  -2.985  -4.293  1.00  0.00     0.296 HD
ENDBRANCH   2   4
ENDBRANCH   1   2
BRANCH   1   6
ATOM      6  C   UNL     1       7.040  -0.163  -2.058  1.00  0.00     0.047 C 
BRANCH   6   7
ATOM      7  C   UNL     1       6.502  -0.041  -0.704  1.00  0.00    -0.047 A 
ATOM      8  C   UNL     1       6.676  -1.050   0.215  1.00  0.00     0.004 A 
ATOM      9  C   UNL     1       5.817   1.099  -0.354  1.00  0.00     0.004 A 
ATOM     10  C   UNL     1       6.135  -0.866   1.489  1.00  0.00     0.000 A 
ATOM     11  C   UNL     1       5.283   1.279   0.907  1.00  0.00     0.000 A 
ATOM     12  C   UNL     1       5.452   0.273   1.833  1.00  0.00     0.000 A 
ENDBRANCH   6   7
ENDBRANCH   1   6
TORSDOF 4
ENDMDL
MODEL 2
REMARK VINA RESULT:      -7.0      7.988      8.593
REMARK SMILES O=C(O)CCc1ccccc1
REMARK SMILES IDX 4 1 2 2 1 3 3 4 5 6 6 7 7 8 11 9 8 10 10 11 9 12
REMARK H PARENT 3 5
REMARK Flexibility Score: inf
ROOT
ATOM      1  C   UNL     1      13.794   1.446   5.055  1.00  0.00     0.127 C 
ENDROOT
BRANCH   1   2
ATOM      2  C   UNL     1      14.439   2.660   5.607  1.00  0.00     0.303 C 
ATOM      3  O   UNL     1      14.049   3.809   5.282  1.00  0.00    -0.252 OA
BRANCH   2   4
ATOM      4  O   UNL     1      15.494   2.560   6.500  1.00  0.00    -0.481 OA
ATOM      5  H   UNL     1      15.329   2.742   7.493  1.00  0.00     0.296 HD
ENDBRANCH   2   4
ENDBRANCH   1   2
BRANCH   1   6
ATOM      6  C   UNL     1      13.666   1.613   3.572  1.00  0.00     0.047 C 
BRANCH   6   7
ATOM      7  C   UNL     1      12.334   1.310   3.052  1.00  0.00    -0.047 A 
ATOM      8  C   UNL     1      12.146   0.286   2.154  1.00  0.00     0.004 A 
ATOM      9  C   UNL     1      11.262   2.063   3.473  1.00  0.00     0.004 A 
ATOM     10  C   UNL     1      10.846   0.052   1.700  1.00  0.00     0.000 A 
ATOM     11  C   UNL     1       9.977   1.831   3.023  1.00  0.00     0.000 A 
ATOM     12  C   UNL     1       9.780   0.806   2.122  1.00  0.00     0.000 A 
ENDBRANCH   6   7
ENDBRANCH   1   6
TORSDOF 4
ENDMDL
