MODEL 1
REMARK VINA RESULT:      -7.3      0.000      0.000
REMARK SMILES O=C(O)CCc1ccccc1
REMARK SMILES IDX 4 1 2 2 1 3 3 4 5 6 6 7 7 8 11 9 8 10 10 11 9 12
REMARK H PARENT 3 5
REMARK Flexibility Score: inf
ROOT
ATOM      1  C   UNL     1       8.436  -0.641  -2.138  1.00  0.00     0.127 C 
ENDROOT
BRANCH   1   2
ATOM      2  C   UNL     1       8.471  -1.903  -2.915  1.00  0.00     0.303 C 
ATOM      3  O   UNL     1       9.547  -2.524  -3.100  1.00  0.00    -0.252 OA
BRANCH   2   4
ATOM      4  O   UNL     1       7.313  -2.432  -3.461  1.00  0.00    -0.481 OA
ATOM      5  H   UNL     1       6.407  -2.040  -3.190  1.00  0.00     0.296 HD
ENDBRANCH   2   4
ENDBRANCH   1   2
BRANCH   1   6
ATOM      6  C   UNL     1       7.026  -0.136  -2.123  1.00  0.00     0.047 C 
BRANCH   6   7
ATOM      7  C   UNL     1       6.477   0.056  -0.782  1.00  0.00    -0.047 A 
ATOM      8  C   UNL     1       5.840   1.227  -0.443  1.00  0.00     0.004 A 
ATOM      9  C   UNL     1       6.601  -0.953   0.145  1.00  0.00     0.004 A 
ATOM     10  C   UNL     1       5.339   1.341   0.856  1.00  0.00     0.000 A 
ATOM     11  C   UNL     1       6.106  -0.839   1.429  1.00  0.00     0.000 A 
ATOM     12  C   UNL     1       5.467   0.332   1.776  1.00  0.00     0.000 A 
ENDBRANCH   6   7
ENDBRANCH   1   6
TORSDOF 4
ENDMDL
