@<TRIPOS>MOLECULE
/home/cewinharhar/GITHUB/reincatalyze/data/processed/docking_pred/2023-May-05-1615_maxeplen10_maxtrainstep1000_seadep16_gamma099_lrac9e-4_lrcr1e-3/24731d809f1a519c36ca3c9a2574e1987901b3bd_ligand_2.pdbqt
 12 12 0 0 0
SMALL
GASTEIGER

@<TRIPOS>ATOM
      1  C          8.4360   -0.6410   -2.1380 C.3     1  UNL1        0.1270
      2  C          8.4710   -1.9030   -2.9150 C.2     1  UNL1        0.3030
      3  O          9.5470   -2.5240   -3.1000 O.2     1  UNL1       -0.2520
      4  O          7.3130   -2.4320   -3.4610 O.3     1  UNL1       -0.4810
      5  H          6.4070   -2.0400   -3.1900 H       1  UNL1        0.2960
      6  C          7.0260   -0.1360   -2.1230 C.3     1  UNL1        0.0470
      7  C          6.4770    0.0560   -0.7820 C.2     1  UNL1       -0.0470
      8  C          5.8400    1.2270   -0.4430 C.2     1  UNL1        0.0040
      9  C          6.6010   -0.9530    0.1450 C.2     1  UNL1        0.0040
     10  C          5.3390    1.3410    0.8560 C.2     1  UNL1        0.0000
     11  C          6.1060   -0.8390    1.4290 C.2     1  UNL1        0.0000
     12  C          5.4670    0.3320    1.7760 C.2     1  UNL1        0.0000
@<TRIPOS>BOND
     1     4     5    1
     2     4     2    1
     3     3     2    2
     4     2     1    1
     5     1     6    1
     6     6     7    1
     7     7     8    2
     8     7     9    1
     9     8    10    1
    10     9    11    2
    11    10    12    2
    12    11    12    1
