@<TRIPOS>MOLECULE
/home/cewinharhar/GITHUB/reincatalyze/data/processed/docking_pred/2023-May-05-1615_maxeplen10_maxtrainstep1000_seadep16_gamma099_lrac9e-4_lrcr1e-3/2481e5cfc04dcfc4c7035fb6b8b96c3a7d203934_ligand_2.pdbqt
 12 12 0 0 0
SMALL
GASTEIGER

@<TRIPOS>ATOM
      1  C          5.0750   -0.1180    2.0320 C.3     1  UNL1        0.1270
      2  C          4.3880    1.1930    1.9690 C.2     1  UNL1        0.3030
      3  O          4.8920    2.1640    1.3510 O.2     1  UNL1       -0.2520
      4  O          3.1650    1.3850    2.5920 O.3     1  UNL1       -0.4810
      5  H          3.1240    1.4220    3.6140 H       1  UNL1        0.2960
      6  C          6.5230    0.0940    1.7110 C.3     1  UNL1        0.0470
      7  C          7.0040   -0.6970    0.5800 C.2     1  UNL1       -0.0470
      8  C          6.6330   -0.3830   -0.7070 C.2     1  UNL1        0.0040
      9  C          7.8380   -1.7660    0.8150 C.2     1  UNL1        0.0040
     10  C          7.1310   -1.1820   -1.7390 C.2     1  UNL1        0.0000
     11  C          8.3280   -2.5560   -0.2060 C.2     1  UNL1        0.0000
     12  C          7.9610   -2.2480   -1.4980 C.2     1  UNL1        0.0000
@<TRIPOS>BOND
     1    10    12    2
     2    10     8    1
     3    12    11    1
     4     8     7    2
     5    11     9    2
     6     7     9    1
     7     7     6    1
     8     3     2    2
     9     6     1    1
    10     2     1    1
    11     2     4    1
    12     4     5    1
