MODEL 1
REMARK VINA RESULT:      -6.5      0.000      0.000
REMARK SMILES O=C(O)CCc1ccccc1
REMARK SMILES IDX 4 1 2 2 1 3 3 4 5 6 6 7 7 8 11 9 8 10 10 11 9 12
REMARK H PARENT 3 5
REMARK Flexibility Score: inf
ROOT
ATOM      1  C   UNL     1       8.317  -0.695  -2.157  1.00  0.00     0.127 C 
ENDROOT
BRANCH   1   2
ATOM      2  C   UNL     1       8.438  -1.954  -2.929  1.00  0.00     0.303 C 
ATOM      3  O   UNL     1       9.553  -2.504  -3.107  1.00  0.00    -0.252 OA
BRANCH   2   4
ATOM      4  O   UNL     1       7.320  -2.561  -3.479  1.00  0.00    -0.481 OA
ATOM      5  H   UNL     1       6.591  -2.924  -2.858  1.00  0.00     0.296 HD
ENDBRANCH   2   4
ENDBRANCH   1   2
BRANCH   1   6
ATOM      6  C   UNL     1       6.889  -0.541  -1.729  1.00  0.00     0.047 C 
BRANCH   6   7
ATOM      7  C   UNL     1       6.680  -0.697  -0.291  1.00  0.00    -0.047 A 
ATOM      8  C   UNL     1       7.278  -1.726   0.399  1.00  0.00     0.004 A 
ATOM      9  C   UNL     1       5.876   0.201   0.372  1.00  0.00     0.004 A 
ATOM     10  C   UNL     1       7.034  -1.814   1.772  1.00  0.00     0.000 A 
ATOM     11  C   UNL     1       5.636   0.113   1.729  1.00  0.00     0.000 A 
ATOM     12  C   UNL     1       6.231  -0.915   2.428  1.00  0.00     0.000 A 
ENDBRANCH   6   7
ENDBRANCH   1   6
TORSDOF 4
ENDMDL
MODEL 2
REMARK VINA RESULT:      -6.3      3.191      4.945
REMARK SMILES O=C(O)CCc1ccccc1
REMARK SMILES IDX 4 1 2 2 1 3 3 4 5 6 6 7 7 8 11 9 8 10 10 11 9 12
REMARK H PARENT 3 5
REMARK Flexibility Score: inf
ROOT
ATOM      1  C   UNL     1       5.957  -0.897   1.778  1.00  0.00     0.127 C 
ENDROOT
BRANCH   1   2
ATOM      2  C   UNL     1       5.385   0.443   2.047  1.00  0.00     0.303 C 
ATOM      3  O   UNL     1       4.206   0.577   2.458  1.00  0.00    -0.252 OA
BRANCH   2   4
ATOM      4  O   UNL     1       6.140   1.589   1.852  1.00  0.00    -0.481 OA
ATOM      5  H   UNL     1       5.939   2.190   1.048  1.00  0.00     0.296 HD
ENDBRANCH   2   4
ENDBRANCH   1   2
BRANCH   1   6
ATOM      6  C   UNL     1       7.417  -0.735   1.479  1.00  0.00     0.047 C 
BRANCH   6   7
ATOM      7  C   UNL     1       7.725  -0.645   0.053  1.00  0.00    -0.047 A 
ATOM      8  C   UNL     1       8.859   0.002  -0.381  1.00  0.00     0.004 A 
ATOM      9  C   UNL     1       6.868  -1.219  -0.857  1.00  0.00     0.004 A 
ATOM     10  C   UNL     1       9.091   0.049  -1.758  1.00  0.00     0.000 A 
ATOM     11  C   UNL     1       7.098  -1.171  -2.217  1.00  0.00     0.000 A 
ATOM     12  C   UNL     1       8.231  -0.524  -2.661  1.00  0.00     0.000 A 
ENDBRANCH   6   7
ENDBRANCH   1   6
TORSDOF 4
ENDMDL
MODEL 3
REMARK VINA RESULT:      -6.1      3.462      5.111
REMARK SMILES O=C(O)CCc1ccccc1
REMARK SMILES IDX 4 1 2 2 1 3 3 4 5 6 6 7 7 8 11 9 8 10 10 11 9 12
REMARK H PARENT 3 5
REMARK Flexibility Score: inf
ROOT
ATOM      1  C   UNL     1       5.075  -0.118   2.032  1.00  0.00     0.127 C 
ENDROOT
BRANCH   1   2
ATOM      2  C   UNL     1       4.388   1.193   1.969  1.00  0.00     0.303 C 
ATOM      3  O   UNL     1       4.892   2.164   1.351  1.00  0.00    -0.252 OA
BRANCH   2   4
ATOM      4  O   UNL     1       3.165   1.385   2.592  1.00  0.00    -0.481 OA
ATOM      5  H   UNL     1       3.124   1.422   3.614  1.00  0.00     0.296 HD
ENDBRANCH   2   4
ENDBRANCH   1   2
BRANCH   1   6
ATOM      6  C   UNL     1       6.523   0.094   1.711  1.00  0.00     0.047 C 
BRANCH   6   7
ATOM      7  C   UNL     1       7.004  -0.697   0.580  1.00  0.00    -0.047 A 
ATOM      8  C   UNL     1       6.633  -0.383  -0.707  1.00  0.00     0.004 A 
ATOM      9  C   UNL     1       7.838  -1.766   0.815  1.00  0.00     0.004 A 
ATOM     10  C   UNL     1       7.131  -1.182  -1.739  1.00  0.00     0.000 A 
ATOM     11  C   UNL     1       8.328  -2.556  -0.206  1.00  0.00     0.000 A 
ATOM     12  C   UNL     1       7.961  -2.248  -1.498  1.00  0.00     0.000 A 
ENDBRANCH   6   7
ENDBRANCH   1   6
TORSDOF 4
ENDMDL
