@<TRIPOS>MOLECULE
/home/cewinharhar/GITHUB/reincatalyze/data/processed/docking_pred/2023-May-05-1615_maxeplen10_maxtrainstep1000_seadep16_gamma099_lrac9e-4_lrcr1e-3/2481e5cfc04dcfc4c7035fb6b8b96c3a7d203934_ligand_2.pdbqt
 12 12 0 0 0
SMALL
GASTEIGER

@<TRIPOS>ATOM
      1  C          8.3170   -0.6950   -2.1570 C.3     1  UNL1        0.1270
      2  C          8.4380   -1.9540   -2.9290 C.2     1  UNL1        0.3030
      3  O          9.5530   -2.5040   -3.1070 O.2     1  UNL1       -0.2520
      4  O          7.3200   -2.5610   -3.4790 O.3     1  UNL1       -0.4810
      5  H          6.5910   -2.9240   -2.8580 H       1  UNL1        0.2960
      6  C          6.8890   -0.5410   -1.7290 C.3     1  UNL1        0.0470
      7  C          6.6800   -0.6970   -0.2910 C.2     1  UNL1       -0.0470
      8  C          7.2780   -1.7260    0.3990 C.2     1  UNL1        0.0040
      9  C          5.8760    0.2010    0.3720 C.2     1  UNL1        0.0040
     10  C          7.0340   -1.8140    1.7720 C.2     1  UNL1        0.0000
     11  C          5.6360    0.1130    1.7290 C.2     1  UNL1        0.0000
     12  C          6.2310   -0.9150    2.4280 C.2     1  UNL1        0.0000
@<TRIPOS>BOND
     1     4     2    1
     2     4     5    1
     3     3     2    2
     4     2     1    1
     5     1     6    1
     6     6     7    1
     7     7     9    2
     8     7     8    1
     9     9    11    1
    10     8    10    2
    11    11    12    2
    12    10    12    1
