@<TRIPOS>MOLECULE
/home/cewinharhar/GITHUB/reincatalyze/data/processed/docking_pred/2023-May-05-1615_maxeplen10_maxtrainstep1000_seadep16_gamma099_lrac9e-4_lrcr1e-3/2481e5cfc04dcfc4c7035fb6b8b96c3a7d203934_ligand_2.pdbqt
 12 12 0 0 0
SMALL
GASTEIGER

@<TRIPOS>ATOM
      1  C          5.9570   -0.8970    1.7780 C.3     1  UNL1        0.1270
      2  C          5.3850    0.4430    2.0470 C.2     1  UNL1        0.3030
      3  O          4.2060    0.5770    2.4580 O.2     1  UNL1       -0.2520
      4  O          6.1400    1.5890    1.8520 O.3     1  UNL1       -0.4810
      5  H          5.9390    2.1900    1.0480 H       1  UNL1        0.2960
      6  C          7.4170   -0.7350    1.4790 C.3     1  UNL1        0.0470
      7  C          7.7250   -0.6450    0.0530 C.2     1  UNL1       -0.0470
      8  C          8.8590    0.0020   -0.3810 C.2     1  UNL1        0.0040
      9  C          6.8680   -1.2190   -0.8570 C.2     1  UNL1        0.0040
     10  C          9.0910    0.0490   -1.7580 C.2     1  UNL1        0.0000
     11  C          7.0980   -1.1710   -2.2170 C.2     1  UNL1        0.0000
     12  C          8.2310   -0.5240   -2.6610 C.2     1  UNL1        0.0000
@<TRIPOS>BOND
     1    12    11    2
     2    12    10    1
     3    11     9    1
     4    10     8    2
     5     9     7    2
     6     8     7    1
     7     7     6    1
     8     5     4    1
     9     6     1    1
    10     1     2    1
    11     4     2    1
    12     2     3    2
