MODEL 1
REMARK VINA RESULT:      -7.1      0.000      0.000
REMARK SMILES O=C(O)CCc1ccccc1
REMARK SMILES IDX 4 1 2 2 1 3 3 4 5 6 6 7 7 8 11 9 8 10 10 11 9 12
REMARK H PARENT 3 5
REMARK Flexibility Score: inf
ROOT
ATOM      1  C   UNL     1       8.461  -0.631  -2.122  1.00  0.00     0.127 C 
ENDROOT
BRANCH   1   2
ATOM      2  C   UNL     1       8.472  -1.901  -2.885  1.00  0.00     0.303 C 
ATOM      3  O   UNL     1       9.538  -2.537  -3.075  1.00  0.00    -0.252 OA
BRANCH   2   4
ATOM      4  O   UNL     1       7.301  -2.423  -3.412  1.00  0.00    -0.481 OA
ATOM      5  H   UNL     1       6.459  -1.842  -3.436  1.00  0.00     0.296 HD
ENDBRANCH   2   4
ENDBRANCH   1   2
BRANCH   1   6
ATOM      6  C   UNL     1       7.059  -0.103  -2.108  1.00  0.00     0.047 C 
BRANCH   6   7
ATOM      7  C   UNL     1       6.494   0.049  -0.768  1.00  0.00    -0.047 A 
ATOM      8  C   UNL     1       6.594  -0.965   0.156  1.00  0.00     0.004 A 
ATOM      9  C   UNL     1       5.859   1.224  -0.436  1.00  0.00     0.004 A 
ATOM     10  C   UNL     1       6.033  -0.750   1.417  1.00  0.00     0.000 A 
ATOM     11  C   UNL     1       5.305   1.434   0.811  1.00  0.00     0.000 A 
ATOM     12  C   UNL     1       5.400   0.423   1.742  1.00  0.00     0.000 A 
ENDBRANCH   6   7
ENDBRANCH   1   6
TORSDOF 4
ENDMDL
MODEL 2
REMARK VINA RESULT:      -6.6      1.351      2.181
REMARK SMILES O=C(O)CCc1ccccc1
REMARK SMILES IDX 4 1 2 2 1 3 3 4 5 6 6 7 7 8 11 9 8 10 10 11 9 12
REMARK H PARENT 3 5
REMARK Flexibility Score: inf
ROOT
ATOM      1  C   UNL     1       8.306  -0.603  -2.121  1.00  0.00     0.127 C 
ENDROOT
BRANCH   1   2
ATOM      2  C   UNL     1       8.324  -1.860  -2.904  1.00  0.00     0.303 C 
ATOM      3  O   UNL     1       7.258  -2.403  -3.289  1.00  0.00    -0.252 OA
BRANCH   2   4
ATOM      4  O   UNL     1       9.521  -2.474  -3.235  1.00  0.00    -0.481 OA
ATOM      5  H   UNL     1       9.506  -3.407  -3.656  1.00  0.00     0.296 HD
ENDBRANCH   2   4
ENDBRANCH   1   2
BRANCH   1   6
ATOM      6  C   UNL     1       6.958  -0.465  -1.482  1.00  0.00     0.047 C 
BRANCH   6   7
ATOM      7  C   UNL     1       6.786   0.769  -0.716  1.00  0.00    -0.047 A 
ATOM      8  C   UNL     1       5.552   1.368  -0.615  1.00  0.00     0.004 A 
ATOM      9  C   UNL     1       7.876   1.328  -0.091  1.00  0.00     0.004 A 
ATOM     10  C   UNL     1       5.462   2.544   0.133  1.00  0.00     0.000 A 
ATOM     11  C   UNL     1       7.785   2.490   0.649  1.00  0.00     0.000 A 
ATOM     12  C   UNL     1       6.553   3.097   0.754  1.00  0.00     0.000 A 
ENDBRANCH   6   7
ENDBRANCH   1   6
TORSDOF 4
ENDMDL
