@<TRIPOS>MOLECULE
/home/cewinharhar/GITHUB/reincatalyze/data/processed/docking_pred/2023-May-05-1615_maxeplen10_maxtrainstep1000_seadep16_gamma099_lrac9e-4_lrcr1e-3/25ea22f039de2039e6eb222be1b9c38742a73e8b_ligand_2.pdbqt
 12 12 0 0 0
SMALL
GASTEIGER

@<TRIPOS>ATOM
      1  C          8.4610   -0.6310   -2.1220 C.3     1  UNL1        0.1270
      2  C          8.4720   -1.9010   -2.8850 C.2     1  UNL1        0.3030
      3  O          9.5380   -2.5370   -3.0750 O.2     1  UNL1       -0.2520
      4  O          7.3010   -2.4230   -3.4120 O.3     1  UNL1       -0.4810
      5  H          6.4590   -1.8420   -3.4360 H       1  UNL1        0.2960
      6  C          7.0590   -0.1030   -2.1080 C.3     1  UNL1        0.0470
      7  C          6.4940    0.0490   -0.7680 C.2     1  UNL1       -0.0470
      8  C          6.5940   -0.9650    0.1560 C.2     1  UNL1        0.0040
      9  C          5.8590    1.2240   -0.4360 C.2     1  UNL1        0.0040
     10  C          6.0330   -0.7500    1.4170 C.2     1  UNL1        0.0000
     11  C          5.3050    1.4340    0.8110 C.2     1  UNL1        0.0000
     12  C          5.4000    0.4230    1.7420 C.2     1  UNL1        0.0000
@<TRIPOS>BOND
     1     5     4    1
     2     4     2    1
     3     3     2    2
     4     2     1    1
     5     1     6    1
     6     6     7    1
     7     7     9    2
     8     7     8    1
     9     9    11    1
    10     8    10    2
    11    11    12    2
    12    10    12    1
