@<TRIPOS>MOLECULE
/home/cewinharhar/GITHUB/reincatalyze/data/processed/docking_pred/2023-May-05-1615_maxeplen10_maxtrainstep1000_seadep16_gamma099_lrac9e-4_lrcr1e-3/25ea22f039de2039e6eb222be1b9c38742a73e8b_ligand_2.pdbqt
 12 12 0 0 0
SMALL
GASTEIGER

@<TRIPOS>ATOM
      1  C          8.3060   -0.6030   -2.1210 C.3     1  UNL1        0.1270
      2  C          8.3240   -1.8600   -2.9040 C.2     1  UNL1        0.3030
      3  O          7.2580   -2.4030   -3.2890 O.2     1  UNL1       -0.2520
      4  O          9.5210   -2.4740   -3.2350 O.3     1  UNL1       -0.4810
      5  H          9.5060   -3.4070   -3.6560 H       1  UNL1        0.2960
      6  C          6.9580   -0.4650   -1.4820 C.3     1  UNL1        0.0470
      7  C          6.7860    0.7690   -0.7160 C.2     1  UNL1       -0.0470
      8  C          5.5520    1.3680   -0.6150 C.2     1  UNL1        0.0040
      9  C          7.8760    1.3280   -0.0910 C.2     1  UNL1        0.0040
     10  C          5.4620    2.5440    0.1330 C.2     1  UNL1        0.0000
     11  C          7.7850    2.4900    0.6490 C.2     1  UNL1        0.0000
     12  C          6.5530    3.0970    0.7540 C.2     1  UNL1        0.0000
@<TRIPOS>BOND
     1     5     4    1
     2     3     2    2
     3     4     2    1
     4     2     1    1
     5     1     6    1
     6     6     7    1
     7     7     8    2
     8     7     9    1
     9     8    10    1
    10     9    11    2
    11    10    12    2
    12    11    12    1
