MODEL 1
REMARK VINA RESULT:      -7.1      0.000      0.000
REMARK SMILES O=C(O)CCc1ccccc1
REMARK SMILES IDX 4 1 2 2 1 3 3 4 5 6 6 7 7 8 11 9 8 10 10 11 9 12
REMARK H PARENT 3 5
REMARK Flexibility Score: inf
ROOT
ATOM      1  C   UNL     1       8.463  -0.637  -2.127  1.00  0.00     0.127 C 
ENDROOT
BRANCH   1   2
ATOM      2  C   UNL     1       8.473  -1.903  -2.897  1.00  0.00     0.303 C 
ATOM      3  O   UNL     1       9.537  -2.544  -3.082  1.00  0.00    -0.252 OA
BRANCH   2   4
ATOM      4  O   UNL     1       7.304  -2.415  -3.437  1.00  0.00    -0.481 OA
ATOM      5  H   UNL     1       6.553  -2.716  -2.810  1.00  0.00     0.296 HD
ENDBRANCH   2   4
ENDBRANCH   1   2
BRANCH   1   6
ATOM      6  C   UNL     1       7.059  -0.116  -2.095  1.00  0.00     0.047 C 
BRANCH   6   7
ATOM      7  C   UNL     1       6.499   0.003  -0.750  1.00  0.00    -0.047 A 
ATOM      8  C   UNL     1       6.619  -1.025   0.156  1.00  0.00     0.004 A 
ATOM      9  C   UNL     1       5.849   1.162  -0.394  1.00  0.00     0.004 A 
ATOM     10  C   UNL     1       6.062  -0.841   1.423  1.00  0.00     0.000 A 
ATOM     11  C   UNL     1       5.298   1.342   0.859  1.00  0.00     0.000 A 
ATOM     12  C   UNL     1       5.413   0.317   1.772  1.00  0.00     0.000 A 
ENDBRANCH   6   7
ENDBRANCH   1   6
TORSDOF 4
ENDMDL
MODEL 2
REMARK VINA RESULT:      -7.0      7.960      8.622
REMARK SMILES O=C(O)CCc1ccccc1
REMARK SMILES IDX 4 1 2 2 1 3 3 4 5 6 6 7 7 8 11 9 8 10 10 11 9 12
REMARK H PARENT 3 5
REMARK Flexibility Score: inf
ROOT
ATOM      1  C   UNL     1      13.806   1.408   4.969  1.00  0.00     0.127 C 
ENDROOT
BRANCH   1   2
ATOM      2  C   UNL     1      14.420   2.625   5.551  1.00  0.00     0.303 C 
ATOM      3  O   UNL     1      13.983   3.770   5.274  1.00  0.00    -0.252 OA
BRANCH   2   4
ATOM      4  O   UNL     1      15.496   2.533   6.418  1.00  0.00    -0.481 OA
ATOM      5  H   UNL     1      15.962   1.630   6.544  1.00  0.00     0.296 HD
ENDBRANCH   2   4
ENDBRANCH   1   2
BRANCH   1   6
ATOM      6  C   UNL     1      13.604   1.637   3.502  1.00  0.00     0.047 C 
BRANCH   6   7
ATOM      7  C   UNL     1      12.250   1.343   3.036  1.00  0.00    -0.047 A 
ATOM      8  C   UNL     1      11.177   2.079   3.482  1.00  0.00     0.004 A 
ATOM      9  C   UNL     1      12.057   0.318   2.138  1.00  0.00     0.004 A 
ATOM     10  C   UNL     1       9.912   1.743   2.993  1.00  0.00     0.000 A 
ATOM     11  C   UNL     1      10.806  -0.013   1.656  1.00  0.00     0.000 A 
ATOM     12  C   UNL     1       9.726   0.719   2.099  1.00  0.00     0.000 A 
ENDBRANCH   6   7
ENDBRANCH   1   6
TORSDOF 4
ENDMDL
MODEL 3
REMARK VINA RESULT:      -6.6      6.796      7.325
REMARK SMILES O=C(O)CCc1ccccc1
REMARK SMILES IDX 4 1 2 2 1 3 3 4 5 6 6 7 7 8 11 9 8 10 10 11 9 12
REMARK H PARENT 3 5
REMARK Flexibility Score: inf
ROOT
ATOM      1  C   UNL     1      12.767   1.708   4.224  1.00  0.00     0.127 C 
ENDROOT
BRANCH   1   2
ATOM      2  C   UNL     1      13.982   2.542   4.063  1.00  0.00     0.303 C 
ATOM      3  O   UNL     1      14.346   2.950   2.932  1.00  0.00    -0.252 OA
BRANCH   2   4
ATOM      4  O   UNL     1      14.752   2.894   5.160  1.00  0.00    -0.481 OA
ATOM      5  H   UNL     1      14.315   3.394   5.939  1.00  0.00     0.296 HD
ENDBRANCH   2   4
ENDBRANCH   1   2
BRANCH   1   6
ATOM      6  C   UNL     1      12.554   0.938   2.956  1.00  0.00     0.047 C 
BRANCH   6   7
ATOM      7  C   UNL     1      11.160   0.892   2.517  1.00  0.00    -0.047 A 
ATOM      8  C   UNL     1      10.749  -0.027   1.580  1.00  0.00     0.004 A 
ATOM      9  C   UNL     1      10.257   1.780   3.053  1.00  0.00     0.004 A 
ATOM     10  C   UNL     1       9.403  -0.015   1.207  1.00  0.00     0.000 A 
ATOM     11  C   UNL     1       8.927   1.792   2.683  1.00  0.00     0.000 A 
ATOM     12  C   UNL     1       8.507   0.874   1.745  1.00  0.00     0.000 A 
ENDBRANCH   6   7
ENDBRANCH   1   6
TORSDOF 4
ENDMDL
MODEL 4
REMARK VINA RESULT:      -6.6      1.382      2.225
REMARK SMILES O=C(O)CCc1ccccc1
REMARK SMILES IDX 4 1 2 2 1 3 3 4 5 6 6 7 7 8 11 9 8 10 10 11 9 12
REMARK H PARENT 3 5
REMARK Flexibility Score: inf
ROOT
ATOM      1  C   UNL     1       8.288  -0.572  -2.145  1.00  0.00     0.127 C 
ENDROOT
BRANCH   1   2
ATOM      2  C   UNL     1       8.311  -1.841  -2.912  1.00  0.00     0.303 C 
ATOM      3  O   UNL     1       7.248  -2.391  -3.291  1.00  0.00    -0.252 OA
BRANCH   2   4
ATOM      4  O   UNL     1       9.511  -2.455  -3.231  1.00  0.00    -0.481 OA
ATOM      5  H   UNL     1       9.630  -3.454  -3.037  1.00  0.00     0.296 HD
ENDBRANCH   2   4
ENDBRANCH   1   2
BRANCH   1   6
ATOM      6  C   UNL     1       6.966  -0.468  -1.448  1.00  0.00     0.047 C 
BRANCH   6   7
ATOM      7  C   UNL     1       6.787   0.773  -0.695  1.00  0.00    -0.047 A 
ATOM      8  C   UNL     1       5.553   1.373  -0.612  1.00  0.00     0.004 A 
ATOM      9  C   UNL     1       7.872   1.337  -0.065  1.00  0.00     0.004 A 
ATOM     10  C   UNL     1       5.455   2.555   0.126  1.00  0.00     0.000 A 
ATOM     11  C   UNL     1       7.774   2.506   0.663  1.00  0.00     0.000 A 
ATOM     12  C   UNL     1       6.541   3.114   0.752  1.00  0.00     0.000 A 
ENDBRANCH   6   7
ENDBRANCH   1   6
TORSDOF 4
ENDMDL
