@<TRIPOS>MOLECULE
/home/cewinharhar/GITHUB/reincatalyze/data/processed/docking_pred/2023-May-05-1615_maxeplen10_maxtrainstep1000_seadep16_gamma099_lrac9e-4_lrcr1e-3/25f547df8c587039729a955c6f4cb3c83005f49c_ligand_2.pdbqt
 12 12 0 0 0
SMALL
GASTEIGER

@<TRIPOS>ATOM
      1  C         13.8060    1.4080    4.9690 C.3     1  UNL1        0.1270
      2  C         14.4200    2.6250    5.5510 C.2     1  UNL1        0.3030
      3  O         13.9830    3.7700    5.2740 O.2     1  UNL1       -0.2520
      4  O         15.4960    2.5330    6.4180 O.3     1  UNL1       -0.4810
      5  H         15.9620    1.6300    6.5440 H       1  UNL1        0.2960
      6  C         13.6040    1.6370    3.5020 C.3     1  UNL1        0.0470
      7  C         12.2500    1.3430    3.0360 C.2     1  UNL1       -0.0470
      8  C         11.1770    2.0790    3.4820 C.2     1  UNL1        0.0040
      9  C         12.0570    0.3180    2.1380 C.2     1  UNL1        0.0040
     10  C          9.9120    1.7430    2.9930 C.2     1  UNL1        0.0000
     11  C         10.8060   -0.0130    1.6560 C.2     1  UNL1        0.0000
     12  C          9.7260    0.7190    2.0990 C.2     1  UNL1        0.0000
@<TRIPOS>BOND
     1    11    12    2
     2    11     9    1
     3    12    10    1
     4     9     7    2
     5    10     8    2
     6     7     8    1
     7     7     6    1
     8     6     1    1
     9     1     2    1
    10     3     2    2
    11     2     4    1
    12     4     5    1
