@<TRIPOS>MOLECULE
/home/cewinharhar/GITHUB/reincatalyze/data/processed/docking_pred/2023-May-05-1615_maxeplen10_maxtrainstep1000_seadep16_gamma099_lrac9e-4_lrcr1e-3/25f547df8c587039729a955c6f4cb3c83005f49c_ligand_2.pdbqt
 12 12 0 0 0
SMALL
GASTEIGER

@<TRIPOS>ATOM
      1  C         12.7670    1.7080    4.2240 C.3     1  UNL1        0.1270
      2  C         13.9820    2.5420    4.0630 C.2     1  UNL1        0.3030
      3  O         14.3460    2.9500    2.9320 O.2     1  UNL1       -0.2520
      4  O         14.7520    2.8940    5.1600 O.3     1  UNL1       -0.4810
      5  H         14.3150    3.3940    5.9390 H       1  UNL1        0.2960
      6  C         12.5540    0.9380    2.9560 C.3     1  UNL1        0.0470
      7  C         11.1600    0.8920    2.5170 C.2     1  UNL1       -0.0470
      8  C         10.7490   -0.0270    1.5800 C.2     1  UNL1        0.0040
      9  C         10.2570    1.7800    3.0530 C.2     1  UNL1        0.0040
     10  C          9.4030   -0.0150    1.2070 C.2     1  UNL1        0.0000
     11  C          8.9270    1.7920    2.6830 C.2     1  UNL1        0.0000
     12  C          8.5070    0.8740    1.7450 C.2     1  UNL1        0.0000
@<TRIPOS>BOND
     1    10     8    1
     2    10    12    2
     3     8     7    2
     4    12    11    1
     5     7     6    1
     6     7     9    1
     7    11     9    2
     8     3     2    2
     9     6     1    1
    10     2     1    1
    11     2     4    1
    12     4     5    1
