@<TRIPOS>MOLECULE
/home/cewinharhar/GITHUB/reincatalyze/data/processed/docking_pred/2023-May-05-1615_maxeplen10_maxtrainstep1000_seadep16_gamma099_lrac9e-4_lrcr1e-3/25f547df8c587039729a955c6f4cb3c83005f49c_ligand_2.pdbqt
 12 12 0 0 0
SMALL
GASTEIGER

@<TRIPOS>ATOM
      1  C          8.2880   -0.5720   -2.1450 C.3     1  UNL1        0.1270
      2  C          8.3110   -1.8410   -2.9120 C.2     1  UNL1        0.3030
      3  O          7.2480   -2.3910   -3.2910 O.2     1  UNL1       -0.2520
      4  O          9.5110   -2.4550   -3.2310 O.3     1  UNL1       -0.4810
      5  H          9.6300   -3.4540   -3.0370 H       1  UNL1        0.2960
      6  C          6.9660   -0.4680   -1.4480 C.3     1  UNL1        0.0470
      7  C          6.7870    0.7730   -0.6950 C.2     1  UNL1       -0.0470
      8  C          5.5530    1.3730   -0.6120 C.2     1  UNL1        0.0040
      9  C          7.8720    1.3370   -0.0650 C.2     1  UNL1        0.0040
     10  C          5.4550    2.5550    0.1260 C.2     1  UNL1        0.0000
     11  C          7.7740    2.5060    0.6630 C.2     1  UNL1        0.0000
     12  C          6.5410    3.1140    0.7520 C.2     1  UNL1        0.0000
@<TRIPOS>BOND
     1     3     2    2
     2     4     5    1
     3     4     2    1
     4     2     1    1
     5     1     6    1
     6     6     7    1
     7     7     8    2
     8     7     9    1
     9     8    10    1
    10     9    11    2
    11    10    12    2
    12    11    12    1
