@<TRIPOS>MOLECULE
/home/cewinharhar/GITHUB/reincatalyze/data/processed/docking_pred/2023-May-05-1615_maxeplen10_maxtrainstep1000_seadep16_gamma099_lrac9e-4_lrcr1e-3/25f547df8c587039729a955c6f4cb3c83005f49c_ligand_2.pdbqt
 12 12 0 0 0
SMALL
GASTEIGER

@<TRIPOS>ATOM
      1  C          8.4630   -0.6370   -2.1270 C.3     1  UNL1        0.1270
      2  C          8.4730   -1.9030   -2.8970 C.2     1  UNL1        0.3030
      3  O          9.5370   -2.5440   -3.0820 O.2     1  UNL1       -0.2520
      4  O          7.3040   -2.4150   -3.4370 O.3     1  UNL1       -0.4810
      5  H          6.5530   -2.7160   -2.8100 H       1  UNL1        0.2960
      6  C          7.0590   -0.1160   -2.0950 C.3     1  UNL1        0.0470
      7  C          6.4990    0.0030   -0.7500 C.2     1  UNL1       -0.0470
      8  C          6.6190   -1.0250    0.1560 C.2     1  UNL1        0.0040
      9  C          5.8490    1.1620   -0.3940 C.2     1  UNL1        0.0040
     10  C          6.0620   -0.8410    1.4230 C.2     1  UNL1        0.0000
     11  C          5.2980    1.3420    0.8590 C.2     1  UNL1        0.0000
     12  C          5.4130    0.3170    1.7720 C.2     1  UNL1        0.0000
@<TRIPOS>BOND
     1     4     2    1
     2     4     5    1
     3     3     2    2
     4     2     1    1
     5     1     6    1
     6     6     7    1
     7     7     9    2
     8     7     8    1
     9     9    11    1
    10     8    10    2
    11    11    12    2
    12    10    12    1
