@<TRIPOS>MOLECULE
/home/cewinharhar/GITHUB/reincatalyze/data/processed/docking_pred/2023-May-05-1615_maxeplen10_maxtrainstep1000_seadep16_gamma099_lrac9e-4_lrcr1e-3/25fd2f55844bdf9fb92a90adf0bdb598f7a2ad59_ligand_2.pdbqt
 12 12 0 0 0
SMALL
GASTEIGER

@<TRIPOS>ATOM
      1  C          8.4560   -0.6580   -2.0830 C.3     1  UNL1        0.1270
      2  C          8.4730   -1.9060   -2.8820 C.2     1  UNL1        0.3030
      3  O          9.5430   -2.5270   -3.0960 O.2     1  UNL1       -0.2520
      4  O          7.3040   -2.4210   -3.4190 O.3     1  UNL1       -0.4810
      5  H          6.7460   -1.8430   -4.0530 H       1  UNL1        0.2960
      6  C          7.0580   -0.1190   -2.0810 C.3     1  UNL1        0.0470
      7  C          6.4850    0.0430   -0.7460 C.2     1  UNL1       -0.0470
      8  C          5.8370    1.2050   -0.3940 C.2     1  UNL1        0.0040
      9  C          6.5980   -0.9840    0.1620 C.2     1  UNL1        0.0040
     10  C          5.3140    1.2900    0.8980 C.2     1  UNL1        0.0000
     11  C          6.0800   -0.8980    1.4400 C.2     1  UNL1        0.0000
     12  C          5.4300    0.2620    1.8000 C.2     1  UNL1        0.0000
@<TRIPOS>BOND
     1     5     4    1
     2     4     2    1
     3     3     2    2
     4     2     1    1
     5     1     6    1
     6     6     7    1
     7     7     8    2
     8     7     9    1
     9     8    10    1
    10     9    11    2
    11    10    12    2
    12    11    12    1
