@<TRIPOS>MOLECULE
/home/cewinharhar/GITHUB/reincatalyze/data/processed/docking_pred/2023-May-05-1615_maxeplen10_maxtrainstep1000_seadep16_gamma099_lrac9e-4_lrcr1e-3/25fd2f55844bdf9fb92a90adf0bdb598f7a2ad59_ligand_2.pdbqt
 12 12 0 0 0
SMALL
GASTEIGER

@<TRIPOS>ATOM
      1  C          8.3170   -0.5930   -2.1060 C.3     1  UNL1        0.1270
      2  C          8.3290   -1.8510   -2.8900 C.2     1  UNL1        0.3030
      3  O          7.2600   -2.3960   -3.2620 O.2     1  UNL1       -0.2520
      4  O          9.5240   -2.4620   -3.2330 O.3     1  UNL1       -0.4810
      5  H          9.7760   -3.3520   -2.7940 H       1  UNL1        0.2960
      6  C          6.9710   -0.4510   -1.4640 C.3     1  UNL1        0.0470
      7  C          6.8030    0.7850   -0.7020 C.2     1  UNL1       -0.0470
      8  C          7.8730    1.3690   -0.0640 C.2     1  UNL1        0.0040
      9  C          5.5580    1.3650   -0.6290 C.2     1  UNL1        0.0040
     10  C          7.6400    2.5500    0.6450 C.2     1  UNL1        0.0000
     11  C          5.3290    2.5320    0.0730 C.2     1  UNL1        0.0000
     12  C          6.3950    3.1230    0.7150 C.2     1  UNL1        0.0000
@<TRIPOS>BOND
     1     3     2    2
     2     4     2    1
     3     4     5    1
     4     2     1    1
     5     1     6    1
     6     6     7    1
     7     7     9    2
     8     7     8    1
     9     9    11    1
    10     8    10    2
    11    11    12    2
    12    10    12    1
