MODEL 1
REMARK VINA RESULT:      -7.1      0.000      0.000
REMARK SMILES O=C(O)CCc1ccccc1
REMARK SMILES IDX 4 1 2 2 1 3 3 4 5 6 6 7 7 8 11 9 8 10 10 11 9 12
REMARK H PARENT 3 5
REMARK Flexibility Score: inf
ROOT
ATOM      1  C   UNL     1       8.456  -0.658  -2.083  1.00  0.00     0.127 C 
ENDROOT
BRANCH   1   2
ATOM      2  C   UNL     1       8.473  -1.906  -2.882  1.00  0.00     0.303 C 
ATOM      3  O   UNL     1       9.543  -2.527  -3.096  1.00  0.00    -0.252 OA
BRANCH   2   4
ATOM      4  O   UNL     1       7.304  -2.421  -3.419  1.00  0.00    -0.481 OA
ATOM      5  H   UNL     1       6.746  -1.843  -4.053  1.00  0.00     0.296 HD
ENDBRANCH   2   4
ENDBRANCH   1   2
BRANCH   1   6
ATOM      6  C   UNL     1       7.058  -0.119  -2.081  1.00  0.00     0.047 C 
BRANCH   6   7
ATOM      7  C   UNL     1       6.485   0.043  -0.746  1.00  0.00    -0.047 A 
ATOM      8  C   UNL     1       5.837   1.205  -0.394  1.00  0.00     0.004 A 
ATOM      9  C   UNL     1       6.598  -0.984   0.162  1.00  0.00     0.004 A 
ATOM     10  C   UNL     1       5.314   1.290   0.898  1.00  0.00     0.000 A 
ATOM     11  C   UNL     1       6.080  -0.898   1.440  1.00  0.00     0.000 A 
ATOM     12  C   UNL     1       5.430   0.262   1.800  1.00  0.00     0.000 A 
ENDBRANCH   6   7
ENDBRANCH   1   6
TORSDOF 4
ENDMDL
MODEL 2
REMARK VINA RESULT:      -6.6      1.407      2.226
REMARK SMILES O=C(O)CCc1ccccc1
REMARK SMILES IDX 4 1 2 2 1 3 3 4 5 6 6 7 7 8 11 9 8 10 10 11 9 12
REMARK H PARENT 3 5
REMARK Flexibility Score: inf
ROOT
ATOM      1  C   UNL     1       8.317  -0.593  -2.106  1.00  0.00     0.127 C 
ENDROOT
BRANCH   1   2
ATOM      2  C   UNL     1       8.329  -1.851  -2.890  1.00  0.00     0.303 C 
ATOM      3  O   UNL     1       7.260  -2.396  -3.262  1.00  0.00    -0.252 OA
BRANCH   2   4
ATOM      4  O   UNL     1       9.524  -2.462  -3.233  1.00  0.00    -0.481 OA
ATOM      5  H   UNL     1       9.776  -3.352  -2.794  1.00  0.00     0.296 HD
ENDBRANCH   2   4
ENDBRANCH   1   2
BRANCH   1   6
ATOM      6  C   UNL     1       6.971  -0.451  -1.464  1.00  0.00     0.047 C 
BRANCH   6   7
ATOM      7  C   UNL     1       6.803   0.785  -0.702  1.00  0.00    -0.047 A 
ATOM      8  C   UNL     1       7.873   1.369  -0.064  1.00  0.00     0.004 A 
ATOM      9  C   UNL     1       5.558   1.365  -0.629  1.00  0.00     0.004 A 
ATOM     10  C   UNL     1       7.640   2.550   0.645  1.00  0.00     0.000 A 
ATOM     11  C   UNL     1       5.329   2.532   0.073  1.00  0.00     0.000 A 
ATOM     12  C   UNL     1       6.395   3.123   0.715  1.00  0.00     0.000 A 
ENDBRANCH   6   7
ENDBRANCH   1   6
TORSDOF 4
ENDMDL
