@<TRIPOS>MOLECULE
/home/cewinharhar/GITHUB/reincatalyze/data/processed/docking_pred/2023-May-05-1615_maxeplen10_maxtrainstep1000_seadep16_gamma099_lrac9e-4_lrcr1e-3/2734134eb9e7fe1a9a1e6734a306fe03ba38cdbb_ligand_2.pdbqt
 12 12 0 0 0
SMALL
GASTEIGER

@<TRIPOS>ATOM
      1  C          7.8820    0.4630   -2.0710 C.3     1  UNL1        0.1270
      2  C          9.1450   -0.3080   -1.9800 C.2     1  UNL1        0.3030
      3  O         10.1590    0.1690   -1.4150 O.2     1  UNL1       -0.2520
      4  O          9.2390   -1.5820   -2.5180 O.3     1  UNL1       -0.4810
      5  H          9.6850   -2.3240   -1.9720 H       1  UNL1        0.2960
      6  C          7.7690    1.3260   -0.8520 C.3     1  UNL1        0.0470
      7  C          7.0290    0.7090    0.2470 C.2     1  UNL1       -0.0470
      8  C          7.5110   -0.4150    0.8760 C.2     1  UNL1        0.0040
      9  C          5.8380    1.2670    0.6520 C.2     1  UNL1        0.0040
     10  C          6.7520   -0.9510    1.9190 C.2     1  UNL1        0.0000
     11  C          5.0890    0.7360    1.6830 C.2     1  UNL1        0.0000
     12  C          5.5650   -0.3900    2.3180 C.2     1  UNL1        0.0000
@<TRIPOS>BOND
     1     4     2    1
     2     4     5    1
     3     1     2    1
     4     1     6    1
     5     2     3    2
     6     6     7    1
     7     7     9    2
     8     7     8    1
     9     9    11    1
    10     8    10    2
    11    11    12    2
    12    10    12    1
