MODEL 1
REMARK VINA RESULT:      -7.2      0.000      0.000
REMARK SMILES O=C(O)CCc1ccccc1
REMARK SMILES IDX 4 1 2 2 1 3 3 4 5 6 6 7 7 8 11 9 8 10 10 11 9 12
REMARK H PARENT 3 5
REMARK Flexibility Score: inf
ROOT
ATOM      1  C   UNL     1       8.405  -0.661  -2.071  1.00  0.00     0.127 C 
ENDROOT
BRANCH   1   2
ATOM      2  C   UNL     1       8.374  -1.905  -2.875  1.00  0.00     0.303 C 
ATOM      3  O   UNL     1       7.288  -2.411  -3.251  1.00  0.00    -0.252 OA
BRANCH   2   4
ATOM      4  O   UNL     1       9.549  -2.546  -3.236  1.00  0.00    -0.481 OA
ATOM      5  H   UNL     1       9.635  -2.941  -4.176  1.00  0.00     0.296 HD
ENDBRANCH   2   4
ENDBRANCH   1   2
BRANCH   1   6
ATOM      6  C   UNL     1       7.029  -0.068  -2.068  1.00  0.00     0.047 C 
BRANCH   6   7
ATOM      7  C   UNL     1       6.457   0.100  -0.733  1.00  0.00    -0.047 A 
ATOM      8  C   UNL     1       5.803   1.260  -0.389  1.00  0.00     0.004 A 
ATOM      9  C   UNL     1       6.577  -0.920   0.183  1.00  0.00     0.004 A 
ATOM     10  C   UNL     1       5.281   1.351   0.903  1.00  0.00     0.000 A 
ATOM     11  C   UNL     1       6.061  -0.828   1.460  1.00  0.00     0.000 A 
ATOM     12  C   UNL     1       5.405   0.331   1.813  1.00  0.00     0.000 A 
ENDBRANCH   6   7
ENDBRANCH   1   6
TORSDOF 4
ENDMDL
MODEL 2
REMARK VINA RESULT:      -5.8      1.445      2.267
REMARK SMILES O=C(O)CCc1ccccc1
REMARK SMILES IDX 4 1 2 2 1 3 3 4 5 6 6 7 7 8 11 9 8 10 10 11 9 12
REMARK H PARENT 3 5
REMARK Flexibility Score: inf
ROOT
ATOM      1  C   UNL     1       7.882   0.463  -2.071  1.00  0.00     0.127 C 
ENDROOT
BRANCH   1   2
ATOM      2  C   UNL     1       9.145  -0.308  -1.980  1.00  0.00     0.303 C 
ATOM      3  O   UNL     1      10.159   0.169  -1.415  1.00  0.00    -0.252 OA
BRANCH   2   4
ATOM      4  O   UNL     1       9.239  -1.582  -2.518  1.00  0.00    -0.481 OA
ATOM      5  H   UNL     1       9.685  -2.324  -1.972  1.00  0.00     0.296 HD
ENDBRANCH   2   4
ENDBRANCH   1   2
BRANCH   1   6
ATOM      6  C   UNL     1       7.769   1.326  -0.852  1.00  0.00     0.047 C 
BRANCH   6   7
ATOM      7  C   UNL     1       7.029   0.709   0.247  1.00  0.00    -0.047 A 
ATOM      8  C   UNL     1       7.511  -0.415   0.876  1.00  0.00     0.004 A 
ATOM      9  C   UNL     1       5.838   1.267   0.652  1.00  0.00     0.004 A 
ATOM     10  C   UNL     1       6.752  -0.951   1.919  1.00  0.00     0.000 A 
ATOM     11  C   UNL     1       5.089   0.736   1.683  1.00  0.00     0.000 A 
ATOM     12  C   UNL     1       5.565  -0.390   2.318  1.00  0.00     0.000 A 
ENDBRANCH   6   7
ENDBRANCH   1   6
TORSDOF 4
ENDMDL
