@<TRIPOS>MOLECULE
/home/cewinharhar/GITHUB/reincatalyze/data/processed/docking_pred/2023-May-05-1615_maxeplen10_maxtrainstep1000_seadep16_gamma099_lrac9e-4_lrcr1e-3/287d700aa29cdd08db1558ad291e1b5912b75232_ligand_2.pdbqt
 12 12 0 0 0
SMALL
GASTEIGER

@<TRIPOS>ATOM
      1  C          8.4030   -0.6600   -2.0730 C.3     1  UNL1        0.1270
      2  C          8.3730   -1.9040   -2.8770 C.2     1  UNL1        0.3030
      3  O          7.2870   -2.4110   -3.2500 O.2     1  UNL1       -0.2520
      4  O          9.5480   -2.5420   -3.2410 O.3     1  UNL1       -0.4810
      5  H          9.9820   -3.2020   -2.5900 H       1  UNL1        0.2960
      6  C          7.0270   -0.0680   -2.0690 C.3     1  UNL1        0.0470
      7  C          6.4560    0.1000   -0.7330 C.2     1  UNL1       -0.0470
      8  C          5.8020    1.2600   -0.3890 C.2     1  UNL1        0.0040
      9  C          6.5760   -0.9200    0.1820 C.2     1  UNL1        0.0040
     10  C          5.2810    1.3510    0.9040 C.2     1  UNL1        0.0000
     11  C          6.0610   -0.8290    1.4590 C.2     1  UNL1        0.0000
     12  C          5.4050    0.3310    1.8130 C.2     1  UNL1        0.0000
@<TRIPOS>BOND
     1     3     2    2
     2     4     2    1
     3     4     5    1
     4     2     1    1
     5     1     6    1
     6     6     7    1
     7     7     8    2
     8     7     9    1
     9     8    10    1
    10     9    11    2
    11    10    12    2
    12    11    12    1
