@<TRIPOS>MOLECULE
/home/cewinharhar/GITHUB/reincatalyze/data/processed/docking_pred/2023-May-05-1615_maxeplen10_maxtrainstep1000_seadep16_gamma099_lrac9e-4_lrcr1e-3/2b606219d5526e18d91eeb9dfd7a568ae4147191_ligand_2.pdbqt
 12 12 0 0 0
SMALL
GASTEIGER

@<TRIPOS>ATOM
      1  C          8.1770   -1.9930    0.8700 C.3     1  UNL1        0.1270
      2  C          8.3840   -3.4480    1.0590 C.2     1  UNL1        0.3030
      3  O          9.4720   -3.9960    0.7560 O.2     1  UNL1       -0.2520
      4  O          7.3770   -4.2460    1.5790 O.3     1  UNL1       -0.4810
      5  H          6.4000   -3.9990    1.4020 H       1  UNL1        0.2960
      6  C          6.8510   -1.6250    1.4630 C.3     1  UNL1        0.0470
      7  C          6.2820   -0.3900    0.9260 C.2     1  UNL1       -0.0470
      8  C          5.5040    0.4270    1.7130 C.2     1  UNL1        0.0040
      9  C          6.5350   -0.0470   -0.3820 C.2     1  UNL1        0.0040
     10  C          4.9950    1.5910    1.1350 C.2     1  UNL1        0.0000
     11  C          6.0310    1.1050   -0.9530 C.2     1  UNL1        0.0000
     12  C          5.2500    1.9280   -0.1710 C.2     1  UNL1        0.0000
@<TRIPOS>BOND
     1    11     9    1
     2    11    12    2
     3     9     7    2
     4    12    10    1
     5     3     2    2
     6     1     2    1
     7     1     6    1
     8     7     6    1
     9     7     8    1
    10     2     4    1
    11    10     8    2
    12     5     4    1
