MODEL 1
REMARK VINA RESULT:      -7.2      0.000      0.000
REMARK SMILES O=C(O)CCc1ccccc1
REMARK SMILES IDX 4 1 2 2 1 3 3 4 5 6 6 7 7 8 11 9 8 10 10 11 9 12
REMARK H PARENT 3 5
REMARK Flexibility Score: inf
ROOT
ATOM      1  C   UNL     1       8.435  -0.636  -2.134  1.00  0.00     0.127 C 
ENDROOT
BRANCH   1   2
ATOM      2  C   UNL     1       8.476  -1.902  -2.903  1.00  0.00     0.303 C 
ATOM      3  O   UNL     1       9.557  -2.514  -3.092  1.00  0.00    -0.252 OA
BRANCH   2   4
ATOM      4  O   UNL     1       7.319  -2.447  -3.436  1.00  0.00    -0.481 OA
ATOM      5  H   UNL     1       6.737  -1.878  -4.056  1.00  0.00     0.296 HD
ENDBRANCH   2   4
ENDBRANCH   1   2
BRANCH   1   6
ATOM      6  C   UNL     1       7.022  -0.138  -2.124  1.00  0.00     0.047 C 
BRANCH   6   7
ATOM      7  C   UNL     1       6.470   0.056  -0.784  1.00  0.00    -0.047 A 
ATOM      8  C   UNL     1       5.833   1.229  -0.448  1.00  0.00     0.004 A 
ATOM      9  C   UNL     1       6.592  -0.951   0.145  1.00  0.00     0.004 A 
ATOM     10  C   UNL     1       5.329   1.345   0.849  1.00  0.00     0.000 A 
ATOM     11  C   UNL     1       6.093  -0.835   1.427  1.00  0.00     0.000 A 
ATOM     12  C   UNL     1       5.455   0.337   1.771  1.00  0.00     0.000 A 
ENDBRANCH   6   7
ENDBRANCH   1   6
TORSDOF 4
ENDMDL
MODEL 2
REMARK VINA RESULT:      -7.0      2.482      3.237
REMARK SMILES O=C(O)CCc1ccccc1
REMARK SMILES IDX 4 1 2 2 1 3 3 4 5 6 6 7 7 8 11 9 8 10 10 11 9 12
REMARK H PARENT 3 5
REMARK Flexibility Score: inf
ROOT
ATOM      1  C   UNL     1       8.177  -1.993   0.870  1.00  0.00     0.127 C 
ENDROOT
BRANCH   1   2
ATOM      2  C   UNL     1       8.384  -3.448   1.059  1.00  0.00     0.303 C 
ATOM      3  O   UNL     1       9.472  -3.996   0.756  1.00  0.00    -0.252 OA
BRANCH   2   4
ATOM      4  O   UNL     1       7.377  -4.246   1.579  1.00  0.00    -0.481 OA
ATOM      5  H   UNL     1       6.400  -3.999   1.402  1.00  0.00     0.296 HD
ENDBRANCH   2   4
ENDBRANCH   1   2
BRANCH   1   6
ATOM      6  C   UNL     1       6.851  -1.625   1.463  1.00  0.00     0.047 C 
BRANCH   6   7
ATOM      7  C   UNL     1       6.282  -0.390   0.926  1.00  0.00    -0.047 A 
ATOM      8  C   UNL     1       5.504   0.427   1.713  1.00  0.00     0.004 A 
ATOM      9  C   UNL     1       6.535  -0.047  -0.382  1.00  0.00     0.004 A 
ATOM     10  C   UNL     1       4.995   1.591   1.135  1.00  0.00     0.000 A 
ATOM     11  C   UNL     1       6.031   1.105  -0.953  1.00  0.00     0.000 A 
ATOM     12  C   UNL     1       5.250   1.928  -0.171  1.00  0.00     0.000 A 
ENDBRANCH   6   7
ENDBRANCH   1   6
TORSDOF 4
ENDMDL
