@<TRIPOS>MOLECULE
/home/cewinharhar/GITHUB/reincatalyze/data/processed/docking_pred/2023-May-05-1615_maxeplen10_maxtrainstep1000_seadep16_gamma099_lrac9e-4_lrcr1e-3/2b606219d5526e18d91eeb9dfd7a568ae4147191_ligand_2.pdbqt
 12 12 0 0 0
SMALL
GASTEIGER

@<TRIPOS>ATOM
      1  C          8.4350   -0.6360   -2.1340 C.3     1  UNL1        0.1270
      2  C          8.4760   -1.9020   -2.9030 C.2     1  UNL1        0.3030
      3  O          9.5570   -2.5140   -3.0920 O.2     1  UNL1       -0.2520
      4  O          7.3190   -2.4470   -3.4360 O.3     1  UNL1       -0.4810
      5  H          6.7370   -1.8780   -4.0560 H       1  UNL1        0.2960
      6  C          7.0220   -0.1380   -2.1240 C.3     1  UNL1        0.0470
      7  C          6.4700    0.0560   -0.7840 C.2     1  UNL1       -0.0470
      8  C          5.8330    1.2290   -0.4480 C.2     1  UNL1        0.0040
      9  C          6.5920   -0.9510    0.1450 C.2     1  UNL1        0.0040
     10  C          5.3290    1.3450    0.8490 C.2     1  UNL1        0.0000
     11  C          6.0930   -0.8350    1.4270 C.2     1  UNL1        0.0000
     12  C          5.4550    0.3370    1.7710 C.2     1  UNL1        0.0000
@<TRIPOS>BOND
     1     5     4    1
     2     4     2    1
     3     3     2    2
     4     2     1    1
     5     1     6    1
     6     6     7    1
     7     7     8    2
     8     7     9    1
     9     8    10    1
    10     9    11    2
    11    10    12    2
    12    11    12    1
