@<TRIPOS>MOLECULE
/home/cewinharhar/GITHUB/reincatalyze/data/processed/docking_pred/2023-May-05-1615_maxeplen10_maxtrainstep1000_seadep16_gamma099_lrac9e-4_lrcr1e-3/2b611616233e02901686b2fc0a6dd8ec9c570ff2_ligand_2.pdbqt
 12 12 0 0 0
SMALL
GASTEIGER

@<TRIPOS>ATOM
      1  C          8.4070   -0.6510   -2.0800 C.3     1  UNL1        0.1270
      2  C          8.3760   -1.8960   -2.8820 C.2     1  UNL1        0.3030
      3  O          7.2890   -2.4120   -3.2430 O.2     1  UNL1       -0.2520
      4  O          9.5510   -2.5290   -3.2570 O.3     1  UNL1       -0.4810
      5  H         10.3150   -2.6090   -2.5800 H       1  UNL1        0.2960
      6  C          7.0300   -0.0600   -2.0740 C.3     1  UNL1        0.0470
      7  C          6.4610    0.1080   -0.7390 C.2     1  UNL1       -0.0470
      8  C          5.8110    1.2700   -0.3920 C.2     1  UNL1        0.0040
      9  C          6.5790   -0.9140    0.1750 C.2     1  UNL1        0.0040
     10  C          5.2900    1.3600    0.9010 C.2     1  UNL1        0.0000
     11  C          6.0640   -0.8220    1.4530 C.2     1  UNL1        0.0000
     12  C          5.4120    0.3380    1.8080 C.2     1  UNL1        0.0000
@<TRIPOS>BOND
     1     4     2    1
     2     4     5    1
     3     3     2    2
     4     2     1    1
     5     1     6    1
     6     6     7    1
     7     7     8    2
     8     7     9    1
     9     8    10    1
    10     9    11    2
    11    10    12    2
    12    11    12    1
