@<TRIPOS>MOLECULE
/home/cewinharhar/GITHUB/reincatalyze/data/processed/docking_pred/2023-May-05-1615_maxeplen10_maxtrainstep1000_seadep16_gamma099_lrac9e-4_lrcr1e-3/2bd7ebd6000506c3611824cd415c5dddcf27ad2f_ligand_2.pdbqt
 12 12 0 0 0
SMALL
GASTEIGER

@<TRIPOS>ATOM
      1  C          7.9330   -1.4990    2.3590 C.3     1  UNL1        0.1270
      2  C          8.8400   -2.4370    1.6570 C.2     1  UNL1        0.3030
      3  O         10.0560   -2.5180    1.9620 O.2     1  UNL1       -0.2520
      4  O          8.3700   -3.2540    0.6410 O.3     1  UNL1       -0.4810
      5  H          8.5690   -4.2580    0.6720 H       1  UNL1        0.2960
      6  C          6.5770   -1.5950    1.7270 C.3     1  UNL1        0.0470
      7  C          6.1790   -0.3970    0.9900 C.2     1  UNL1       -0.0470
      8  C          6.5500   -0.2230   -0.3240 C.2     1  UNL1        0.0040
      9  C          5.4240    0.5620    1.6240 C.2     1  UNL1        0.0040
     10  C          6.1340    0.9450   -0.9660 C.2     1  UNL1        0.0000
     11  C          5.0140    1.7170    0.9880 C.2     1  UNL1        0.0000
     12  C          5.3810    1.8980   -0.3280 C.2     1  UNL1        0.0000
@<TRIPOS>BOND
     1    10    12    2
     2    10     8    1
     3    12    11    1
     4     8     7    2
     5     4     5    1
     6     4     2    1
     7    11     9    2
     8     7     9    1
     9     7     6    1
    10     2     3    2
    11     2     1    1
    12     6     1    1
