@<TRIPOS>MOLECULE
/home/cewinharhar/GITHUB/reincatalyze/data/processed/docking_pred/2023-May-05-1615_maxeplen10_maxtrainstep1000_seadep16_gamma099_lrac9e-4_lrcr1e-3/2cf69de7cf34ef354308742c6722c88054a527ce_ligand_2.pdbqt
 12 12 0 0 0
SMALL
GASTEIGER

@<TRIPOS>ATOM
      1  C          8.4020   -0.6560   -2.0760 C.3     1  UNL1        0.1270
      2  C          8.3730   -1.9020   -2.8780 C.2     1  UNL1        0.3030
      3  O          7.2870   -2.4110   -3.2500 O.2     1  UNL1       -0.2520
      4  O          9.5480   -2.5410   -3.2390 O.3     1  UNL1       -0.4810
      5  H         10.0590   -2.2200   -4.0660 H       1  UNL1        0.2960
      6  C          7.0240   -0.0680   -2.0710 C.3     1  UNL1        0.0470
      7  C          6.4550    0.1010   -0.7350 C.2     1  UNL1       -0.0470
      8  C          5.8020    1.2610   -0.3890 C.2     1  UNL1        0.0040
      9  C          6.5760   -0.9200    0.1800 C.2     1  UNL1        0.0040
     10  C          5.2820    1.3530    0.9040 C.2     1  UNL1        0.0000
     11  C          6.0620   -0.8280    1.4580 C.2     1  UNL1        0.0000
     12  C          5.4070    0.3320    1.8120 C.2     1  UNL1        0.0000
@<TRIPOS>BOND
     1     5     4    1
     2     3     2    2
     3     4     2    1
     4     2     1    1
     5     1     6    1
     6     6     7    1
     7     7     8    2
     8     7     9    1
     9     8    10    1
    10     9    11    2
    11    10    12    2
    12    11    12    1
