@<TRIPOS>MOLECULE
/home/cewinharhar/GITHUB/reincatalyze/data/processed/docking_pred/2023-May-05-1615_maxeplen10_maxtrainstep1000_seadep16_gamma099_lrac9e-4_lrcr1e-3/2d2d9026ea33a6842fa37a74e1533968fe9c5ac5_ligand_2.pdbqt
 12 12 0 0 0
SMALL
GASTEIGER

@<TRIPOS>ATOM
      1  C          5.0190    1.7770    0.6560 C.3     1  UNL1        0.1270
      2  C          4.5670    1.1160    1.9020 C.2     1  UNL1        0.3030
      3  O          3.4440    1.3700    2.4040 O.2     1  UNL1       -0.2520
      4  O          5.3740    0.1950    2.5510 O.3     1  UNL1       -0.4810
      5  H          5.0340   -0.2570    3.4040 H       1  UNL1        0.2960
      6  C          6.5150    1.8490    0.6770 C.3     1  UNL1        0.0470
      7  C          7.1630    1.0640   -0.3730 C.2     1  UNL1       -0.0470
      8  C          8.4960    1.2400   -0.6620 C.2     1  UNL1        0.0040
      9  C          6.4230    0.1390   -1.0730 C.2     1  UNL1        0.0040
     10  C          9.0490    0.4550   -1.6760 C.2     1  UNL1        0.0000
     11  C          6.9710   -0.6350   -2.0760 C.2     1  UNL1        0.0000
     12  C          8.3050   -0.4650   -2.3720 C.2     1  UNL1        0.0000
@<TRIPOS>BOND
     1    12    11    2
     2    12    10    1
     3    11     9    1
     4    10     8    2
     5     9     7    2
     6     8     7    1
     7     7     6    1
     8     1     6    1
     9     1     2    1
    10     2     3    2
    11     2     4    1
    12     4     5    1
