MODEL 1
REMARK VINA RESULT:      -7.3      0.000      0.000
REMARK SMILES O=C(O)CCc1ccccc1
REMARK SMILES IDX 4 1 2 2 1 3 3 4 5 6 6 7 7 8 11 9 8 10 10 11 9 12
REMARK H PARENT 3 5
REMARK Flexibility Score: inf
ROOT
ATOM      1  C   UNL     1       8.399  -0.650  -2.083  1.00  0.00     0.127 C 
ENDROOT
BRANCH   1   2
ATOM      2  C   UNL     1       8.370  -1.899  -2.880  1.00  0.00     0.303 C 
ATOM      3  O   UNL     1       7.284  -2.409  -3.251  1.00  0.00    -0.252 OA
BRANCH   2   4
ATOM      4  O   UNL     1       9.545  -2.541  -3.237  1.00  0.00    -0.481 OA
ATOM      5  H   UNL     1      10.057  -2.224  -4.064  1.00  0.00     0.296 HD
ENDBRANCH   2   4
ENDBRANCH   1   2
BRANCH   1   6
ATOM      6  C   UNL     1       7.020  -0.065  -2.074  1.00  0.00     0.047 C 
BRANCH   6   7
ATOM      7  C   UNL     1       6.454   0.103  -0.737  1.00  0.00    -0.047 A 
ATOM      8  C   UNL     1       5.800   1.262  -0.390  1.00  0.00     0.004 A 
ATOM      9  C   UNL     1       6.579  -0.917   0.178  1.00  0.00     0.004 A 
ATOM     10  C   UNL     1       5.283   1.353   0.904  1.00  0.00     0.000 A 
ATOM     11  C   UNL     1       6.068  -0.826   1.457  1.00  0.00     0.000 A 
ATOM     12  C   UNL     1       5.412   0.333   1.813  1.00  0.00     0.000 A 
ENDBRANCH   6   7
ENDBRANCH   1   6
TORSDOF 4
ENDMDL
