@<TRIPOS>MOLECULE
/home/cewinharhar/GITHUB/reincatalyze/data/processed/docking_pred/2023-May-05-1615_maxeplen10_maxtrainstep1000_seadep16_gamma099_lrac9e-4_lrcr1e-3/2f41e52dfc6618f39d2325611a45b0a1c53476a0_ligand_2.pdbqt
 12 12 0 0 0
SMALL
GASTEIGER

@<TRIPOS>ATOM
      1  C          8.3280   -0.6110   -2.1070 C.3     1  UNL1        0.1270
      2  C          8.3480   -1.8770   -2.8770 C.2     1  UNL1        0.3030
      3  O          7.2860   -2.4040   -3.2900 O.2     1  UNL1       -0.2520
      4  O          9.5440   -2.5150   -3.1630 O.3     1  UNL1       -0.4810
      5  H         10.2830   -2.5340   -2.4550 H       1  UNL1        0.2960
      6  C          6.9610   -0.4410   -1.5160 C.3     1  UNL1        0.0470
      7  C          6.8040    0.7770   -0.7230 C.2     1  UNL1       -0.0470
      8  C          5.5770    1.3880   -0.6090 C.2     1  UNL1        0.0040
      9  C          7.9000    1.3090   -0.0840 C.2     1  UNL1        0.0040
     10  C          5.5000    2.5480    0.1650 C.2     1  UNL1        0.0000
     11  C          7.8220    2.4560    0.6810 C.2     1  UNL1        0.0000
     12  C          6.5970    3.0750    0.7990 C.2     1  UNL1        0.0000
@<TRIPOS>BOND
     1     3     2    2
     2     4     2    1
     3     4     5    1
     4     2     1    1
     5     1     6    1
     6     6     7    1
     7     7     8    2
     8     7     9    1
     9     8    10    1
    10     9    11    2
    11    10    12    2
    12    11    12    1
