@<TRIPOS>MOLECULE
/home/cewinharhar/GITHUB/reincatalyze/data/processed/docking_pred/2023-May-05-1615_maxeplen10_maxtrainstep1000_seadep16_gamma099_lrac9e-4_lrcr1e-3/30246d56752cb6be0208f58fab85103c625ac011_ligand_2.pdbqt
 12 12 0 0 0
SMALL
GASTEIGER

@<TRIPOS>ATOM
      1  C          8.4050   -0.6550   -2.0780 C.3     1  UNL1        0.1270
      2  C          8.3730   -1.9040   -2.8750 C.2     1  UNL1        0.3030
      3  O          7.2860   -2.4080   -3.2520 O.2     1  UNL1       -0.2520
      4  O          9.5460   -2.5520   -3.2270 O.3     1  UNL1       -0.4810
      5  H         10.3270   -2.5690   -2.5650 H       1  UNL1        0.2960
      6  C          7.0270   -0.0670   -2.0700 C.3     1  UNL1        0.0470
      7  C          6.4600    0.1030   -0.7330 C.2     1  UNL1       -0.0470
      8  C          5.8070    1.2640   -0.3890 C.2     1  UNL1        0.0040
      9  C          6.5850   -0.9150    0.1830 C.2     1  UNL1        0.0040
     10  C          5.2900    1.3570    0.9050 C.2     1  UNL1        0.0000
     11  C          6.0740   -0.8210    1.4620 C.2     1  UNL1        0.0000
     12  C          5.4180    0.3380    1.8160 C.2     1  UNL1        0.0000
@<TRIPOS>BOND
     1     3     2    2
     2     4     2    1
     3     4     5    1
     4     2     1    1
     5     1     6    1
     6     6     7    1
     7     7     8    2
     8     7     9    1
     9     8    10    1
    10     9    11    2
    11    10    12    2
    12    11    12    1
