@<TRIPOS>MOLECULE
/home/cewinharhar/GITHUB/reincatalyze/data/processed/docking_pred/2023-May-05-1615_maxeplen10_maxtrainstep1000_seadep16_gamma099_lrac9e-4_lrcr1e-3/306d1dfeb5e1085b4f3e24b09348dc81ae645662_ligand_2.pdbqt
 12 12 0 0 0
SMALL
GASTEIGER

@<TRIPOS>ATOM
      1  C          8.2690   -0.5320   -2.2110 C.3     1  UNL1        0.1270
      2  C          8.3040   -1.8270   -2.9310 C.2     1  UNL1        0.3030
      3  O          7.2460   -2.3970   -3.2970 O.2     1  UNL1       -0.2520
      4  O          9.5090   -2.4460   -3.2190 O.3     1  UNL1       -0.4810
      5  H         10.1190   -2.0450   -3.9370 H       1  UNL1        0.2960
      6  C          6.9560   -0.4280   -1.4950 C.3     1  UNL1        0.0470
      7  C          6.8000    0.8000   -0.7170 C.2     1  UNL1       -0.0470
      8  C          7.8770    1.3720   -0.0800 C.2     1  UNL1        0.0040
      9  C          5.5580    1.3850   -0.6280 C.2     1  UNL1        0.0040
     10  C          7.6550    2.5450    0.6440 C.2     1  UNL1        0.0000
     11  C          5.3390    2.5450    0.0880 C.2     1  UNL1        0.0000
     12  C          6.4130    3.1230    0.7300 C.2     1  UNL1        0.0000
@<TRIPOS>BOND
     1     5     4    1
     2     3     2    2
     3     4     2    1
     4     2     1    1
     5     1     6    1
     6     6     7    1
     7     7     9    2
     8     7     8    1
     9     9    11    1
    10     8    10    2
    11    11    12    2
    12    10    12    1
