@<TRIPOS>MOLECULE
/home/cewinharhar/GITHUB/reincatalyze/data/processed/docking_pred/2023-May-05-1615_maxeplen10_maxtrainstep1000_seadep16_gamma099_lrac9e-4_lrcr1e-3/31018d4d3337f577513d0037205f1d699057d88b_ligand_2.pdbqt
 12 12 0 0 0
SMALL
GASTEIGER

@<TRIPOS>ATOM
      1  C          6.3230   -0.5290    2.7340 C.3     1  UNL1        0.1270
      2  C          7.0950   -1.4860    1.9060 C.2     1  UNL1        0.3030
      3  O          8.2610   -1.2210    1.5230 O.2     1  UNL1       -0.2520
      4  O          6.5480   -2.7020    1.5310 O.3     1  UNL1       -0.4810
      5  H          5.5380   -2.8450    1.6170 H       1  UNL1        0.2960
      6  C          5.2200    0.0380    1.8930 C.3     1  UNL1        0.0470
      7  C          5.5330    1.3380    1.3010 C.2     1  UNL1       -0.0470
      8  C          4.8990    1.7600    0.1560 C.2     1  UNL1        0.0040
      9  C          6.4710    2.1430    1.9060 C.2     1  UNL1        0.0040
     10  C          5.2460    3.0140   -0.3530 C.2     1  UNL1        0.0000
     11  C          6.8130    3.3820    1.4010 C.2     1  UNL1        0.0000
     12  C          6.1830    3.8120    0.2540 C.2     1  UNL1        0.0000
@<TRIPOS>BOND
     1    10     8    1
     2    10    12    2
     3     8     7    2
     4    12    11    1
     5     7     6    1
     6     7     9    1
     7    11     9    2
     8     3     2    2
     9     4     5    1
    10     4     2    1
    11     6     1    1
    12     2     1    1
