@<TRIPOS>MOLECULE
/home/cewinharhar/GITHUB/reincatalyze/data/processed/docking_pred/2023-May-05-1615_maxeplen10_maxtrainstep1000_seadep16_gamma099_lrac9e-4_lrcr1e-3/31018d4d3337f577513d0037205f1d699057d88b_ligand_2.pdbqt
 12 12 0 0 0
SMALL
GASTEIGER

@<TRIPOS>ATOM
      1  C          8.2520   -5.9740   11.5890 C.3     1  UNL1        0.1270
      2  C          8.0120   -4.5220   11.4210 C.2     1  UNL1        0.3030
      3  O          8.1690   -3.7210   12.3750 O.2     1  UNL1       -0.2520
      4  O          7.6040   -4.0060   10.2010 O.3     1  UNL1       -0.4810
      5  H          6.9830   -3.1930   10.1830 H       1  UNL1        0.2960
      6  C          8.8030   -6.5120   10.3040 C.3     1  UNL1        0.0470
      7  C         10.0940   -7.1830   10.4460 C.2     1  UNL1       -0.0470
      8  C         10.1770   -8.5560   10.4540 C.2     1  UNL1        0.0040
      9  C         11.2350   -6.4240   10.5700 C.2     1  UNL1        0.0040
     10  C         11.4430   -9.1290   10.5920 C.2     1  UNL1        0.0000
     11  C         12.4860   -6.9920   10.7060 C.2     1  UNL1        0.0000
     12  C         12.5770   -8.3670   10.7160 C.2     1  UNL1        0.0000
@<TRIPOS>BOND
     1     5     4    1
     2     4     2    1
     3     6     7    1
     4     6     1    1
     5     7     8    2
     6     7     9    1
     7     8    10    1
     8     9    11    2
     9    10    12    2
    10    11    12    1
    11     2     1    1
    12     2     3    2
