MODEL 1
REMARK VINA RESULT:      -5.5      0.000      0.000
REMARK SMILES O=C(O)CCc1ccccc1
REMARK SMILES IDX 4 1 2 2 1 3 3 4 5 6 6 7 7 8 11 9 8 10 10 11 9 12
REMARK H PARENT 3 5
REMARK Flexibility Score: inf
ROOT
ATOM      1  C   UNL     1       6.323  -0.529   2.734  1.00  0.00     0.127 C 
ENDROOT
BRANCH   1   2
ATOM      2  C   UNL     1       7.095  -1.486   1.906  1.00  0.00     0.303 C 
ATOM      3  O   UNL     1       8.261  -1.221   1.523  1.00  0.00    -0.252 OA
BRANCH   2   4
ATOM      4  O   UNL     1       6.548  -2.702   1.531  1.00  0.00    -0.481 OA
ATOM      5  H   UNL     1       5.538  -2.845   1.617  1.00  0.00     0.296 HD
ENDBRANCH   2   4
ENDBRANCH   1   2
BRANCH   1   6
ATOM      6  C   UNL     1       5.220   0.038   1.893  1.00  0.00     0.047 C 
BRANCH   6   7
ATOM      7  C   UNL     1       5.533   1.338   1.301  1.00  0.00    -0.047 A 
ATOM      8  C   UNL     1       4.899   1.760   0.156  1.00  0.00     0.004 A 
ATOM      9  C   UNL     1       6.471   2.143   1.906  1.00  0.00     0.004 A 
ATOM     10  C   UNL     1       5.246   3.014  -0.353  1.00  0.00     0.000 A 
ATOM     11  C   UNL     1       6.813   3.382   1.401  1.00  0.00     0.000 A 
ATOM     12  C   UNL     1       6.183   3.812   0.254  1.00  0.00     0.000 A 
ENDBRANCH   6   7
ENDBRANCH   1   6
TORSDOF 4
ENDMDL
MODEL 2
REMARK VINA RESULT:      -3.7     11.826     14.329
REMARK SMILES O=C(O)CCc1ccccc1
REMARK SMILES IDX 4 1 2 2 1 3 3 4 5 6 6 7 7 8 11 9 8 10 10 11 9 12
REMARK H PARENT 3 5
REMARK Flexibility Score: inf
ROOT
ATOM      1  C   UNL     1       7.957  -6.392  10.975  1.00  0.00     0.127 C 
ENDROOT
BRANCH   1   2
ATOM      2  C   UNL     1       8.341  -4.975  11.181  1.00  0.00     0.303 C 
ATOM      3  O   UNL     1       7.610  -4.038  10.777  1.00  0.00    -0.252 OA
BRANCH   2   4
ATOM      4  O   UNL     1       9.522  -4.647  11.826  1.00  0.00    -0.481 OA
ATOM      5  H   UNL     1      10.003  -5.358  12.383  1.00  0.00     0.296 HD
ENDBRANCH   2   4
ENDBRANCH   1   2
BRANCH   1   6
ATOM      6  C   UNL     1       8.469  -7.192  12.134  1.00  0.00     0.047 C 
BRANCH   6   7
ATOM      7  C   UNL     1       9.347  -8.296  11.753  1.00  0.00    -0.047 A 
ATOM      8  C   UNL     1      10.261  -8.149  10.735  1.00  0.00     0.004 A 
ATOM      9  C   UNL     1       9.254  -9.492  12.427  1.00  0.00     0.004 A 
ATOM     10  C   UNL     1      11.069  -9.245  10.426  1.00  0.00     0.000 A 
ATOM     11  C   UNL     1      10.053 -10.575  12.119  1.00  0.00     0.000 A 
ATOM     12  C   UNL     1      10.970 -10.436  11.100  1.00  0.00     0.000 A 
ENDBRANCH   6   7
ENDBRANCH   1   6
TORSDOF 4
ENDMDL
MODEL 3
REMARK VINA RESULT:      -3.7     11.658     13.349
REMARK SMILES O=C(O)CCc1ccccc1
REMARK SMILES IDX 4 1 2 2 1 3 3 4 5 6 6 7 7 8 11 9 8 10 10 11 9 12
REMARK H PARENT 3 5
REMARK Flexibility Score: inf
ROOT
ATOM      1  C   UNL     1       8.252  -5.974  11.589  1.00  0.00     0.127 C 
ENDROOT
BRANCH   1   2
ATOM      2  C   UNL     1       8.012  -4.522  11.421  1.00  0.00     0.303 C 
ATOM      3  O   UNL     1       8.169  -3.721  12.375  1.00  0.00    -0.252 OA
BRANCH   2   4
ATOM      4  O   UNL     1       7.604  -4.006  10.201  1.00  0.00    -0.481 OA
ATOM      5  H   UNL     1       6.983  -3.193  10.183  1.00  0.00     0.296 HD
ENDBRANCH   2   4
ENDBRANCH   1   2
BRANCH   1   6
ATOM      6  C   UNL     1       8.803  -6.512  10.304  1.00  0.00     0.047 C 
BRANCH   6   7
ATOM      7  C   UNL     1      10.094  -7.183  10.446  1.00  0.00    -0.047 A 
ATOM      8  C   UNL     1      10.177  -8.556  10.454  1.00  0.00     0.004 A 
ATOM      9  C   UNL     1      11.235  -6.424  10.570  1.00  0.00     0.004 A 
ATOM     10  C   UNL     1      11.443  -9.129  10.592  1.00  0.00     0.000 A 
ATOM     11  C   UNL     1      12.486  -6.992  10.706  1.00  0.00     0.000 A 
ATOM     12  C   UNL     1      12.577  -8.367  10.716  1.00  0.00     0.000 A 
ENDBRANCH   6   7
ENDBRANCH   1   6
TORSDOF 4
ENDMDL
