@<TRIPOS>MOLECULE
/home/cewinharhar/GITHUB/reincatalyze/data/processed/docking_pred/2023-May-05-1615_maxeplen10_maxtrainstep1000_seadep16_gamma099_lrac9e-4_lrcr1e-3/31018d4d3337f577513d0037205f1d699057d88b_ligand_2.pdbqt
 12 12 0 0 0
SMALL
GASTEIGER

@<TRIPOS>ATOM
      1  C          7.9570   -6.3920   10.9750 C.3     1  UNL1        0.1270
      2  C          8.3410   -4.9750   11.1810 C.2     1  UNL1        0.3030
      3  O          7.6100   -4.0380   10.7770 O.2     1  UNL1       -0.2520
      4  O          9.5220   -4.6470   11.8260 O.3     1  UNL1       -0.4810
      5  H         10.0030   -5.3580   12.3830 H       1  UNL1        0.2960
      6  C          8.4690   -7.1920   12.1340 C.3     1  UNL1        0.0470
      7  C          9.3470   -8.2960   11.7530 C.2     1  UNL1       -0.0470
      8  C         10.2610   -8.1490   10.7350 C.2     1  UNL1        0.0040
      9  C          9.2540   -9.4920   12.4270 C.2     1  UNL1        0.0040
     10  C         11.0690   -9.2450   10.4260 C.2     1  UNL1        0.0000
     11  C         10.0530  -10.5750   12.1190 C.2     1  UNL1        0.0000
     12  C         10.9700  -10.4360   11.1000 C.2     1  UNL1        0.0000
@<TRIPOS>BOND
     1    10     8    1
     2    10    12    2
     3     8     7    2
     4     3     2    2
     5     1     2    1
     6     1     6    1
     7    12    11    1
     8     2     4    1
     9     7     6    1
    10     7     9    1
    11     4     5    1
    12    11     9    2
