@<TRIPOS>MOLECULE
/home/cewinharhar/GITHUB/reincatalyze/data/processed/docking_pred/2023-May-05-1615_maxeplen10_maxtrainstep1000_seadep16_gamma099_lrac9e-4_lrcr1e-3/3109bb1a4c888d48ff6ee722b945383cff227a99_ligand_2.pdbqt
 12 12 0 0 0
SMALL
GASTEIGER

@<TRIPOS>ATOM
      1  C          8.0930   -0.8510   -1.9810 C.3     1  UNL1        0.1270
      2  C          8.3120   -1.9890   -2.9050 C.2     1  UNL1        0.3030
      3  O          9.4600   -2.4600   -3.0950 O.2     1  UNL1       -0.2520
      4  O          7.2520   -2.5640   -3.5860 O.3     1  UNL1       -0.4810
      5  H          7.3450   -3.5180   -3.9450 H       1  UNL1        0.2960
      6  C          7.2850   -1.3380   -0.8170 C.3     1  UNL1        0.0470
      7  C          6.4890   -0.2980   -0.1680 C.2     1  UNL1       -0.0470
      8  C          6.0670   -0.4440    1.1330 C.2     1  UNL1        0.0040
      9  C          6.1660    0.8380   -0.8740 C.2     1  UNL1        0.0040
     10  C          5.3110    0.5910    1.6890 C.2     1  UNL1        0.0000
     11  C          5.4190    1.8600   -0.3220 C.2     1  UNL1        0.0000
     12  C          4.9910    1.7210    0.9800 C.2     1  UNL1        0.0000
@<TRIPOS>BOND
     1     5     4    1
     2     4     2    1
     3     3     2    2
     4     2     1    1
     5     1     6    1
     6     9    11    1
     7     9     7    2
     8     6     7    1
     9    11    12    2
    10     7     8    1
    11    12    10    1
    12     8    10    2
