@<TRIPOS>MOLECULE
/home/cewinharhar/GITHUB/reincatalyze/data/processed/docking_pred/2023-May-05-1615_maxeplen10_maxtrainstep1000_seadep16_gamma099_lrac9e-4_lrcr1e-3/3110d36e974f17e9d190d2a4a051583463654b40_ligand_2.pdbqt
 12 12 0 0 0
SMALL
GASTEIGER

@<TRIPOS>ATOM
      1  C          8.4020   -0.6500   -2.0840 C.3     1  UNL1        0.1270
      2  C          8.3720   -1.9000   -2.8800 C.2     1  UNL1        0.3030
      3  O          7.2860   -2.4100   -3.2490 O.2     1  UNL1       -0.2520
      4  O          9.5470   -2.5420   -3.2370 O.3     1  UNL1       -0.4810
      5  H          9.9120   -3.2870   -2.6390 H       1  UNL1        0.2960
      6  C          7.0220   -0.0650   -2.0750 C.3     1  UNL1        0.0470
      7  C          6.4560    0.1020   -0.7380 C.2     1  UNL1       -0.0470
      8  C          5.8020    1.2610   -0.3900 C.2     1  UNL1        0.0040
      9  C          6.5810   -0.9190    0.1760 C.2     1  UNL1        0.0040
     10  C          5.2850    1.3500    0.9040 C.2     1  UNL1        0.0000
     11  C          6.0700   -0.8290    1.4550 C.2     1  UNL1        0.0000
     12  C          5.4140    0.3290    1.8120 C.2     1  UNL1        0.0000
@<TRIPOS>BOND
     1     3     2    2
     2     4     2    1
     3     4     5    1
     4     2     1    1
     5     1     6    1
     6     6     7    1
     7     7     8    2
     8     7     9    1
     9     8    10    1
    10     9    11    2
    11    10    12    2
    12    11    12    1
