@<TRIPOS>MOLECULE
/home/cewinharhar/GITHUB/reincatalyze/data/processed/docking_pred/2023-May-05-1615_maxeplen10_maxtrainstep1000_seadep16_gamma099_lrac9e-4_lrcr1e-3/3162da3d825baae428df1736f889259fa2bb10a2_ligand_2.pdbqt
 12 12 0 0 0
SMALL
GASTEIGER

@<TRIPOS>ATOM
      1  C          8.3600   -0.5710   -2.2170 C.3     1  UNL1        0.1270
      2  C          8.4230   -1.8710   -2.9260 C.2     1  UNL1        0.3030
      3  O          9.5140   -2.4720   -3.0880 O.2     1  UNL1       -0.2520
      4  O          7.2750   -2.4610   -3.4310 O.3     1  UNL1       -0.4810
      5  H          7.1510   -2.5280   -4.4450 H       1  UNL1        0.2960
      6  C          7.0160   -0.4550   -1.5650 C.3     1  UNL1        0.0470
      7  C          6.8450    0.7590   -0.7690 C.2     1  UNL1       -0.0470
      8  C          7.9220    1.3540   -0.1540 C.2     1  UNL1        0.0040
      9  C          5.5900    1.3060   -0.6400 C.2     1  UNL1        0.0040
     10  C          7.6850    2.5120    0.5910 C.2     1  UNL1        0.0000
     11  C          5.3570    2.4500    0.0970 C.2     1  UNL1        0.0000
     12  C          6.4300    3.0530    0.7160 C.2     1  UNL1        0.0000
@<TRIPOS>BOND
     1     5     4    1
     2     4     2    1
     3     3     2    2
     4     2     1    1
     5     1     6    1
     6     6     7    1
     7     7     9    2
     8     7     8    1
     9     9    11    1
    10     8    10    2
    11    11    12    2
    12    10    12    1
