@<TRIPOS>MOLECULE
/home/cewinharhar/GITHUB/reincatalyze/data/processed/docking_pred/2023-May-05-1615_maxeplen10_maxtrainstep1000_seadep16_gamma099_lrac9e-4_lrcr1e-3/3162da3d825baae428df1736f889259fa2bb10a2_ligand_2.pdbqt
 12 12 0 0 0
SMALL
GASTEIGER

@<TRIPOS>ATOM
      1  C          8.4060   -0.6740   -2.0560 C.3     1  UNL1        0.1270
      2  C          8.3740   -1.9130   -2.8690 C.2     1  UNL1        0.3030
      3  O          7.2870   -2.4110   -3.2540 O.2     1  UNL1       -0.2520
      4  O          9.5460   -2.5580   -3.2270 O.3     1  UNL1       -0.4810
      5  H         10.2330   -2.0650   -3.8040 H       1  UNL1        0.2960
      6  C          7.0340   -0.0720   -2.0610 C.3     1  UNL1        0.0470
      7  C          6.4540    0.0970   -0.7290 C.2     1  UNL1       -0.0470
      8  C          5.7950    1.2560   -0.3920 C.2     1  UNL1        0.0040
      9  C          6.5720   -0.9200    0.1890 C.2     1  UNL1        0.0040
     10  C          5.2650    1.3490    0.8970 C.2     1  UNL1        0.0000
     11  C          6.0480   -0.8270    1.4630 C.2     1  UNL1        0.0000
     12  C          5.3870    0.3310    1.8090 C.2     1  UNL1        0.0000
@<TRIPOS>BOND
     1     5     4    1
     2     3     2    2
     3     4     2    1
     4     2     1    1
     5     6     1    1
     6     6     7    1
     7     7     8    2
     8     7     9    1
     9     8    10    1
    10     9    11    2
    11    10    12    2
    12    11    12    1
