MODEL 1
REMARK VINA RESULT:      -7.0      0.000      0.000
REMARK SMILES O=C(O)CCc1ccccc1
REMARK SMILES IDX 4 1 2 2 1 3 3 4 5 6 6 7 7 8 11 9 8 10 10 11 9 12
REMARK H PARENT 3 5
REMARK Flexibility Score: inf
ROOT
ATOM      1  C   UNL     1       8.406  -0.674  -2.056  1.00  0.00     0.127 C 
ENDROOT
BRANCH   1   2
ATOM      2  C   UNL     1       8.374  -1.913  -2.869  1.00  0.00     0.303 C 
ATOM      3  O   UNL     1       7.287  -2.411  -3.254  1.00  0.00    -0.252 OA
BRANCH   2   4
ATOM      4  O   UNL     1       9.546  -2.558  -3.227  1.00  0.00    -0.481 OA
ATOM      5  H   UNL     1      10.233  -2.065  -3.804  1.00  0.00     0.296 HD
ENDBRANCH   2   4
ENDBRANCH   1   2
BRANCH   1   6
ATOM      6  C   UNL     1       7.034  -0.072  -2.061  1.00  0.00     0.047 C 
BRANCH   6   7
ATOM      7  C   UNL     1       6.454   0.097  -0.729  1.00  0.00    -0.047 A 
ATOM      8  C   UNL     1       5.795   1.256  -0.392  1.00  0.00     0.004 A 
ATOM      9  C   UNL     1       6.572  -0.920   0.189  1.00  0.00     0.004 A 
ATOM     10  C   UNL     1       5.265   1.349   0.897  1.00  0.00     0.000 A 
ATOM     11  C   UNL     1       6.048  -0.827   1.463  1.00  0.00     0.000 A 
ATOM     12  C   UNL     1       5.387   0.331   1.809  1.00  0.00     0.000 A 
ENDBRANCH   6   7
ENDBRANCH   1   6
TORSDOF 4
ENDMDL
MODEL 2
REMARK VINA RESULT:      -6.8      1.404      2.185
REMARK SMILES O=C(O)CCc1ccccc1
REMARK SMILES IDX 4 1 2 2 1 3 3 4 5 6 6 7 7 8 11 9 8 10 10 11 9 12
REMARK H PARENT 3 5
REMARK Flexibility Score: inf
ROOT
ATOM      1  C   UNL     1       8.360  -0.571  -2.217  1.00  0.00     0.127 C 
ENDROOT
BRANCH   1   2
ATOM      2  C   UNL     1       8.423  -1.871  -2.926  1.00  0.00     0.303 C 
ATOM      3  O   UNL     1       9.514  -2.472  -3.088  1.00  0.00    -0.252 OA
BRANCH   2   4
ATOM      4  O   UNL     1       7.275  -2.461  -3.431  1.00  0.00    -0.481 OA
ATOM      5  H   UNL     1       7.151  -2.528  -4.445  1.00  0.00     0.296 HD
ENDBRANCH   2   4
ENDBRANCH   1   2
BRANCH   1   6
ATOM      6  C   UNL     1       7.016  -0.455  -1.565  1.00  0.00     0.047 C 
BRANCH   6   7
ATOM      7  C   UNL     1       6.845   0.759  -0.769  1.00  0.00    -0.047 A 
ATOM      8  C   UNL     1       7.922   1.354  -0.154  1.00  0.00     0.004 A 
ATOM      9  C   UNL     1       5.590   1.306  -0.640  1.00  0.00     0.004 A 
ATOM     10  C   UNL     1       7.685   2.512   0.591  1.00  0.00     0.000 A 
ATOM     11  C   UNL     1       5.357   2.450   0.097  1.00  0.00     0.000 A 
ATOM     12  C   UNL     1       6.430   3.053   0.716  1.00  0.00     0.000 A 
ENDBRANCH   6   7
ENDBRANCH   1   6
TORSDOF 4
ENDMDL
