@<TRIPOS>MOLECULE
/home/cewinharhar/GITHUB/reincatalyze/data/processed/docking_pred/2023-May-05-1615_maxeplen10_maxtrainstep1000_seadep16_gamma099_lrac9e-4_lrcr1e-3/31638bda67923b1bb66f4f033a77b51352de91e4_ligand_2.pdbqt
 12 12 0 0 0
SMALL
GASTEIGER

@<TRIPOS>ATOM
      1  C          8.2450   -6.0890   11.4710 C.3     1  UNL1        0.1270
      2  C          8.0660   -4.6230   11.3460 C.2     1  UNL1        0.3030
      3  O          7.6440   -4.1080   10.2810 O.2     1  UNL1       -0.2520
      4  O          8.3620   -3.7780   12.4030 O.3     1  UNL1       -0.4810
      5  H          7.6700   -3.6450   13.1470 H       1  UNL1        0.2960
      6  C          8.8590   -6.5980   10.2030 C.3     1  UNL1        0.0470
      7  C         10.1610   -7.2360   10.3880 C.2     1  UNL1       -0.0470
      8  C         11.3070   -6.4810   10.4870 C.2     1  UNL1        0.0040
      9  C         10.2320   -8.6080   10.4640 C.2     1  UNL1        0.0040
     10  C         12.5160   -7.1570   10.6630 C.2     1  UNL1        0.0000
     11  C         11.4290   -9.2750   10.6380 C.2     1  UNL1        0.0000
     12  C         12.5810   -8.5250   10.7380 C.2     1  UNL1        0.0000
@<TRIPOS>BOND
     1     6     7    1
     2     6     1    1
     3     3     2    2
     4     7     9    2
     5     7     8    1
     6     9    11    1
     7     8    10    2
     8    11    12    2
     9    10    12    1
    10     2     1    1
    11     2     4    1
    12     4     5    1
