MODEL 1
REMARK VINA RESULT:      -5.5      0.000      0.000
REMARK SMILES O=C(O)CCc1ccccc1
REMARK SMILES IDX 4 1 2 2 1 3 3 4 5 6 6 7 7 8 11 9 8 10 10 11 9 12
REMARK H PARENT 3 5
REMARK Flexibility Score: inf
ROOT
ATOM      1  C   UNL     1       6.341  -0.522   2.732  1.00  0.00     0.127 C 
ENDROOT
BRANCH   1   2
ATOM      2  C   UNL     1       7.093  -1.495   1.905  1.00  0.00     0.303 C 
ATOM      3  O   UNL     1       8.259  -1.248   1.509  1.00  0.00    -0.252 OA
BRANCH   2   4
ATOM      4  O   UNL     1       6.527  -2.707   1.545  1.00  0.00    -0.481 OA
ATOM      5  H   UNL     1       6.467  -3.457   2.239  1.00  0.00     0.296 HD
ENDBRANCH   2   4
ENDBRANCH   1   2
BRANCH   1   6
ATOM      6  C   UNL     1       5.229   0.042   1.901  1.00  0.00     0.047 C 
BRANCH   6   7
ATOM      7  C   UNL     1       5.534   1.341   1.303  1.00  0.00    -0.047 A 
ATOM      8  C   UNL     1       4.895   1.755   0.158  1.00  0.00     0.004 A 
ATOM      9  C   UNL     1       6.471   2.152   1.901  1.00  0.00     0.004 A 
ATOM     10  C   UNL     1       5.236   3.008  -0.357  1.00  0.00     0.000 A 
ATOM     11  C   UNL     1       6.806   3.390   1.390  1.00  0.00     0.000 A 
ATOM     12  C   UNL     1       6.171   3.813   0.243  1.00  0.00     0.000 A 
ENDBRANCH   6   7
ENDBRANCH   1   6
TORSDOF 4
ENDMDL
MODEL 2
REMARK VINA RESULT:      -3.7     11.672     13.450
REMARK SMILES O=C(O)CCc1ccccc1
REMARK SMILES IDX 4 1 2 2 1 3 3 4 5 6 6 7 7 8 11 9 8 10 10 11 9 12
REMARK H PARENT 3 5
REMARK Flexibility Score: inf
ROOT
ATOM      1  C   UNL     1       8.245  -6.089  11.471  1.00  0.00     0.127 C 
ENDROOT
BRANCH   1   2
ATOM      2  C   UNL     1       8.066  -4.623  11.346  1.00  0.00     0.303 C 
ATOM      3  O   UNL     1       7.644  -4.108  10.281  1.00  0.00    -0.252 OA
BRANCH   2   4
ATOM      4  O   UNL     1       8.362  -3.778  12.403  1.00  0.00    -0.481 OA
ATOM      5  H   UNL     1       7.670  -3.645  13.147  1.00  0.00     0.296 HD
ENDBRANCH   2   4
ENDBRANCH   1   2
BRANCH   1   6
ATOM      6  C   UNL     1       8.859  -6.598  10.203  1.00  0.00     0.047 C 
BRANCH   6   7
ATOM      7  C   UNL     1      10.161  -7.236  10.388  1.00  0.00    -0.047 A 
ATOM      8  C   UNL     1      11.307  -6.481  10.487  1.00  0.00     0.004 A 
ATOM      9  C   UNL     1      10.232  -8.608  10.464  1.00  0.00     0.004 A 
ATOM     10  C   UNL     1      12.516  -7.157  10.663  1.00  0.00     0.000 A 
ATOM     11  C   UNL     1      11.429  -9.275  10.638  1.00  0.00     0.000 A 
ATOM     12  C   UNL     1      12.581  -8.525  10.738  1.00  0.00     0.000 A 
ENDBRANCH   6   7
ENDBRANCH   1   6
TORSDOF 4
ENDMDL
MODEL 3
REMARK VINA RESULT:      -3.7     11.714     14.274
REMARK SMILES O=C(O)CCc1ccccc1
REMARK SMILES IDX 4 1 2 2 1 3 3 4 5 6 6 7 7 8 11 9 8 10 10 11 9 12
REMARK H PARENT 3 5
REMARK Flexibility Score: inf
ROOT
ATOM      1  C   UNL     1       7.985  -6.451  10.998  1.00  0.00     0.127 C 
ENDROOT
BRANCH   1   2
ATOM      2  C   UNL     1       8.349  -5.014  11.021  1.00  0.00     0.303 C 
ATOM      3  O   UNL     1       9.321  -4.600  11.699  1.00  0.00    -0.252 OA
BRANCH   2   4
ATOM      4  O   UNL     1       7.622  -4.086  10.293  1.00  0.00    -0.481 OA
ATOM      5  H   UNL     1       8.016  -3.710   9.426  1.00  0.00     0.296 HD
ENDBRANCH   2   4
ENDBRANCH   1   2
BRANCH   1   6
ATOM      6  C   UNL     1       8.674  -7.129  12.142  1.00  0.00     0.047 C 
BRANCH   6   7
ATOM      7  C   UNL     1       9.459  -8.300  11.754  1.00  0.00    -0.047 A 
ATOM      8  C   UNL     1       9.344  -9.484  12.444  1.00  0.00     0.004 A 
ATOM      9  C   UNL     1      10.318  -8.208  10.683  1.00  0.00     0.004 A 
ATOM     10  C   UNL     1      10.123 -10.562  12.017  1.00  0.00     0.000 A 
ATOM     11  C   UNL     1      11.088  -9.274  10.263  1.00  0.00     0.000 A 
ATOM     12  C   UNL     1      10.979 -10.464  10.949  1.00  0.00     0.000 A 
ENDBRANCH   6   7
ENDBRANCH   1   6
TORSDOF 4
ENDMDL
MODEL 4
REMARK VINA RESULT:      -3.7     12.213     13.190
REMARK SMILES O=C(O)CCc1ccccc1
REMARK SMILES IDX 4 1 2 2 1 3 3 4 5 6 6 7 7 8 11 9 8 10 10 11 9 12
REMARK H PARENT 3 5
REMARK Flexibility Score: inf
ROOT
ATOM      1  C   UNL     1      12.328  -7.818  10.433  1.00  0.00     0.127 C 
ENDROOT
BRANCH   1   2
ATOM      2  C   UNL     1      13.615  -7.788   9.698  1.00  0.00     0.303 C 
ATOM      3  O   UNL     1      14.702  -8.027  10.279  1.00  0.00    -0.252 OA
BRANCH   2   4
ATOM      4  O   UNL     1      13.652  -7.494   8.344  1.00  0.00    -0.481 OA
ATOM      5  H   UNL     1      14.526  -7.624   7.827  1.00  0.00     0.296 HD
ENDBRANCH   2   4
ENDBRANCH   1   2
BRANCH   1   6
ATOM      6  C   UNL     1      12.074  -6.451  10.992  1.00  0.00     0.047 C 
BRANCH   6   7
ATOM      7  C   UNL     1      10.656  -6.116  11.119  1.00  0.00    -0.047 A 
ATOM      8  C   UNL     1       9.722  -6.677  10.280  1.00  0.00     0.004 A 
ATOM      9  C   UNL     1      10.262  -5.229  12.095  1.00  0.00     0.004 A 
ATOM     10  C   UNL     1       8.386  -6.311  10.460  1.00  0.00     0.000 A 
ATOM     11  C   UNL     1       8.941  -4.869  12.271  1.00  0.00     0.000 A 
ATOM     12  C   UNL     1       7.999  -5.426  11.434  1.00  0.00     0.000 A 
ENDBRANCH   6   7
ENDBRANCH   1   6
TORSDOF 4
ENDMDL
