@<TRIPOS>MOLECULE
/home/cewinharhar/GITHUB/reincatalyze/data/processed/docking_pred/2023-May-05-1615_maxeplen10_maxtrainstep1000_seadep16_gamma099_lrac9e-4_lrcr1e-3/31638bda67923b1bb66f4f033a77b51352de91e4_ligand_2.pdbqt
 12 12 0 0 0
SMALL
GASTEIGER

@<TRIPOS>ATOM
      1  C         12.3280   -7.8180   10.4330 C.3     1  UNL1        0.1270
      2  C         13.6150   -7.7880    9.6980 C.2     1  UNL1        0.3030
      3  O         14.7020   -8.0270   10.2790 O.2     1  UNL1       -0.2520
      4  O         13.6520   -7.4940    8.3440 O.3     1  UNL1       -0.4810
      5  H         14.5260   -7.6240    7.8270 H       1  UNL1        0.2960
      6  C         12.0740   -6.4510   10.9920 C.3     1  UNL1        0.0470
      7  C         10.6560   -6.1160   11.1190 C.2     1  UNL1       -0.0470
      8  C          9.7220   -6.6770   10.2800 C.2     1  UNL1        0.0040
      9  C         10.2620   -5.2290   12.0950 C.2     1  UNL1        0.0040
     10  C          8.3860   -6.3110   10.4600 C.2     1  UNL1        0.0000
     11  C          8.9410   -4.8690   12.2710 C.2     1  UNL1        0.0000
     12  C          7.9990   -5.4260   11.4340 C.2     1  UNL1        0.0000
@<TRIPOS>BOND
     1     5     4    1
     2     4     2    1
     3     2     3    2
     4     2     1    1
     5     8    10    1
     6     8     7    2
     7     1     6    1
     8    10    12    2
     9     6     7    1
    10     7     9    1
    11    12    11    1
    12     9    11    2
