@<TRIPOS>MOLECULE
/home/cewinharhar/GITHUB/reincatalyze/data/processed/docking_pred/2023-May-05-1615_maxeplen10_maxtrainstep1000_seadep16_gamma099_lrac9e-4_lrcr1e-3/31638bda67923b1bb66f4f033a77b51352de91e4_ligand_2.pdbqt
 12 12 0 0 0
SMALL
GASTEIGER

@<TRIPOS>ATOM
      1  C          7.9850   -6.4510   10.9980 C.3     1  UNL1        0.1270
      2  C          8.3490   -5.0140   11.0210 C.2     1  UNL1        0.3030
      3  O          9.3210   -4.6000   11.6990 O.2     1  UNL1       -0.2520
      4  O          7.6220   -4.0860   10.2930 O.3     1  UNL1       -0.4810
      5  H          8.0160   -3.7100    9.4260 H       1  UNL1        0.2960
      6  C          8.6740   -7.1290   12.1420 C.3     1  UNL1        0.0470
      7  C          9.4590   -8.3000   11.7540 C.2     1  UNL1       -0.0470
      8  C          9.3440   -9.4840   12.4440 C.2     1  UNL1        0.0040
      9  C         10.3180   -8.2080   10.6830 C.2     1  UNL1        0.0040
     10  C         10.1230  -10.5620   12.0170 C.2     1  UNL1        0.0000
     11  C         11.0880   -9.2740   10.2630 C.2     1  UNL1        0.0000
     12  C         10.9790  -10.4640   10.9490 C.2     1  UNL1        0.0000
@<TRIPOS>BOND
     1     5     4    1
     2    11     9    1
     3    11    12    2
     4     4     2    1
     5     9     7    2
     6    12    10    1
     7     1     2    1
     8     1     6    1
     9     2     3    2
    10     7     6    1
    11     7     8    1
    12    10     8    2
