@<TRIPOS>MOLECULE
/home/cewinharhar/GITHUB/reincatalyze/data/processed/docking_pred/2023-May-05-1615_maxeplen10_maxtrainstep1000_seadep16_gamma099_lrac9e-4_lrcr1e-3/31638bda67923b1bb66f4f033a77b51352de91e4_ligand_2.pdbqt
 12 12 0 0 0
SMALL
GASTEIGER

@<TRIPOS>ATOM
      1  C          6.3410   -0.5220    2.7320 C.3     1  UNL1        0.1270
      2  C          7.0930   -1.4950    1.9050 C.2     1  UNL1        0.3030
      3  O          8.2590   -1.2480    1.5090 O.2     1  UNL1       -0.2520
      4  O          6.5270   -2.7070    1.5450 O.3     1  UNL1       -0.4810
      5  H          6.4670   -3.4570    2.2390 H       1  UNL1        0.2960
      6  C          5.2290    0.0420    1.9010 C.3     1  UNL1        0.0470
      7  C          5.5340    1.3410    1.3030 C.2     1  UNL1       -0.0470
      8  C          4.8950    1.7550    0.1580 C.2     1  UNL1        0.0040
      9  C          6.4710    2.1520    1.9010 C.2     1  UNL1        0.0040
     10  C          5.2360    3.0080   -0.3570 C.2     1  UNL1        0.0000
     11  C          6.8060    3.3900    1.3900 C.2     1  UNL1        0.0000
     12  C          6.1710    3.8130    0.2430 C.2     1  UNL1        0.0000
@<TRIPOS>BOND
     1    10     8    1
     2    10    12    2
     3     8     7    2
     4    12    11    1
     5     7     6    1
     6     7     9    1
     7    11     9    2
     8     3     2    2
     9     4     2    1
    10     4     5    1
    11     6     1    1
    12     2     1    1
