MODEL 1
REMARK VINA RESULT:      -7.3      0.000      0.000
REMARK SMILES O=C(O)CCc1ccccc1
REMARK SMILES IDX 4 1 2 2 1 3 3 4 5 6 6 7 7 8 11 9 8 10 10 11 9 12
REMARK H PARENT 3 5
REMARK Flexibility Score: inf
ROOT
ATOM      1  C   UNL     1       8.438  -0.636  -2.148  1.00  0.00     0.127 C 
ENDROOT
BRANCH   1   2
ATOM      2  C   UNL     1       8.476  -1.904  -2.914  1.00  0.00     0.303 C 
ATOM      3  O   UNL     1       9.553  -2.522  -3.097  1.00  0.00    -0.252 OA
BRANCH   2   4
ATOM      4  O   UNL     1       7.318  -2.443  -3.452  1.00  0.00    -0.481 OA
ATOM      5  H   UNL     1       6.742  -1.871  -4.076  1.00  0.00     0.296 HD
ENDBRANCH   2   4
ENDBRANCH   1   2
BRANCH   1   6
ATOM      6  C   UNL     1       7.025  -0.137  -2.132  1.00  0.00     0.047 C 
BRANCH   6   7
ATOM      7  C   UNL     1       6.480   0.062  -0.790  1.00  0.00    -0.047 A 
ATOM      8  C   UNL     1       5.843   1.235  -0.457  1.00  0.00     0.004 A 
ATOM      9  C   UNL     1       6.608  -0.942   0.142  1.00  0.00     0.004 A 
ATOM     10  C   UNL     1       5.346   1.355   0.843  1.00  0.00     0.000 A 
ATOM     11  C   UNL     1       6.116  -0.821   1.426  1.00  0.00     0.000 A 
ATOM     12  C   UNL     1       5.478   0.351   1.769  1.00  0.00     0.000 A 
ENDBRANCH   6   7
ENDBRANCH   1   6
TORSDOF 4
ENDMDL
