MODEL 1
REMARK VINA RESULT:      -7.0      0.000      0.000
REMARK SMILES O=C(O)CCc1ccccc1
REMARK SMILES IDX 4 1 2 2 1 3 3 4 5 6 6 7 7 8 11 9 8 10 10 11 9 12
REMARK H PARENT 3 5
REMARK Flexibility Score: inf
ROOT
ATOM      1  C   UNL     1       8.404  -0.657  -2.078  1.00  0.00     0.127 C 
ENDROOT
BRANCH   1   2
ATOM      2  C   UNL     1       8.373  -1.903  -2.880  1.00  0.00     0.303 C 
ATOM      3  O   UNL     1       7.286  -2.412  -3.249  1.00  0.00    -0.252 OA
BRANCH   2   4
ATOM      4  O   UNL     1       9.547  -2.541  -3.245  1.00  0.00    -0.481 OA
ATOM      5  H   UNL     1       9.876  -2.471  -4.212  1.00  0.00     0.296 HD
ENDBRANCH   2   4
ENDBRANCH   1   2
BRANCH   1   6
ATOM      6  C   UNL     1       7.027  -0.066  -2.073  1.00  0.00     0.047 C 
BRANCH   6   7
ATOM      7  C   UNL     1       6.454   0.094  -0.738  1.00  0.00    -0.047 A 
ATOM      8  C   UNL     1       5.800   1.253  -0.387  1.00  0.00     0.004 A 
ATOM      9  C   UNL     1       6.572  -0.931   0.171  1.00  0.00     0.004 A 
ATOM     10  C   UNL     1       5.276   1.336   0.905  1.00  0.00     0.000 A 
ATOM     11  C   UNL     1       6.054  -0.847   1.448  1.00  0.00     0.000 A 
ATOM     12  C   UNL     1       5.398   0.310   1.808  1.00  0.00     0.000 A 
ENDBRANCH   6   7
ENDBRANCH   1   6
TORSDOF 4
ENDMDL
MODEL 2
REMARK VINA RESULT:      -6.8      1.404      2.202
REMARK SMILES O=C(O)CCc1ccccc1
REMARK SMILES IDX 4 1 2 2 1 3 3 4 5 6 6 7 7 8 11 9 8 10 10 11 9 12
REMARK H PARENT 3 5
REMARK Flexibility Score: inf
ROOT
ATOM      1  C   UNL     1       8.283  -0.507  -2.311  1.00  0.00     0.127 C 
ENDROOT
BRANCH   1   2
ATOM      2  C   UNL     1       8.388  -1.837  -2.956  1.00  0.00     0.303 C 
ATOM      3  O   UNL     1       9.495  -2.416  -3.076  1.00  0.00    -0.252 OA
BRANCH   2   4
ATOM      4  O   UNL     1       7.262  -2.480  -3.445  1.00  0.00    -0.481 OA
ATOM      5  H   UNL     1       6.706  -3.065  -2.816  1.00  0.00     0.296 HD
ENDBRANCH   2   4
ENDBRANCH   1   2
BRANCH   1   6
ATOM      6  C   UNL     1       7.029  -0.479  -1.491  1.00  0.00     0.047 C 
BRANCH   6   7
ATOM      7  C   UNL     1       6.843   0.756  -0.731  1.00  0.00    -0.047 A 
ATOM      8  C   UNL     1       7.906   1.360  -0.100  1.00  0.00     0.004 A 
ATOM      9  C   UNL     1       5.588   1.314  -0.653  1.00  0.00     0.004 A 
ATOM     10  C   UNL     1       7.655   2.538   0.607  1.00  0.00     0.000 A 
ATOM     11  C   UNL     1       5.342   2.479   0.047  1.00  0.00     0.000 A 
ATOM     12  C   UNL     1       6.401   3.090   0.682  1.00  0.00     0.000 A 
ENDBRANCH   6   7
ENDBRANCH   1   6
TORSDOF 4
ENDMDL
