@<TRIPOS>MOLECULE
/home/cewinharhar/GITHUB/reincatalyze/data/processed/docking_pred/2023-May-05-1615_maxeplen10_maxtrainstep1000_seadep16_gamma099_lrac9e-4_lrcr1e-3/32925d028e6f827171d23f19599134de0355568e_ligand_2.pdbqt
 12 12 0 0 0
SMALL
GASTEIGER

@<TRIPOS>ATOM
      1  C          8.4040   -0.6570   -2.0780 C.3     1  UNL1        0.1270
      2  C          8.3730   -1.9030   -2.8800 C.2     1  UNL1        0.3030
      3  O          7.2860   -2.4120   -3.2490 O.2     1  UNL1       -0.2520
      4  O          9.5470   -2.5410   -3.2450 O.3     1  UNL1       -0.4810
      5  H          9.8760   -2.4710   -4.2120 H       1  UNL1        0.2960
      6  C          7.0270   -0.0660   -2.0730 C.3     1  UNL1        0.0470
      7  C          6.4540    0.0940   -0.7380 C.2     1  UNL1       -0.0470
      8  C          5.8000    1.2530   -0.3870 C.2     1  UNL1        0.0040
      9  C          6.5720   -0.9310    0.1710 C.2     1  UNL1        0.0040
     10  C          5.2760    1.3360    0.9050 C.2     1  UNL1        0.0000
     11  C          6.0540   -0.8470    1.4480 C.2     1  UNL1        0.0000
     12  C          5.3980    0.3100    1.8080 C.2     1  UNL1        0.0000
@<TRIPOS>BOND
     1     5     4    1
     2     3     2    2
     3     4     2    1
     4     2     1    1
     5     1     6    1
     6     6     7    1
     7     7     8    2
     8     7     9    1
     9     8    10    1
    10     9    11    2
    11    10    12    2
    12    11    12    1
