@<TRIPOS>MOLECULE
/home/cewinharhar/GITHUB/reincatalyze/data/processed/docking_pred/2023-May-05-1615_maxeplen10_maxtrainstep1000_seadep16_gamma099_lrac9e-4_lrcr1e-3/32925d028e6f827171d23f19599134de0355568e_ligand_2.pdbqt
 12 12 0 0 0
SMALL
GASTEIGER

@<TRIPOS>ATOM
      1  C          8.2830   -0.5070   -2.3110 C.3     1  UNL1        0.1270
      2  C          8.3880   -1.8370   -2.9560 C.2     1  UNL1        0.3030
      3  O          9.4950   -2.4160   -3.0760 O.2     1  UNL1       -0.2520
      4  O          7.2620   -2.4800   -3.4450 O.3     1  UNL1       -0.4810
      5  H          6.7060   -3.0650   -2.8160 H       1  UNL1        0.2960
      6  C          7.0290   -0.4790   -1.4910 C.3     1  UNL1        0.0470
      7  C          6.8430    0.7560   -0.7310 C.2     1  UNL1       -0.0470
      8  C          7.9060    1.3600   -0.1000 C.2     1  UNL1        0.0040
      9  C          5.5880    1.3140   -0.6530 C.2     1  UNL1        0.0040
     10  C          7.6550    2.5380    0.6070 C.2     1  UNL1        0.0000
     11  C          5.3420    2.4790    0.0470 C.2     1  UNL1        0.0000
     12  C          6.4010    3.0900    0.6820 C.2     1  UNL1        0.0000
@<TRIPOS>BOND
     1     4     2    1
     2     4     5    1
     3     3     2    2
     4     2     1    1
     5     1     6    1
     6     6     7    1
     7     7     9    2
     8     7     8    1
     9     9    11    1
    10     8    10    2
    11    11    12    2
    12    10    12    1
