@<TRIPOS>MOLECULE
/home/cewinharhar/GITHUB/reincatalyze/data/processed/docking_pred/2023-May-05-1615_maxeplen10_maxtrainstep1000_seadep16_gamma099_lrac9e-4_lrcr1e-3/36543b95c0c748273319382419c31c9b55863a9a_ligand_2.pdbqt
 12 12 0 0 0
SMALL
GASTEIGER

@<TRIPOS>ATOM
      1  C          8.3430   -0.5370   -2.2830 C.3     1  UNL1        0.1270
      2  C          8.4260   -1.8600   -2.9460 C.2     1  UNL1        0.3030
      3  O          9.5260   -2.4500   -3.0860 O.2     1  UNL1       -0.2520
      4  O          7.2880   -2.4840   -3.4320 O.3     1  UNL1       -0.4810
      5  H          6.5100   -1.9120   -3.7720 H       1  UNL1        0.2960
      6  C          6.9990   -0.4210   -1.6310 C.3     1  UNL1        0.0470
      7  C          6.8420    0.7710   -0.8010 C.2     1  UNL1       -0.0470
      8  C          7.9240    1.3320   -0.1640 C.2     1  UNL1        0.0040
      9  C          5.5940    1.3330   -0.6620 C.2     1  UNL1        0.0040
     10  C          7.7000    2.4720    0.6120 C.2     1  UNL1        0.0000
     11  C          5.3740    2.4590    0.1060 C.2     1  UNL1        0.0000
     12  C          6.4530    3.0270    0.7480 C.2     1  UNL1        0.0000
@<TRIPOS>BOND
     1     5     4    1
     2     4     2    1
     3     3     2    2
     4     2     1    1
     5     1     6    1
     6     6     7    1
     7     7     9    2
     8     7     8    1
     9     9    11    1
    10     8    10    2
    11    11    12    2
    12    10    12    1
