@<TRIPOS>MOLECULE
/home/cewinharhar/GITHUB/reincatalyze/data/processed/docking_pred/2023-May-05-1615_maxeplen10_maxtrainstep1000_seadep16_gamma099_lrac9e-4_lrcr1e-3/367438b83e07ec58543242b49c62b5ced391bd04_ligand_2.pdbqt
 12 12 0 0 0
SMALL
GASTEIGER

@<TRIPOS>ATOM
      1  C          8.4640   -0.6790   -2.0790 C.3     1  UNL1        0.1270
      2  C          8.4790   -1.9220   -2.8860 C.2     1  UNL1        0.3030
      3  O          9.5470   -2.5500   -3.0930 O.2     1  UNL1       -0.2520
      4  O          7.3120   -2.4260   -3.4360 O.3     1  UNL1       -0.4810
      5  H          6.6680   -2.9580   -2.8440 H       1  UNL1        0.2960
      6  C          7.0680   -0.1350   -2.0790 C.3     1  UNL1        0.0470
      7  C          6.4910    0.0220   -0.7450 C.2     1  UNL1       -0.0470
      8  C          5.8230    1.1740   -0.3990 C.2     1  UNL1        0.0040
      9  C          6.6210   -0.9990    0.1670 C.2     1  UNL1        0.0040
     10  C          5.2960    1.2550    0.8920 C.2     1  UNL1        0.0000
     11  C          6.1000   -0.9180    1.4430 C.2     1  UNL1        0.0000
     12  C          5.4290    0.2330    1.7980 C.2     1  UNL1        0.0000
@<TRIPOS>BOND
     1     4     2    1
     2     4     5    1
     3     3     2    2
     4     2     1    1
     5     1     6    1
     6     6     7    1
     7     7     8    2
     8     7     9    1
     9     8    10    1
    10     9    11    2
    11    10    12    2
    12    11    12    1
