MODEL 1
REMARK VINA RESULT:      -7.1      0.000      0.000
REMARK SMILES O=C(O)CCc1ccccc1
REMARK SMILES IDX 4 1 2 2 1 3 3 4 5 6 6 7 7 8 11 9 8 10 10 11 9 12
REMARK H PARENT 3 5
REMARK Flexibility Score: inf
ROOT
ATOM      1  C   UNL     1       8.464  -0.679  -2.079  1.00  0.00     0.127 C 
ENDROOT
BRANCH   1   2
ATOM      2  C   UNL     1       8.479  -1.922  -2.886  1.00  0.00     0.303 C 
ATOM      3  O   UNL     1       9.547  -2.550  -3.093  1.00  0.00    -0.252 OA
BRANCH   2   4
ATOM      4  O   UNL     1       7.312  -2.426  -3.436  1.00  0.00    -0.481 OA
ATOM      5  H   UNL     1       6.668  -2.958  -2.844  1.00  0.00     0.296 HD
ENDBRANCH   2   4
ENDBRANCH   1   2
BRANCH   1   6
ATOM      6  C   UNL     1       7.068  -0.135  -2.079  1.00  0.00     0.047 C 
BRANCH   6   7
ATOM      7  C   UNL     1       6.491   0.022  -0.745  1.00  0.00    -0.047 A 
ATOM      8  C   UNL     1       5.823   1.174  -0.399  1.00  0.00     0.004 A 
ATOM      9  C   UNL     1       6.621  -0.999   0.167  1.00  0.00     0.004 A 
ATOM     10  C   UNL     1       5.296   1.255   0.892  1.00  0.00     0.000 A 
ATOM     11  C   UNL     1       6.100  -0.918   1.443  1.00  0.00     0.000 A 
ATOM     12  C   UNL     1       5.429   0.233   1.798  1.00  0.00     0.000 A 
ENDBRANCH   6   7
ENDBRANCH   1   6
TORSDOF 4
ENDMDL
MODEL 2
REMARK VINA RESULT:      -6.7      1.422      2.238
REMARK SMILES O=C(O)CCc1ccccc1
REMARK SMILES IDX 4 1 2 2 1 3 3 4 5 6 6 7 7 8 11 9 8 10 10 11 9 12
REMARK H PARENT 3 5
REMARK Flexibility Score: inf
ROOT
ATOM      1  C   UNL     1       8.343  -0.642  -2.070  1.00  0.00     0.127 C 
ENDROOT
BRANCH   1   2
ATOM      2  C   UNL     1       8.340  -1.880  -2.884  1.00  0.00     0.303 C 
ATOM      3  O   UNL     1       7.265  -2.402  -3.271  1.00  0.00    -0.252 OA
BRANCH   2   4
ATOM      4  O   UNL     1       9.528  -2.497  -3.242  1.00  0.00    -0.481 OA
ATOM      5  H   UNL     1       9.636  -3.503  -3.087  1.00  0.00     0.296 HD
ENDBRANCH   2   4
ENDBRANCH   1   2
BRANCH   1   6
ATOM      6  C   UNL     1       6.963  -0.435  -1.523  1.00  0.00     0.047 C 
BRANCH   6   7
ATOM      7  C   UNL     1       6.812   0.790  -0.738  1.00  0.00    -0.047 A 
ATOM      8  C   UNL     1       7.896   1.367  -0.120  1.00  0.00     0.004 A 
ATOM      9  C   UNL     1       5.568   1.365  -0.625  1.00  0.00     0.004 A 
ATOM     10  C   UNL     1       7.679   2.536   0.612  1.00  0.00     0.000 A 
ATOM     11  C   UNL     1       5.354   2.521   0.099  1.00  0.00     0.000 A 
ATOM     12  C   UNL     1       6.435   3.105   0.723  1.00  0.00     0.000 A 
ENDBRANCH   6   7
ENDBRANCH   1   6
TORSDOF 4
ENDMDL
