@<TRIPOS>MOLECULE
/home/cewinharhar/GITHUB/reincatalyze/data/processed/docking_pred/2023-May-05-1615_maxeplen10_maxtrainstep1000_seadep16_gamma099_lrac9e-4_lrcr1e-3/367438b83e07ec58543242b49c62b5ced391bd04_ligand_2.pdbqt
 12 12 0 0 0
SMALL
GASTEIGER

@<TRIPOS>ATOM
      1  C          8.3430   -0.6420   -2.0700 C.3     1  UNL1        0.1270
      2  C          8.3400   -1.8800   -2.8840 C.2     1  UNL1        0.3030
      3  O          7.2650   -2.4020   -3.2710 O.2     1  UNL1       -0.2520
      4  O          9.5280   -2.4970   -3.2420 O.3     1  UNL1       -0.4810
      5  H          9.6360   -3.5030   -3.0870 H       1  UNL1        0.2960
      6  C          6.9630   -0.4350   -1.5230 C.3     1  UNL1        0.0470
      7  C          6.8120    0.7900   -0.7380 C.2     1  UNL1       -0.0470
      8  C          7.8960    1.3670   -0.1200 C.2     1  UNL1        0.0040
      9  C          5.5680    1.3650   -0.6250 C.2     1  UNL1        0.0040
     10  C          7.6790    2.5360    0.6120 C.2     1  UNL1        0.0000
     11  C          5.3540    2.5210    0.0990 C.2     1  UNL1        0.0000
     12  C          6.4350    3.1050    0.7230 C.2     1  UNL1        0.0000
@<TRIPOS>BOND
     1     3     2    2
     2     4     5    1
     3     4     2    1
     4     2     1    1
     5     1     6    1
     6     6     7    1
     7     7     9    2
     8     7     8    1
     9     9    11    1
    10     8    10    2
    11    11    12    2
    12    10    12    1
