MODEL 1
REMARK VINA RESULT:      -5.5      0.000      0.000
REMARK SMILES O=C(O)CCc1ccccc1
REMARK SMILES IDX 4 1 2 2 1 3 3 4 5 6 6 7 7 8 11 9 8 10 10 11 9 12
REMARK H PARENT 3 5
REMARK Flexibility Score: inf
ROOT
ATOM      1  C   UNL     1       6.291  -0.555   2.732  1.00  0.00     0.127 C 
ENDROOT
BRANCH   1   2
ATOM      2  C   UNL     1       7.095  -1.488   1.908  1.00  0.00     0.303 C 
ATOM      3  O   UNL     1       8.258  -1.194   1.539  1.00  0.00    -0.252 OA
BRANCH   2   4
ATOM      4  O   UNL     1       6.582  -2.716   1.522  1.00  0.00    -0.481 OA
ATOM      5  H   UNL     1       5.834  -3.143   2.076  1.00  0.00     0.296 HD
ENDBRANCH   2   4
ENDBRANCH   1   2
BRANCH   1   6
ATOM      6  C   UNL     1       5.205   0.017   1.872  1.00  0.00     0.047 C 
BRANCH   6   7
ATOM      7  C   UNL     1       5.523   1.327   1.306  1.00  0.00    -0.047 A 
ATOM      8  C   UNL     1       4.862   1.790   0.192  1.00  0.00     0.004 A 
ATOM      9  C   UNL     1       6.494   2.098   1.902  1.00  0.00     0.004 A 
ATOM     10  C   UNL     1       5.216   3.051  -0.293  1.00  0.00     0.000 A 
ATOM     11  C   UNL     1       6.843   3.344   1.420  1.00  0.00     0.000 A 
ATOM     12  C   UNL     1       6.185   3.816   0.304  1.00  0.00     0.000 A 
ENDBRANCH   6   7
ENDBRANCH   1   6
TORSDOF 4
ENDMDL
MODEL 2
REMARK VINA RESULT:      -3.7     11.416     13.205
REMARK SMILES O=C(O)CCc1ccccc1
REMARK SMILES IDX 4 1 2 2 1 3 3 4 5 6 6 7 7 8 11 9 8 10 10 11 9 12
REMARK H PARENT 3 5
REMARK Flexibility Score: inf
ROOT
ATOM      1  C   UNL     1       7.983  -5.542  11.783  1.00  0.00     0.127 C 
ENDROOT
BRANCH   1   2
ATOM      2  C   UNL     1       7.538  -4.187  11.383  1.00  0.00     0.303 C 
ATOM      3  O   UNL     1       7.574  -3.818  10.183  1.00  0.00    -0.252 OA
BRANCH   2   4
ATOM      4  O   UNL     1       7.068  -3.286  12.325  1.00  0.00    -0.481 OA
ATOM      5  H   UNL     1       7.177  -2.282  12.156  1.00  0.00     0.296 HD
ENDBRANCH   2   4
ENDBRANCH   1   2
BRANCH   1   6
ATOM      6  C   UNL     1       8.540  -6.231  10.575  1.00  0.00     0.047 C 
BRANCH   6   7
ATOM      7  C   UNL     1       9.909  -6.714  10.744  1.00  0.00    -0.047 A 
ATOM      8  C   UNL     1      10.898  -5.877  11.207  1.00  0.00     0.004 A 
ATOM      9  C   UNL     1      10.203  -8.022  10.436  1.00  0.00     0.004 A 
ATOM     10  C   UNL     1      12.183  -6.406  11.345  1.00  0.00     0.000 A 
ATOM     11  C   UNL     1      11.474  -8.543  10.573  1.00  0.00     0.000 A 
ATOM     12  C   UNL     1      12.471  -7.711  11.035  1.00  0.00     0.000 A 
ENDBRANCH   6   7
ENDBRANCH   1   6
TORSDOF 4
ENDMDL
MODEL 3
REMARK VINA RESULT:      -3.7     11.829     14.106
REMARK SMILES O=C(O)CCc1ccccc1
REMARK SMILES IDX 4 1 2 2 1 3 3 4 5 6 6 7 7 8 11 9 8 10 10 11 9 12
REMARK H PARENT 3 5
REMARK Flexibility Score: inf
ROOT
ATOM      1  C   UNL     1       8.060  -5.904  10.778  1.00  0.00     0.127 C 
ENDROOT
BRANCH   1   2
ATOM      2  C   UNL     1       8.276  -4.581  11.411  1.00  0.00     0.303 C 
ATOM      3  O   UNL     1       9.268  -4.367  12.150  1.00  0.00    -0.252 OA
BRANCH   2   4
ATOM      4  O   UNL     1       7.384  -3.541  11.202  1.00  0.00    -0.481 OA
ATOM      5  H   UNL     1       7.731  -2.649  10.836  1.00  0.00     0.296 HD
ENDBRANCH   2   4
ENDBRANCH   1   2
BRANCH   1   6
ATOM      6  C   UNL     1       8.030  -6.942  11.858  1.00  0.00     0.047 C 
BRANCH   6   7
ATOM      7  C   UNL     1       8.993  -8.025  11.668  1.00  0.00    -0.047 A 
ATOM      8  C   UNL     1       8.942  -9.157  12.448  1.00  0.00     0.004 A 
ATOM      9  C   UNL     1       9.956  -7.904  10.693  1.00  0.00     0.004 A 
ATOM     10  C   UNL     1       9.892 -10.152  12.210  1.00  0.00     0.000 A 
ATOM     11  C   UNL     1      10.896  -8.888  10.460  1.00  0.00     0.000 A 
ATOM     12  C   UNL     1      10.852 -10.025  11.238  1.00  0.00     0.000 A 
ENDBRANCH   6   7
ENDBRANCH   1   6
TORSDOF 4
ENDMDL
MODEL 4
REMARK VINA RESULT:      -3.6     12.169     13.324
REMARK SMILES O=C(O)CCc1ccccc1
REMARK SMILES IDX 4 1 2 2 1 3 3 4 5 6 6 7 7 8 11 9 8 10 10 11 9 12
REMARK H PARENT 3 5
REMARK Flexibility Score: inf
ROOT
ATOM      1  C   UNL     1      12.518  -7.843  10.970  1.00  0.00     0.127 C 
ENDROOT
BRANCH   1   2
ATOM      2  C   UNL     1      13.535  -7.954   9.898  1.00  0.00     0.303 C 
ATOM      3  O   UNL     1      14.603  -8.590  10.078  1.00  0.00    -0.252 OA
BRANCH   2   4
ATOM      4  O   UNL     1      13.334  -7.358   8.664  1.00  0.00    -0.481 OA
ATOM      5  H   UNL     1      13.314  -6.336   8.599  1.00  0.00     0.296 HD
ENDBRANCH   2   4
ENDBRANCH   1   2
BRANCH   1   6
ATOM      6  C   UNL     1      12.238  -6.390  11.204  1.00  0.00     0.047 C 
BRANCH   6   7
ATOM      7  C   UNL     1      10.815  -6.058  11.246  1.00  0.00    -0.047 A 
ATOM      8  C   UNL     1      10.325  -5.177  12.182  1.00  0.00     0.004 A 
ATOM      9  C   UNL     1       9.963  -6.637  10.335  1.00  0.00     0.004 A 
ATOM     10  C   UNL     1       8.955  -4.906  12.164  1.00  0.00     0.000 A 
ATOM     11  C   UNL     1       8.608  -6.369  10.318  1.00  0.00     0.000 A 
ATOM     12  C   UNL     1       8.110  -5.487  11.253  1.00  0.00     0.000 A 
ENDBRANCH   6   7
ENDBRANCH   1   6
TORSDOF 4
ENDMDL
