@<TRIPOS>MOLECULE
/home/cewinharhar/GITHUB/reincatalyze/data/processed/docking_pred/2023-May-05-1615_maxeplen10_maxtrainstep1000_seadep16_gamma099_lrac9e-4_lrcr1e-3/37a8b72800122466266a4bb22cdda1f56f02b914_ligand_2.pdbqt
 12 12 0 0 0
SMALL
GASTEIGER

@<TRIPOS>ATOM
      1  C          8.0600   -5.9040   10.7780 C.3     1  UNL1        0.1270
      2  C          8.2760   -4.5810   11.4110 C.2     1  UNL1        0.3030
      3  O          9.2680   -4.3670   12.1500 O.2     1  UNL1       -0.2520
      4  O          7.3840   -3.5410   11.2020 O.3     1  UNL1       -0.4810
      5  H          7.7310   -2.6490   10.8360 H       1  UNL1        0.2960
      6  C          8.0300   -6.9420   11.8580 C.3     1  UNL1        0.0470
      7  C          8.9930   -8.0250   11.6680 C.2     1  UNL1       -0.0470
      8  C          8.9420   -9.1570   12.4480 C.2     1  UNL1        0.0040
      9  C          9.9560   -7.9040   10.6930 C.2     1  UNL1        0.0040
     10  C          9.8920  -10.1520   12.2100 C.2     1  UNL1        0.0000
     11  C         10.8960   -8.8880   10.4600 C.2     1  UNL1        0.0000
     12  C         10.8520  -10.0250   11.2380 C.2     1  UNL1        0.0000
@<TRIPOS>BOND
     1    11     9    1
     2    11    12    2
     3     9     7    2
     4     1     2    1
     5     1     6    1
     6     5     4    1
     7     4     2    1
     8    12    10    1
     9     2     3    2
    10     7     6    1
    11     7     8    1
    12    10     8    2
