@<TRIPOS>MOLECULE
/home/cewinharhar/GITHUB/reincatalyze/data/processed/docking_pred/2023-May-05-1615_maxeplen10_maxtrainstep1000_seadep16_gamma099_lrac9e-4_lrcr1e-3/37a8b72800122466266a4bb22cdda1f56f02b914_ligand_2.pdbqt
 12 12 0 0 0
SMALL
GASTEIGER

@<TRIPOS>ATOM
      1  C          7.9830   -5.5420   11.7830 C.3     1  UNL1        0.1270
      2  C          7.5380   -4.1870   11.3830 C.2     1  UNL1        0.3030
      3  O          7.5740   -3.8180   10.1830 O.2     1  UNL1       -0.2520
      4  O          7.0680   -3.2860   12.3250 O.3     1  UNL1       -0.4810
      5  H          7.1770   -2.2820   12.1560 H       1  UNL1        0.2960
      6  C          8.5400   -6.2310   10.5750 C.3     1  UNL1        0.0470
      7  C          9.9090   -6.7140   10.7440 C.2     1  UNL1       -0.0470
      8  C         10.8980   -5.8770   11.2070 C.2     1  UNL1        0.0040
      9  C         10.2030   -8.0220   10.4360 C.2     1  UNL1        0.0040
     10  C         12.1830   -6.4060   11.3450 C.2     1  UNL1        0.0000
     11  C         11.4740   -8.5430   10.5730 C.2     1  UNL1        0.0000
     12  C         12.4710   -7.7110   11.0350 C.2     1  UNL1        0.0000
@<TRIPOS>BOND
     1     3     2    2
     2     9    11    1
     3     9     7    2
     4    11    12    2
     5     6     7    1
     6     6     1    1
     7     7     8    1
     8    12    10    1
     9     8    10    2
    10     2     1    1
    11     2     4    1
    12     5     4    1
