@<TRIPOS>MOLECULE
/home/cewinharhar/GITHUB/reincatalyze/data/processed/docking_pred/2023-May-05-1615_maxeplen10_maxtrainstep1000_seadep16_gamma099_lrac9e-4_lrcr1e-3/37a8b72800122466266a4bb22cdda1f56f02b914_ligand_2.pdbqt
 12 12 0 0 0
SMALL
GASTEIGER

@<TRIPOS>ATOM
      1  C          6.2910   -0.5550    2.7320 C.3     1  UNL1        0.1270
      2  C          7.0950   -1.4880    1.9080 C.2     1  UNL1        0.3030
      3  O          8.2580   -1.1940    1.5390 O.2     1  UNL1       -0.2520
      4  O          6.5820   -2.7160    1.5220 O.3     1  UNL1       -0.4810
      5  H          5.8340   -3.1430    2.0760 H       1  UNL1        0.2960
      6  C          5.2050    0.0170    1.8720 C.3     1  UNL1        0.0470
      7  C          5.5230    1.3270    1.3060 C.2     1  UNL1       -0.0470
      8  C          4.8620    1.7900    0.1920 C.2     1  UNL1        0.0040
      9  C          6.4940    2.0980    1.9020 C.2     1  UNL1        0.0040
     10  C          5.2160    3.0510   -0.2930 C.2     1  UNL1        0.0000
     11  C          6.8430    3.3440    1.4200 C.2     1  UNL1        0.0000
     12  C          6.1850    3.8160    0.3040 C.2     1  UNL1        0.0000
@<TRIPOS>BOND
     1    10     8    1
     2    10    12    2
     3     8     7    2
     4    12    11    1
     5     7     6    1
     6     7     9    1
     7    11     9    2
     8     4     2    1
     9     4     5    1
    10     3     2    2
    11     6     1    1
    12     2     1    1
