@<TRIPOS>MOLECULE
/home/cewinharhar/GITHUB/reincatalyze/data/processed/docking_pred/2023-May-05-1615_maxeplen10_maxtrainstep1000_seadep16_gamma099_lrac9e-4_lrcr1e-3/37a8b72800122466266a4bb22cdda1f56f02b914_ligand_2.pdbqt
 12 12 0 0 0
SMALL
GASTEIGER

@<TRIPOS>ATOM
      1  C         12.5180   -7.8430   10.9700 C.3     1  UNL1        0.1270
      2  C         13.5350   -7.9540    9.8980 C.2     1  UNL1        0.3030
      3  O         14.6030   -8.5900   10.0780 O.2     1  UNL1       -0.2520
      4  O         13.3340   -7.3580    8.6640 O.3     1  UNL1       -0.4810
      5  H         13.3140   -6.3360    8.5990 H       1  UNL1        0.2960
      6  C         12.2380   -6.3900   11.2040 C.3     1  UNL1        0.0470
      7  C         10.8150   -6.0580   11.2460 C.2     1  UNL1       -0.0470
      8  C         10.3250   -5.1770   12.1820 C.2     1  UNL1        0.0040
      9  C          9.9630   -6.6370   10.3350 C.2     1  UNL1        0.0040
     10  C          8.9550   -4.9060   12.1640 C.2     1  UNL1        0.0000
     11  C          8.6080   -6.3690   10.3180 C.2     1  UNL1        0.0000
     12  C          8.1100   -5.4870   11.2530 C.2     1  UNL1        0.0000
@<TRIPOS>BOND
     1     5     4    1
     2     4     2    1
     3     2     3    2
     4     2     1    1
     5    11     9    1
     6    11    12    2
     7     9     7    2
     8     1     6    1
     9     6     7    1
    10     7     8    1
    11    12    10    1
    12    10     8    2
