@<TRIPOS>MOLECULE
/home/cewinharhar/GITHUB/reincatalyze/data/processed/docking_pred/2023-May-05-1615_maxeplen10_maxtrainstep1000_seadep16_gamma099_lrac9e-4_lrcr1e-3/3b11ad51370e6150fddf32b3aa65dd5e24197163_ligand_2.pdbqt
 12 12 0 0 0
SMALL
GASTEIGER

@<TRIPOS>ATOM
      1  C          8.3900   -0.6500   -2.0710 C.3     1  UNL1        0.1270
      2  C          8.3840   -1.8860   -2.8890 C.2     1  UNL1        0.3030
      3  O          7.3070   -2.4300   -3.2380 O.2     1  UNL1       -0.2520
      4  O          9.5710   -2.4760   -3.2920 O.3     1  UNL1       -0.4810
      5  H          9.8780   -2.3710   -4.2630 H       1  UNL1        0.2960
      6  C          7.0000   -0.0900   -2.0540 C.3     1  UNL1        0.0470
      7  C          6.4400    0.0710   -0.7140 C.2     1  UNL1       -0.0470
      8  C          5.7850    1.2280   -0.3590 C.2     1  UNL1        0.0040
      9  C          6.5720   -0.9520    0.1960 C.2     1  UNL1        0.0040
     10  C          5.2750    1.3120    0.9380 C.2     1  UNL1        0.0000
     11  C          6.0670   -0.8670    1.4790 C.2     1  UNL1        0.0000
     12  C          5.4100    0.2890    1.8420 C.2     1  UNL1        0.0000
@<TRIPOS>BOND
     1     5     4    1
     2     4     2    1
     3     3     2    2
     4     2     1    1
     5     1     6    1
     6     6     7    1
     7     7     8    2
     8     7     9    1
     9     8    10    1
    10     9    11    2
    11    10    12    2
    12    11    12    1
