@<TRIPOS>MOLECULE
/home/cewinharhar/GITHUB/reincatalyze/data/processed/docking_pred/2023-May-05-1615_maxeplen10_maxtrainstep1000_seadep16_gamma099_lrac9e-4_lrcr1e-3/3b11ad51370e6150fddf32b3aa65dd5e24197163_ligand_2.pdbqt
 12 12 0 0 0
SMALL
GASTEIGER

@<TRIPOS>ATOM
      1  C          7.5110   -1.5360   -1.4520 C.3     1  UNL1        0.1270
      2  C          8.1380   -1.9310   -2.7360 C.2     1  UNL1        0.3030
      3  O          7.5340   -2.6650   -3.5570 O.2     1  UNL1       -0.2520
      4  O          9.4140   -1.5020   -3.0650 O.3     1  UNL1       -0.4810
      5  H          9.9570   -2.0270   -3.7550 H       1  UNL1        0.2960
      6  C          6.9730   -0.1450   -1.6000 C.3     1  UNL1        0.0470
      7  C          6.2670    0.3480   -0.4190 C.2     1  UNL1       -0.0470
      8  C          5.6320    1.5680   -0.4380 C.2     1  UNL1        0.0040
      9  C          6.2410   -0.4250    0.7190 C.2     1  UNL1        0.0040
     10  C          4.9760    1.9750    0.7270 C.2     1  UNL1        0.0000
     11  C          5.5930   -0.0210    1.8690 C.2     1  UNL1        0.0000
     12  C          4.9550    1.2010    1.8590 C.2     1  UNL1        0.0000
@<TRIPOS>BOND
     1     5     4    1
     2     3     2    2
     3     4     2    1
     4     2     1    1
     5     6     1    1
     6     6     7    1
     7     8     7    2
     8     8    10    1
     9     7     9    1
    10     9    11    2
    11    10    12    2
    12    12    11    1
