@<TRIPOS>MOLECULE
/home/cewinharhar/GITHUB/reincatalyze/data/processed/docking_pred/2023-May-05-1615_maxeplen10_maxtrainstep1000_seadep16_gamma099_lrac9e-4_lrcr1e-3/3b11ad51370e6150fddf32b3aa65dd5e24197163_ligand_2.pdbqt
 12 12 0 0 0
SMALL
GASTEIGER

@<TRIPOS>ATOM
      1  C          5.5290    1.4020   -0.2670 C.3     1  UNL1        0.1270
      2  C          5.3410    1.7430    1.1620 C.2     1  UNL1        0.3030
      3  O          5.6120    2.8890    1.5990 O.2     1  UNL1       -0.2520
      4  O          4.8590    0.8040    2.0590 O.3     1  UNL1       -0.4810
      5  H          4.8080   -0.1790    1.7760 H       1  UNL1        0.2960
      6  C          6.3610    0.1580   -0.3480 C.3     1  UNL1        0.0470
      7  C          7.5470    0.2900   -1.1930 C.2     1  UNL1       -0.0470
      8  C          7.5030   -0.0490   -2.5250 C.2     1  UNL1        0.0040
      9  C          8.7150    0.7620   -0.6400 C.2     1  UNL1        0.0040
     10  C          8.6740    0.1030   -3.2720 C.2     1  UNL1        0.0000
     11  C          9.8720    0.9110   -1.3800 C.2     1  UNL1        0.0000
     12  C          9.8360    0.5730   -2.7150 C.2     1  UNL1        0.0000
@<TRIPOS>BOND
     1    10    12    2
     2    10     8    1
     3    12    11    1
     4     8     7    2
     5    11     9    2
     6     7     9    1
     7     7     6    1
     8     6     1    1
     9     1     2    1
    10     2     3    2
    11     2     4    1
    12     5     4    1
