MODEL 1
REMARK VINA RESULT:      -7.1      0.000      0.000
REMARK SMILES O=C(O)CCc1ccccc1
REMARK SMILES IDX 4 1 2 2 1 3 3 4 5 6 6 7 7 8 11 9 8 10 10 11 9 12
REMARK H PARENT 3 5
REMARK Flexibility Score: inf
ROOT
ATOM      1  C   UNL     1       8.390  -0.650  -2.071  1.00  0.00     0.127 C 
ENDROOT
BRANCH   1   2
ATOM      2  C   UNL     1       8.384  -1.886  -2.889  1.00  0.00     0.303 C 
ATOM      3  O   UNL     1       7.307  -2.430  -3.238  1.00  0.00    -0.252 OA
BRANCH   2   4
ATOM      4  O   UNL     1       9.571  -2.476  -3.292  1.00  0.00    -0.481 OA
ATOM      5  H   UNL     1       9.878  -2.371  -4.263  1.00  0.00     0.296 HD
ENDBRANCH   2   4
ENDBRANCH   1   2
BRANCH   1   6
ATOM      6  C   UNL     1       7.000  -0.090  -2.054  1.00  0.00     0.047 C 
BRANCH   6   7
ATOM      7  C   UNL     1       6.440   0.071  -0.714  1.00  0.00    -0.047 A 
ATOM      8  C   UNL     1       5.785   1.228  -0.359  1.00  0.00     0.004 A 
ATOM      9  C   UNL     1       6.572  -0.952   0.196  1.00  0.00     0.004 A 
ATOM     10  C   UNL     1       5.275   1.312   0.938  1.00  0.00     0.000 A 
ATOM     11  C   UNL     1       6.067  -0.867   1.479  1.00  0.00     0.000 A 
ATOM     12  C   UNL     1       5.410   0.289   1.842  1.00  0.00     0.000 A 
ENDBRANCH   6   7
ENDBRANCH   1   6
TORSDOF 4
ENDMDL
MODEL 2
REMARK VINA RESULT:      -6.7      3.320      5.135
REMARK SMILES O=C(O)CCc1ccccc1
REMARK SMILES IDX 4 1 2 2 1 3 3 4 5 6 6 7 7 8 11 9 8 10 10 11 9 12
REMARK H PARENT 3 5
REMARK Flexibility Score: inf
ROOT
ATOM      1  C   UNL     1       5.529   1.402  -0.267  1.00  0.00     0.127 C 
ENDROOT
BRANCH   1   2
ATOM      2  C   UNL     1       5.341   1.743   1.162  1.00  0.00     0.303 C 
ATOM      3  O   UNL     1       5.612   2.889   1.599  1.00  0.00    -0.252 OA
BRANCH   2   4
ATOM      4  O   UNL     1       4.859   0.804   2.059  1.00  0.00    -0.481 OA
ATOM      5  H   UNL     1       4.808  -0.179   1.776  1.00  0.00     0.296 HD
ENDBRANCH   2   4
ENDBRANCH   1   2
BRANCH   1   6
ATOM      6  C   UNL     1       6.361   0.158  -0.348  1.00  0.00     0.047 C 
BRANCH   6   7
ATOM      7  C   UNL     1       7.547   0.290  -1.193  1.00  0.00    -0.047 A 
ATOM      8  C   UNL     1       7.503  -0.049  -2.525  1.00  0.00     0.004 A 
ATOM      9  C   UNL     1       8.715   0.762  -0.640  1.00  0.00     0.004 A 
ATOM     10  C   UNL     1       8.674   0.103  -3.272  1.00  0.00     0.000 A 
ATOM     11  C   UNL     1       9.872   0.911  -1.380  1.00  0.00     0.000 A 
ATOM     12  C   UNL     1       9.836   0.573  -2.715  1.00  0.00     0.000 A 
ENDBRANCH   6   7
ENDBRANCH   1   6
TORSDOF 4
ENDMDL
