@<TRIPOS>MOLECULE
/home/cewinharhar/GITHUB/reincatalyze/data/processed/docking_pred/2023-May-05-1615_maxeplen10_maxtrainstep1000_seadep16_gamma099_lrac9e-4_lrcr1e-3/3b98b0574a09314ff34419eb6cee054edaec9098_ligand_2.pdbqt
 12 12 0 0 0
SMALL
GASTEIGER

@<TRIPOS>ATOM
      1  C          8.2870   -0.5730   -2.1470 C.3     1  UNL1        0.1270
      2  C          8.3100   -1.8410   -2.9130 C.2     1  UNL1        0.3030
      3  O          7.2460   -2.3910   -3.2910 O.2     1  UNL1       -0.2520
      4  O          9.5090   -2.4550   -3.2340 O.3     1  UNL1       -0.4810
      5  H          9.5700   -3.4770   -3.2120 H       1  UNL1        0.2960
      6  C          6.9660   -0.4690   -1.4470 C.3     1  UNL1        0.0470
      7  C          6.7870    0.7720   -0.6960 C.2     1  UNL1       -0.0470
      8  C          5.5530    1.3730   -0.6120 C.2     1  UNL1        0.0040
      9  C          7.8720    1.3370   -0.0650 C.2     1  UNL1        0.0040
     10  C          5.4550    2.5560    0.1240 C.2     1  UNL1        0.0000
     11  C          7.7740    2.5070    0.6620 C.2     1  UNL1        0.0000
     12  C          6.5410    3.1160    0.7490 C.2     1  UNL1        0.0000
@<TRIPOS>BOND
     1     3     2    2
     2     4     5    1
     3     4     2    1
     4     2     1    1
     5     1     6    1
     6     6     7    1
     7     7     8    2
     8     7     9    1
     9     8    10    1
    10     9    11    2
    11    10    12    2
    12    11    12    1
