@<TRIPOS>MOLECULE
/home/cewinharhar/GITHUB/reincatalyze/data/processed/docking_pred/2023-May-05-1615_maxeplen10_maxtrainstep1000_seadep16_gamma099_lrac9e-4_lrcr1e-3/3b98b0574a09314ff34419eb6cee054edaec9098_ligand_2.pdbqt
 12 12 0 0 0
SMALL
GASTEIGER

@<TRIPOS>ATOM
      1  C          8.4560   -0.6280   -2.1240 C.3     1  UNL1        0.1270
      2  C          8.4910   -1.9040   -2.8770 C.2     1  UNL1        0.3030
      3  O          9.5690   -2.5210   -3.0630 O.2     1  UNL1       -0.2520
      4  O          7.3300   -2.4530   -3.3980 O.3     1  UNL1       -0.4810
      5  H          6.5210   -1.8490   -3.5630 H       1  UNL1        0.2960
      6  C          7.0460   -0.1220   -2.1210 C.3     1  UNL1        0.0470
      7  C          6.4780    0.0480   -0.7850 C.2     1  UNL1       -0.0470
      8  C          6.5910   -0.9470    0.1590 C.2     1  UNL1        0.0040
      9  C          5.8270    1.2190   -0.4750 C.2     1  UNL1        0.0040
     10  C          6.0260   -0.7170    1.4150 C.2     1  UNL1        0.0000
     11  C          5.2680    1.4450    0.7670 C.2     1  UNL1        0.0000
     12  C          5.3760    0.4530    1.7170 C.2     1  UNL1        0.0000
@<TRIPOS>BOND
     1     5     4    1
     2     4     2    1
     3     3     2    2
     4     2     1    1
     5     1     6    1
     6     6     7    1
     7     7     9    2
     8     7     8    1
     9     9    11    1
    10     8    10    2
    11    11    12    2
    12    10    12    1
