MODEL 1
REMARK VINA RESULT:      -7.1      0.000      0.000
REMARK SMILES O=C(O)CCc1ccccc1
REMARK SMILES IDX 4 1 2 2 1 3 3 4 5 6 6 7 7 8 11 9 8 10 10 11 9 12
REMARK H PARENT 3 5
REMARK Flexibility Score: inf
ROOT
ATOM      1  C   UNL     1       8.456  -0.628  -2.124  1.00  0.00     0.127 C 
ENDROOT
BRANCH   1   2
ATOM      2  C   UNL     1       8.491  -1.904  -2.877  1.00  0.00     0.303 C 
ATOM      3  O   UNL     1       9.569  -2.521  -3.063  1.00  0.00    -0.252 OA
BRANCH   2   4
ATOM      4  O   UNL     1       7.330  -2.453  -3.398  1.00  0.00    -0.481 OA
ATOM      5  H   UNL     1       6.521  -1.849  -3.563  1.00  0.00     0.296 HD
ENDBRANCH   2   4
ENDBRANCH   1   2
BRANCH   1   6
ATOM      6  C   UNL     1       7.046  -0.122  -2.121  1.00  0.00     0.047 C 
BRANCH   6   7
ATOM      7  C   UNL     1       6.478   0.048  -0.785  1.00  0.00    -0.047 A 
ATOM      8  C   UNL     1       6.591  -0.947   0.159  1.00  0.00     0.004 A 
ATOM      9  C   UNL     1       5.827   1.219  -0.475  1.00  0.00     0.004 A 
ATOM     10  C   UNL     1       6.026  -0.717   1.415  1.00  0.00     0.000 A 
ATOM     11  C   UNL     1       5.268   1.445   0.767  1.00  0.00     0.000 A 
ATOM     12  C   UNL     1       5.376   0.453   1.717  1.00  0.00     0.000 A 
ENDBRANCH   6   7
ENDBRANCH   1   6
TORSDOF 4
ENDMDL
MODEL 2
REMARK VINA RESULT:      -6.6      1.336      2.183
REMARK SMILES O=C(O)CCc1ccccc1
REMARK SMILES IDX 4 1 2 2 1 3 3 4 5 6 6 7 7 8 11 9 8 10 10 11 9 12
REMARK H PARENT 3 5
REMARK Flexibility Score: inf
ROOT
ATOM      1  C   UNL     1       8.287  -0.573  -2.147  1.00  0.00     0.127 C 
ENDROOT
BRANCH   1   2
ATOM      2  C   UNL     1       8.310  -1.841  -2.913  1.00  0.00     0.303 C 
ATOM      3  O   UNL     1       7.246  -2.391  -3.291  1.00  0.00    -0.252 OA
BRANCH   2   4
ATOM      4  O   UNL     1       9.509  -2.455  -3.234  1.00  0.00    -0.481 OA
ATOM      5  H   UNL     1       9.570  -3.477  -3.212  1.00  0.00     0.296 HD
ENDBRANCH   2   4
ENDBRANCH   1   2
BRANCH   1   6
ATOM      6  C   UNL     1       6.966  -0.469  -1.447  1.00  0.00     0.047 C 
BRANCH   6   7
ATOM      7  C   UNL     1       6.787   0.772  -0.696  1.00  0.00    -0.047 A 
ATOM      8  C   UNL     1       5.553   1.373  -0.612  1.00  0.00     0.004 A 
ATOM      9  C   UNL     1       7.872   1.337  -0.065  1.00  0.00     0.004 A 
ATOM     10  C   UNL     1       5.455   2.556   0.124  1.00  0.00     0.000 A 
ATOM     11  C   UNL     1       7.774   2.507   0.662  1.00  0.00     0.000 A 
ATOM     12  C   UNL     1       6.541   3.116   0.749  1.00  0.00     0.000 A 
ENDBRANCH   6   7
ENDBRANCH   1   6
TORSDOF 4
ENDMDL
