@<TRIPOS>MOLECULE
/home/cewinharhar/GITHUB/reincatalyze/data/processed/docking_pred/2023-May-05-1615_maxeplen10_maxtrainstep1000_seadep16_gamma099_lrac9e-4_lrcr1e-3/3bf4b9a3f06cfa5433c2fd34b58c3faf64c233d9_ligand_2.pdbqt
 12 12 0 0 0
SMALL
GASTEIGER

@<TRIPOS>ATOM
      1  C          8.4050   -0.6620   -2.0660 C.3     1  UNL1        0.1270
      2  C          8.3750   -1.9010   -2.8780 C.2     1  UNL1        0.3030
      3  O          7.2880   -2.4140   -3.2420 O.2     1  UNL1       -0.2520
      4  O          9.5490   -2.5310   -3.2570 O.3     1  UNL1       -0.4810
      5  H          9.9830   -3.2070   -2.6230 H       1  UNL1        0.2960
      6  C          7.0310   -0.0650   -2.0660 C.3     1  UNL1        0.0470
      7  C          6.4570    0.1060   -0.7330 C.2     1  UNL1       -0.0470
      8  C          5.8060    1.2690   -0.3910 C.2     1  UNL1        0.0040
      9  C          6.5720   -0.9140    0.1840 C.2     1  UNL1        0.0040
     10  C          5.2810    1.3620    0.9000 C.2     1  UNL1        0.0000
     11  C          6.0530   -0.8190    1.4600 C.2     1  UNL1        0.0000
     12  C          5.4000    0.3430    1.8100 C.2     1  UNL1        0.0000
@<TRIPOS>BOND
     1     4     2    1
     2     4     5    1
     3     3     2    2
     4     2     1    1
     5     1     6    1
     6     6     7    1
     7     7     8    2
     8     7     9    1
     9     8    10    1
    10     9    11    2
    11    10    12    2
    12    11    12    1
