@<TRIPOS>MOLECULE
/home/cewinharhar/GITHUB/reincatalyze/data/processed/docking_pred/2023-May-05-1615_maxeplen10_maxtrainstep1000_seadep16_gamma099_lrac9e-4_lrcr1e-3/3c607cf36dcc024da10d53d595c24d9744c2a083_ligand_2.pdbqt
 12 12 0 0 0
SMALL
GASTEIGER

@<TRIPOS>ATOM
      1  C          8.4360   -0.6450   -2.1320 C.3     1  UNL1        0.1270
      2  C          8.4720   -1.9040   -2.9130 C.2     1  UNL1        0.3030
      3  O          9.5480   -2.5250   -3.0970 O.2     1  UNL1       -0.2520
      4  O          7.3150   -2.4320   -3.4630 O.3     1  UNL1       -0.4810
      5  H          7.2520   -3.4410   -3.6230 H       1  UNL1        0.2960
      6  C          7.0260   -0.1390   -2.1200 C.3     1  UNL1        0.0470
      7  C          6.4760    0.0530   -0.7790 C.2     1  UNL1       -0.0470
      8  C          5.8360    1.2230   -0.4420 C.2     1  UNL1        0.0040
      9  C          6.6020   -0.9550    0.1490 C.2     1  UNL1        0.0040
     10  C          5.3340    1.3370    0.8560 C.2     1  UNL1        0.0000
     11  C          6.1050   -0.8400    1.4320 C.2     1  UNL1        0.0000
     12  C          5.4630    0.3290    1.7780 C.2     1  UNL1        0.0000
@<TRIPOS>BOND
     1     5     4    1
     2     4     2    1
     3     3     2    2
     4     2     1    1
     5     1     6    1
     6     6     7    1
     7     7     8    2
     8     7     9    1
     9     8    10    1
    10     9    11    2
    11    10    12    2
    12    11    12    1
