@<TRIPOS>MOLECULE
/home/cewinharhar/GITHUB/reincatalyze/data/processed/docking_pred/2023-May-05-1615_maxeplen10_maxtrainstep1000_seadep16_gamma099_lrac9e-4_lrcr1e-3/3c93f0ab1d0179ecce707f4524a6ff468bff7290_ligand_2.pdbqt
 12 12 0 0 0
SMALL
GASTEIGER

@<TRIPOS>ATOM
      1  C          5.9390   -0.8980    1.7660 C.3     1  UNL1        0.1270
      2  C          5.3740    0.4440    2.0440 C.2     1  UNL1        0.3030
      3  O          4.1980    0.5810    2.4620 O.2     1  UNL1       -0.2520
      4  O          6.1320    1.5870    1.8500 O.3     1  UNL1       -0.4810
      5  H          5.7230    2.5010    2.0610 H       1  UNL1        0.2960
      6  C          7.4010   -0.7430    1.4790 C.3     1  UNL1        0.0470
      7  C          7.7210   -0.6470    0.0560 C.2     1  UNL1       -0.0470
      8  C          8.8630   -0.0080   -0.3670 C.2     1  UNL1        0.0040
      9  C          6.8650   -1.2070   -0.8640 C.2     1  UNL1        0.0040
     10  C          9.1060    0.0450   -1.7410 C.2     1  UNL1        0.0000
     11  C          7.1060   -1.1530   -2.2230 C.2     1  UNL1        0.0000
     12  C          8.2480   -0.5140   -2.6540 C.2     1  UNL1        0.0000
@<TRIPOS>BOND
     1    12    11    2
     2    12    10    1
     3    11     9    1
     4    10     8    2
     5     9     7    2
     6     8     7    1
     7     7     6    1
     8     6     1    1
     9     1     2    1
    10     4     2    1
    11     4     5    1
    12     2     3    2
