@<TRIPOS>MOLECULE
/home/cewinharhar/GITHUB/reincatalyze/data/processed/docking_pred/2023-May-05-1615_maxeplen10_maxtrainstep1000_seadep16_gamma099_lrac9e-4_lrcr1e-3/3c93f0ab1d0179ecce707f4524a6ff468bff7290_ligand_2.pdbqt
 12 12 0 0 0
SMALL
GASTEIGER

@<TRIPOS>ATOM
      1  C          5.0120   -0.1180    1.9890 C.3     1  UNL1        0.1270
      2  C          4.3480    1.2060    1.9510 C.2     1  UNL1        0.3030
      3  O          4.8610    2.1740    1.3370 O.2     1  UNL1       -0.2520
      4  O          3.1390    1.4130    2.5960 O.3     1  UNL1       -0.4810
      5  H          2.6950    2.3340    2.5440 H       1  UNL1        0.2960
      6  C          6.4720    0.0790    1.7120 C.3     1  UNL1        0.0470
      7  C          6.9730   -0.7010    0.5830 C.2     1  UNL1       -0.0470
      8  C          6.6370   -0.3660   -0.7080 C.2     1  UNL1        0.0040
      9  C          7.7920   -1.7800    0.8230 C.2     1  UNL1        0.0040
     10  C          7.1540   -1.1560   -1.7380 C.2     1  UNL1        0.0000
     11  C          8.3010   -2.5600   -0.1960 C.2     1  UNL1        0.0000
     12  C          7.9690   -2.2320   -1.4920 C.2     1  UNL1        0.0000
@<TRIPOS>BOND
     1    10    12    2
     2    10     8    1
     3    12    11    1
     4     8     7    2
     5    11     9    2
     6     7     9    1
     7     7     6    1
     8     3     2    2
     9     6     1    1
    10     2     1    1
    11     2     4    1
    12     5     4    1
