@<TRIPOS>MOLECULE
/home/cewinharhar/GITHUB/reincatalyze/data/processed/docking_pred/2023-May-05-1615_maxeplen10_maxtrainstep1000_seadep16_gamma099_lrac9e-4_lrcr1e-3/3c93f0ab1d0179ecce707f4524a6ff468bff7290_ligand_2.pdbqt
 12 12 0 0 0
SMALL
GASTEIGER

@<TRIPOS>ATOM
      1  C          8.3120   -0.6850   -2.1670 C.3     1  UNL1        0.1270
      2  C          8.4330   -1.9500   -2.9300 C.2     1  UNL1        0.3030
      3  O          9.5490   -2.5010   -3.1020 O.2     1  UNL1       -0.2520
      4  O          7.3160   -2.5600   -3.4760 O.3     1  UNL1       -0.4810
      5  H          7.3040   -2.7810   -4.4750 H       1  UNL1        0.2960
      6  C          6.8860   -0.5320   -1.7330 C.3     1  UNL1        0.0470
      7  C          6.6820   -0.6980   -0.2950 C.2     1  UNL1       -0.0470
      8  C          7.2860   -1.7280    0.3880 C.2     1  UNL1        0.0040
      9  C          5.8750    0.1920    0.3760 C.2     1  UNL1        0.0040
     10  C          7.0480   -1.8250    1.7600 C.2     1  UNL1        0.0000
     11  C          5.6400    0.0940    1.7330 C.2     1  UNL1        0.0000
     12  C          6.2420   -0.9350    2.4240 C.2     1  UNL1        0.0000
@<TRIPOS>BOND
     1     5     4    1
     2     4     2    1
     3     3     2    2
     4     2     1    1
     5     1     6    1
     6     6     7    1
     7     7     9    2
     8     7     8    1
     9     9    11    1
    10     8    10    2
    11    11    12    2
    12    10    12    1
