@<TRIPOS>MOLECULE
/home/cewinharhar/GITHUB/reincatalyze/data/processed/docking_pred/2023-May-05-1615_maxeplen10_maxtrainstep1000_seadep16_gamma099_lrac9e-4_lrcr1e-3/3c93f0ab1d0179ecce707f4524a6ff468bff7290_ligand_2.pdbqt
 12 12 0 0 0
SMALL
GASTEIGER

@<TRIPOS>ATOM
      1  C          8.2650   -1.2950   -1.9450 C.3     1  UNL1        0.1270
      2  C          8.8960    0.0430   -2.0330 C.2     1  UNL1        0.3030
      3  O          8.3700    0.9680   -2.6990 O.2     1  UNL1       -0.2520
      4  O         10.0890    0.3090   -1.3810 O.3     1  UNL1       -0.4810
      5  H         10.6420    1.1250   -1.6600 H       1  UNL1        0.2960
      6  C          6.8160   -1.1110   -1.6110 C.3     1  UNL1        0.0470
      7  C          6.5580   -0.8910   -0.1890 C.2     1  UNL1       -0.0470
      8  C          5.8340    0.2000    0.2340 C.2     1  UNL1        0.0040
      9  C          7.0450   -1.7920    0.7290 C.2     1  UNL1        0.0040
     10  C          5.6250    0.3470    1.6070 C.2     1  UNL1        0.0000
     11  C          6.8380   -1.6450    2.0870 C.2     1  UNL1        0.0000
     12  C          6.1150   -0.5550    2.5180 C.2     1  UNL1        0.0000
@<TRIPOS>BOND
     1     3     2    2
     2     2     1    1
     3     2     4    1
     4     1     6    1
     5     5     4    1
     6     6     7    1
     7     7     8    2
     8     7     9    1
     9     8    10    1
    10     9    11    2
    11    10    12    2
    12    11    12    1
