MODEL 1
REMARK VINA RESULT:      -6.5      0.000      0.000
REMARK SMILES O=C(O)CCc1ccccc1
REMARK SMILES IDX 4 1 2 2 1 3 3 4 5 6 6 7 7 8 11 9 8 10 10 11 9 12
REMARK H PARENT 3 5
REMARK Flexibility Score: inf
ROOT
ATOM      1  C   UNL     1       8.312  -0.685  -2.167  1.00  0.00     0.127 C 
ENDROOT
BRANCH   1   2
ATOM      2  C   UNL     1       8.433  -1.950  -2.930  1.00  0.00     0.303 C 
ATOM      3  O   UNL     1       9.549  -2.501  -3.102  1.00  0.00    -0.252 OA
BRANCH   2   4
ATOM      4  O   UNL     1       7.316  -2.560  -3.476  1.00  0.00    -0.481 OA
ATOM      5  H   UNL     1       7.304  -2.781  -4.475  1.00  0.00     0.296 HD
ENDBRANCH   2   4
ENDBRANCH   1   2
BRANCH   1   6
ATOM      6  C   UNL     1       6.886  -0.532  -1.733  1.00  0.00     0.047 C 
BRANCH   6   7
ATOM      7  C   UNL     1       6.682  -0.698  -0.295  1.00  0.00    -0.047 A 
ATOM      8  C   UNL     1       7.286  -1.728   0.388  1.00  0.00     0.004 A 
ATOM      9  C   UNL     1       5.875   0.192   0.376  1.00  0.00     0.004 A 
ATOM     10  C   UNL     1       7.048  -1.825   1.760  1.00  0.00     0.000 A 
ATOM     11  C   UNL     1       5.640   0.094   1.733  1.00  0.00     0.000 A 
ATOM     12  C   UNL     1       6.242  -0.935   2.424  1.00  0.00     0.000 A 
ENDBRANCH   6   7
ENDBRANCH   1   6
TORSDOF 4
ENDMDL
MODEL 2
REMARK VINA RESULT:      -6.3      3.192      4.942
REMARK SMILES O=C(O)CCc1ccccc1
REMARK SMILES IDX 4 1 2 2 1 3 3 4 5 6 6 7 7 8 11 9 8 10 10 11 9 12
REMARK H PARENT 3 5
REMARK Flexibility Score: inf
ROOT
ATOM      1  C   UNL     1       5.939  -0.898   1.766  1.00  0.00     0.127 C 
ENDROOT
BRANCH   1   2
ATOM      2  C   UNL     1       5.374   0.444   2.044  1.00  0.00     0.303 C 
ATOM      3  O   UNL     1       4.198   0.581   2.462  1.00  0.00    -0.252 OA
BRANCH   2   4
ATOM      4  O   UNL     1       6.132   1.587   1.850  1.00  0.00    -0.481 OA
ATOM      5  H   UNL     1       5.723   2.501   2.061  1.00  0.00     0.296 HD
ENDBRANCH   2   4
ENDBRANCH   1   2
BRANCH   1   6
ATOM      6  C   UNL     1       7.401  -0.743   1.479  1.00  0.00     0.047 C 
BRANCH   6   7
ATOM      7  C   UNL     1       7.721  -0.647   0.056  1.00  0.00    -0.047 A 
ATOM      8  C   UNL     1       8.863  -0.008  -0.367  1.00  0.00     0.004 A 
ATOM      9  C   UNL     1       6.865  -1.207  -0.864  1.00  0.00     0.004 A 
ATOM     10  C   UNL     1       9.106   0.045  -1.741  1.00  0.00     0.000 A 
ATOM     11  C   UNL     1       7.106  -1.153  -2.223  1.00  0.00     0.000 A 
ATOM     12  C   UNL     1       8.248  -0.514  -2.654  1.00  0.00     0.000 A 
ENDBRANCH   6   7
ENDBRANCH   1   6
TORSDOF 4
ENDMDL
MODEL 3
REMARK VINA RESULT:      -6.1      3.468      5.114
REMARK SMILES O=C(O)CCc1ccccc1
REMARK SMILES IDX 4 1 2 2 1 3 3 4 5 6 6 7 7 8 11 9 8 10 10 11 9 12
REMARK H PARENT 3 5
REMARK Flexibility Score: inf
ROOT
ATOM      1  C   UNL     1       5.012  -0.118   1.989  1.00  0.00     0.127 C 
ENDROOT
BRANCH   1   2
ATOM      2  C   UNL     1       4.348   1.206   1.951  1.00  0.00     0.303 C 
ATOM      3  O   UNL     1       4.861   2.174   1.337  1.00  0.00    -0.252 OA
BRANCH   2   4
ATOM      4  O   UNL     1       3.139   1.413   2.596  1.00  0.00    -0.481 OA
ATOM      5  H   UNL     1       2.695   2.334   2.544  1.00  0.00     0.296 HD
ENDBRANCH   2   4
ENDBRANCH   1   2
BRANCH   1   6
ATOM      6  C   UNL     1       6.472   0.079   1.712  1.00  0.00     0.047 C 
BRANCH   6   7
ATOM      7  C   UNL     1       6.973  -0.701   0.583  1.00  0.00    -0.047 A 
ATOM      8  C   UNL     1       6.637  -0.366  -0.708  1.00  0.00     0.004 A 
ATOM      9  C   UNL     1       7.792  -1.780   0.823  1.00  0.00     0.004 A 
ATOM     10  C   UNL     1       7.154  -1.156  -1.738  1.00  0.00     0.000 A 
ATOM     11  C   UNL     1       8.301  -2.560  -0.196  1.00  0.00     0.000 A 
ATOM     12  C   UNL     1       7.969  -2.232  -1.492  1.00  0.00     0.000 A 
ENDBRANCH   6   7
ENDBRANCH   1   6
TORSDOF 4
ENDMDL
MODEL 4
REMARK VINA RESULT:      -5.9      1.601      2.384
REMARK SMILES O=C(O)CCc1ccccc1
REMARK SMILES IDX 4 1 2 2 1 3 3 4 5 6 6 7 7 8 11 9 8 10 10 11 9 12
REMARK H PARENT 3 5
REMARK Flexibility Score: inf
ROOT
ATOM      1  C   UNL     1       8.265  -1.295  -1.945  1.00  0.00     0.127 C 
ENDROOT
BRANCH   1   2
ATOM      2  C   UNL     1       8.896   0.043  -2.033  1.00  0.00     0.303 C 
ATOM      3  O   UNL     1       8.370   0.968  -2.699  1.00  0.00    -0.252 OA
BRANCH   2   4
ATOM      4  O   UNL     1      10.089   0.309  -1.381  1.00  0.00    -0.481 OA
ATOM      5  H   UNL     1      10.642   1.125  -1.660  1.00  0.00     0.296 HD
ENDBRANCH   2   4
ENDBRANCH   1   2
BRANCH   1   6
ATOM      6  C   UNL     1       6.816  -1.111  -1.611  1.00  0.00     0.047 C 
BRANCH   6   7
ATOM      7  C   UNL     1       6.558  -0.891  -0.189  1.00  0.00    -0.047 A 
ATOM      8  C   UNL     1       5.834   0.200   0.234  1.00  0.00     0.004 A 
ATOM      9  C   UNL     1       7.045  -1.792   0.729  1.00  0.00     0.004 A 
ATOM     10  C   UNL     1       5.625   0.347   1.607  1.00  0.00     0.000 A 
ATOM     11  C   UNL     1       6.838  -1.645   2.087  1.00  0.00     0.000 A 
ATOM     12  C   UNL     1       6.115  -0.555   2.518  1.00  0.00     0.000 A 
ENDBRANCH   6   7
ENDBRANCH   1   6
TORSDOF 4
ENDMDL
