MODEL 1
REMARK VINA RESULT:      -7.0      0.000      0.000
REMARK SMILES O=C(O)CCc1ccccc1
REMARK SMILES IDX 4 1 2 2 1 3 3 4 5 6 6 7 7 8 11 9 8 10 10 11 9 12
REMARK H PARENT 3 5
REMARK Flexibility Score: inf
ROOT
ATOM      1  C   UNL     1       8.393  -0.652  -2.081  1.00  0.00     0.127 C 
ENDROOT
BRANCH   1   2
ATOM      2  C   UNL     1       8.368  -1.899  -2.880  1.00  0.00     0.303 C 
ATOM      3  O   UNL     1       7.284  -2.412  -3.253  1.00  0.00    -0.252 OA
BRANCH   2   4
ATOM      4  O   UNL     1       9.545  -2.537  -3.238  1.00  0.00    -0.481 OA
ATOM      5  H   UNL     1      10.439  -2.059  -3.091  1.00  0.00     0.296 HD
ENDBRANCH   2   4
ENDBRANCH   1   2
BRANCH   1   6
ATOM      6  C   UNL     1       7.012  -0.070  -2.073  1.00  0.00     0.047 C 
BRANCH   6   7
ATOM      7  C   UNL     1       6.444   0.093  -0.736  1.00  0.00    -0.047 A 
ATOM      8  C   UNL     1       5.794   1.253  -0.385  1.00  0.00     0.004 A 
ATOM      9  C   UNL     1       6.562  -0.933   0.174  1.00  0.00     0.004 A 
ATOM     10  C   UNL     1       5.275   1.339   0.909  1.00  0.00     0.000 A 
ATOM     11  C   UNL     1       6.048  -0.846   1.452  1.00  0.00     0.000 A 
ATOM     12  C   UNL     1       5.397   0.314   1.812  1.00  0.00     0.000 A 
ENDBRANCH   6   7
ENDBRANCH   1   6
TORSDOF 4
ENDMDL
MODEL 2
REMARK VINA RESULT:      -6.8      1.398      2.197
REMARK SMILES O=C(O)CCc1ccccc1
REMARK SMILES IDX 4 1 2 2 1 3 3 4 5 6 6 7 7 8 11 9 8 10 10 11 9 12
REMARK H PARENT 3 5
REMARK Flexibility Score: inf
ROOT
ATOM      1  C   UNL     1       8.275  -0.503  -2.307  1.00  0.00     0.127 C 
ENDROOT
BRANCH   1   2
ATOM      2  C   UNL     1       8.382  -1.833  -2.954  1.00  0.00     0.303 C 
ATOM      3  O   UNL     1       9.488  -2.417  -3.061  1.00  0.00    -0.252 OA
BRANCH   2   4
ATOM      4  O   UNL     1       7.259  -2.468  -3.459  1.00  0.00    -0.481 OA
ATOM      5  H   UNL     1       7.066  -2.421  -4.463  1.00  0.00     0.296 HD
ENDBRANCH   2   4
ENDBRANCH   1   2
BRANCH   1   6
ATOM      6  C   UNL     1       7.027  -0.482  -1.478  1.00  0.00     0.047 C 
BRANCH   6   7
ATOM      7  C   UNL     1       6.838   0.753  -0.720  1.00  0.00    -0.047 A 
ATOM      8  C   UNL     1       7.900   1.364  -0.093  1.00  0.00     0.004 A 
ATOM      9  C   UNL     1       5.581   1.306  -0.640  1.00  0.00     0.004 A 
ATOM     10  C   UNL     1       7.646   2.542   0.612  1.00  0.00     0.000 A 
ATOM     11  C   UNL     1       5.331   2.471   0.059  1.00  0.00     0.000 A 
ATOM     12  C   UNL     1       6.389   3.088   0.690  1.00  0.00     0.000 A 
ENDBRANCH   6   7
ENDBRANCH   1   6
TORSDOF 4
ENDMDL
