@<TRIPOS>MOLECULE
/home/cewinharhar/GITHUB/reincatalyze/data/processed/docking_pred/2023-May-05-1615_maxeplen10_maxtrainstep1000_seadep16_gamma099_lrac9e-4_lrcr1e-3/3dd20a82ca316ee4e9168eadca9f8684e5881f32_ligand_2.pdbqt
 12 12 0 0 0
SMALL
GASTEIGER

@<TRIPOS>ATOM
      1  C          8.2750   -0.5030   -2.3070 C.3     1  UNL1        0.1270
      2  C          8.3820   -1.8330   -2.9540 C.2     1  UNL1        0.3030
      3  O          9.4880   -2.4170   -3.0610 O.2     1  UNL1       -0.2520
      4  O          7.2590   -2.4680   -3.4590 O.3     1  UNL1       -0.4810
      5  H          7.0660   -2.4210   -4.4630 H       1  UNL1        0.2960
      6  C          7.0270   -0.4820   -1.4780 C.3     1  UNL1        0.0470
      7  C          6.8380    0.7530   -0.7200 C.2     1  UNL1       -0.0470
      8  C          7.9000    1.3640   -0.0930 C.2     1  UNL1        0.0040
      9  C          5.5810    1.3060   -0.6400 C.2     1  UNL1        0.0040
     10  C          7.6460    2.5420    0.6120 C.2     1  UNL1        0.0000
     11  C          5.3310    2.4710    0.0590 C.2     1  UNL1        0.0000
     12  C          6.3890    3.0880    0.6900 C.2     1  UNL1        0.0000
@<TRIPOS>BOND
     1     5     4    1
     2     4     2    1
     3     3     2    2
     4     2     1    1
     5     1     6    1
     6     6     7    1
     7     7     9    2
     8     7     8    1
     9     9    11    1
    10     8    10    2
    11    11    12    2
    12    10    12    1
