@<TRIPOS>MOLECULE
/home/cewinharhar/GITHUB/reincatalyze/data/processed/docking_pred/2023-May-05-1615_maxeplen10_maxtrainstep1000_seadep16_gamma099_lrac9e-4_lrcr1e-3/3dd20a82ca316ee4e9168eadca9f8684e5881f32_ligand_2.pdbqt
 12 12 0 0 0
SMALL
GASTEIGER

@<TRIPOS>ATOM
      1  C          8.3930   -0.6520   -2.0810 C.3     1  UNL1        0.1270
      2  C          8.3680   -1.8990   -2.8800 C.2     1  UNL1        0.3030
      3  O          7.2840   -2.4120   -3.2530 O.2     1  UNL1       -0.2520
      4  O          9.5450   -2.5370   -3.2380 O.3     1  UNL1       -0.4810
      5  H         10.4390   -2.0590   -3.0910 H       1  UNL1        0.2960
      6  C          7.0120   -0.0700   -2.0730 C.3     1  UNL1        0.0470
      7  C          6.4440    0.0930   -0.7360 C.2     1  UNL1       -0.0470
      8  C          5.7940    1.2530   -0.3850 C.2     1  UNL1        0.0040
      9  C          6.5620   -0.9330    0.1740 C.2     1  UNL1        0.0040
     10  C          5.2750    1.3390    0.9090 C.2     1  UNL1        0.0000
     11  C          6.0480   -0.8460    1.4520 C.2     1  UNL1        0.0000
     12  C          5.3970    0.3140    1.8120 C.2     1  UNL1        0.0000
@<TRIPOS>BOND
     1     3     2    2
     2     4     5    1
     3     4     2    1
     4     2     1    1
     5     1     6    1
     6     6     7    1
     7     7     8    2
     8     7     9    1
     9     8    10    1
    10     9    11    2
    11    10    12    2
    12    11    12    1
