@<TRIPOS>MOLECULE
/home/cewinharhar/GITHUB/reincatalyze/data/processed/docking_pred/2023-May-05-1615_maxeplen10_maxtrainstep1000_seadep16_gamma099_lrac9e-4_lrcr1e-3/3e742204aaadd08b2af2eabe2bac092cf241077d_ligand_2.pdbqt
 12 12 0 0 0
SMALL
GASTEIGER

@<TRIPOS>ATOM
      1  C          8.4360   -0.6010   -2.1830 C.3     1  UNL1        0.1270
      2  C          8.4720   -1.8800   -2.9310 C.2     1  UNL1        0.3030
      3  O          9.5510   -2.4940   -3.1200 O.2     1  UNL1       -0.2520
      4  O          7.3100   -2.4360   -3.4430 O.3     1  UNL1       -0.4810
      5  H          7.0950   -3.4170   -3.2460 H       1  UNL1        0.2960
      6  C          7.0060   -0.1780   -2.0420 C.3     1  UNL1        0.0470
      7  C          6.5340   -0.1290   -0.6590 C.2     1  UNL1       -0.0470
      8  C          5.8710    0.9780   -0.1810 C.2     1  UNL1        0.0040
      9  C          6.7580   -1.2070    0.1650 C.2     1  UNL1        0.0040
     10  C          5.4480    0.9550    1.1500 C.2     1  UNL1        0.0000
     11  C          6.3390   -1.2280    1.4810 C.2     1  UNL1        0.0000
     12  C          5.6750   -0.1230    1.9680 C.2     1  UNL1        0.0000
@<TRIPOS>BOND
     1     4     5    1
     2     4     2    1
     3     3     2    2
     4     2     1    1
     5     1     6    1
     6     6     7    1
     7     7     8    2
     8     7     9    1
     9     8    10    1
    10     9    11    2
    11    10    12    2
    12    11    12    1
