@<TRIPOS>MOLECULE
/home/cewinharhar/GITHUB/reincatalyze/data/processed/docking_pred/2023-May-05-1615_maxeplen10_maxtrainstep1000_seadep16_gamma099_lrac9e-4_lrcr1e-3/3e742204aaadd08b2af2eabe2bac092cf241077d_ligand_2.pdbqt
 12 12 0 0 0
SMALL
GASTEIGER

@<TRIPOS>ATOM
      1  C          6.1220    1.4060    1.2090 C.3     1  UNL1        0.1270
      2  C          5.2700    0.5170    2.0340 C.2     1  UNL1        0.3030
      3  O          5.6660   -0.6220    2.3830 O.2     1  UNL1       -0.2520
      4  O          4.0100    0.9210    2.4430 O.3     1  UNL1       -0.4810
      5  H          3.1840    0.4670    2.0430 H       1  UNL1        0.2960
      6  C          5.8010    1.1610   -0.2330 C.3     1  UNL1        0.0470
      7  C          6.8720    0.5020   -0.9780 C.2     1  UNL1       -0.0470
      8  C          8.1560    0.9950   -0.9490 C.2     1  UNL1        0.0040
      9  C          6.5840   -0.6260   -1.7120 C.2     1  UNL1        0.0040
     10  C          9.1290    0.3140   -1.6830 C.2     1  UNL1        0.0000
     11  C          7.5480   -1.2980   -2.4370 C.2     1  UNL1        0.0000
     12  C          8.8360   -0.8100   -2.4140 C.2     1  UNL1        0.0000
@<TRIPOS>BOND
     1    11    12    2
     2    11     9    1
     3    12    10    1
     4     9     7    2
     5    10     8    2
     6     7     8    1
     7     7     6    1
     8     6     1    1
     9     1     2    1
    10     2     3    2
    11     2     4    1
    12     5     4    1
