MODEL 1
REMARK VINA RESULT:      -7.4      0.000      0.000
REMARK SMILES O=C(O)CCc1ccccc1
REMARK SMILES IDX 4 1 2 2 1 3 3 4 5 6 6 7 7 8 11 9 8 10 10 11 9 12
REMARK H PARENT 3 5
REMARK Flexibility Score: inf
ROOT
ATOM      1  C   UNL     1       8.436  -0.601  -2.183  1.00  0.00     0.127 C 
ENDROOT
BRANCH   1   2
ATOM      2  C   UNL     1       8.472  -1.880  -2.931  1.00  0.00     0.303 C 
ATOM      3  O   UNL     1       9.551  -2.494  -3.120  1.00  0.00    -0.252 OA
BRANCH   2   4
ATOM      4  O   UNL     1       7.310  -2.436  -3.443  1.00  0.00    -0.481 OA
ATOM      5  H   UNL     1       7.095  -3.417  -3.246  1.00  0.00     0.296 HD
ENDBRANCH   2   4
ENDBRANCH   1   2
BRANCH   1   6
ATOM      6  C   UNL     1       7.006  -0.178  -2.042  1.00  0.00     0.047 C 
BRANCH   6   7
ATOM      7  C   UNL     1       6.534  -0.129  -0.659  1.00  0.00    -0.047 A 
ATOM      8  C   UNL     1       5.871   0.978  -0.181  1.00  0.00     0.004 A 
ATOM      9  C   UNL     1       6.758  -1.207   0.165  1.00  0.00     0.004 A 
ATOM     10  C   UNL     1       5.448   0.955   1.150  1.00  0.00     0.000 A 
ATOM     11  C   UNL     1       6.339  -1.228   1.481  1.00  0.00     0.000 A 
ATOM     12  C   UNL     1       5.675  -0.123   1.968  1.00  0.00     0.000 A 
ENDBRANCH   6   7
ENDBRANCH   1   6
TORSDOF 4
ENDMDL
MODEL 2
REMARK VINA RESULT:      -6.6      3.107      4.791
REMARK SMILES O=C(O)CCc1ccccc1
REMARK SMILES IDX 4 1 2 2 1 3 3 4 5 6 6 7 7 8 11 9 8 10 10 11 9 12
REMARK H PARENT 3 5
REMARK Flexibility Score: inf
ROOT
ATOM      1  C   UNL     1       6.122   1.406   1.209  1.00  0.00     0.127 C 
ENDROOT
BRANCH   1   2
ATOM      2  C   UNL     1       5.270   0.517   2.034  1.00  0.00     0.303 C 
ATOM      3  O   UNL     1       5.666  -0.622   2.383  1.00  0.00    -0.252 OA
BRANCH   2   4
ATOM      4  O   UNL     1       4.010   0.921   2.443  1.00  0.00    -0.481 OA
ATOM      5  H   UNL     1       3.184   0.467   2.043  1.00  0.00     0.296 HD
ENDBRANCH   2   4
ENDBRANCH   1   2
BRANCH   1   6
ATOM      6  C   UNL     1       5.801   1.161  -0.233  1.00  0.00     0.047 C 
BRANCH   6   7
ATOM      7  C   UNL     1       6.872   0.502  -0.978  1.00  0.00    -0.047 A 
ATOM      8  C   UNL     1       8.156   0.995  -0.949  1.00  0.00     0.004 A 
ATOM      9  C   UNL     1       6.584  -0.626  -1.712  1.00  0.00     0.004 A 
ATOM     10  C   UNL     1       9.129   0.314  -1.683  1.00  0.00     0.000 A 
ATOM     11  C   UNL     1       7.548  -1.298  -2.437  1.00  0.00     0.000 A 
ATOM     12  C   UNL     1       8.836  -0.810  -2.414  1.00  0.00     0.000 A 
ENDBRANCH   6   7
ENDBRANCH   1   6
TORSDOF 4
ENDMDL
