@<TRIPOS>MOLECULE
/home/cewinharhar/GITHUB/reincatalyze/data/processed/docking_pred/2023-May-05-1615_maxeplen10_maxtrainstep1000_seadep16_gamma099_lrac9e-4_lrcr1e-3/404021d27c656f8fbd9408a440432f577c9906d0_ligand_2.pdbqt
 12 12 0 0 0
SMALL
GASTEIGER

@<TRIPOS>ATOM
      1  C          8.4640   -0.6060   -2.1770 C.3     1  UNL1        0.1270
      2  C          8.4950   -1.8870   -2.9210 C.2     1  UNL1        0.3030
      3  O          9.5720   -2.5030   -3.1120 O.2     1  UNL1       -0.2520
      4  O          7.3300   -2.4420   -3.4270 O.3     1  UNL1       -0.4810
      5  H          6.7400   -1.8850   -4.0510 H       1  UNL1        0.2960
      6  C          7.0360   -0.1700   -2.0490 C.3     1  UNL1        0.0470
      7  C          6.5520   -0.1210   -0.6700 C.2     1  UNL1       -0.0470
      8  C          5.8920    0.9880   -0.1950 C.2     1  UNL1        0.0040
      9  C          6.7610   -1.2030    0.1530 C.2     1  UNL1        0.0040
     10  C          5.4560    0.9650    1.1310 C.2     1  UNL1        0.0000
     11  C          6.3300   -1.2250    1.4650 C.2     1  UNL1        0.0000
     12  C          5.6680   -0.1170    1.9490 C.2     1  UNL1        0.0000
@<TRIPOS>BOND
     1     5     4    1
     2     4     2    1
     3     3     2    2
     4     2     1    1
     5     1     6    1
     6     6     7    1
     7     7     8    2
     8     7     9    1
     9     8    10    1
    10     9    11    2
    11    10    12    2
    12    11    12    1
