@<TRIPOS>MOLECULE
/home/cewinharhar/GITHUB/reincatalyze/data/processed/docking_pred/2023-May-05-1615_maxeplen10_maxtrainstep1000_seadep16_gamma099_lrac9e-4_lrcr1e-3/404021d27c656f8fbd9408a440432f577c9906d0_ligand_2.pdbqt
 12 12 0 0 0
SMALL
GASTEIGER

@<TRIPOS>ATOM
      1  C          8.1230    0.0670   -2.5950 C.3     1  UNL1        0.1270
      2  C          8.2640   -1.3760   -2.2870 C.2     1  UNL1        0.3030
      3  O          9.3790   -1.9510   -2.3600 O.2     1  UNL1       -0.2520
      4  O          7.1660   -2.1320   -1.9090 O.3     1  UNL1       -0.4810
      5  H          7.3030   -2.9460   -1.3040 H       1  UNL1        0.2960
      6  C          8.5840    0.8500   -1.4040 C.3     1  UNL1        0.0470
      7  C          7.8430    0.5590   -0.1780 C.2     1  UNL1       -0.0470
      8  C          8.2760   -0.4160    0.6910 C.2     1  UNL1        0.0040
      9  C          6.7020    1.2740    0.1030 C.2     1  UNL1        0.0040
     10  C          7.5190   -0.6400    1.8430 C.2     1  UNL1        0.0000
     11  C          5.9540    1.0510    1.2420 C.2     1  UNL1        0.0000
     12  C          6.3810    0.0760    2.1170 C.2     1  UNL1        0.0000
@<TRIPOS>BOND
     1     1     2    1
     2     1     6    1
     3     3     2    2
     4     2     4    1
     5     4     5    1
     6     6     7    1
     7     7     9    2
     8     7     8    1
     9     9    11    1
    10     8    10    2
    11    11    12    2
    12    10    12    1
