MODEL 1
REMARK VINA RESULT:      -7.3      0.000      0.000
REMARK SMILES O=C(O)CCc1ccccc1
REMARK SMILES IDX 4 1 2 2 1 3 3 4 5 6 6 7 7 8 11 9 8 10 10 11 9 12
REMARK H PARENT 3 5
REMARK Flexibility Score: inf
ROOT
ATOM      1  C   UNL     1       8.403  -0.651  -2.083  1.00  0.00     0.127 C 
ENDROOT
BRANCH   1   2
ATOM      2  C   UNL     1       8.373  -1.901  -2.879  1.00  0.00     0.303 C 
ATOM      3  O   UNL     1       7.287  -2.410  -3.250  1.00  0.00    -0.252 OA
BRANCH   2   4
ATOM      4  O   UNL     1       9.547  -2.544  -3.235  1.00  0.00    -0.481 OA
ATOM      5  H   UNL     1       9.695  -2.813  -4.212  1.00  0.00     0.296 HD
ENDBRANCH   2   4
ENDBRANCH   1   2
BRANCH   1   6
ATOM      6  C   UNL     1       7.024  -0.065  -2.074  1.00  0.00     0.047 C 
BRANCH   6   7
ATOM      7  C   UNL     1       6.457   0.101  -0.737  1.00  0.00    -0.047 A 
ATOM      8  C   UNL     1       5.802   1.260  -0.390  1.00  0.00     0.004 A 
ATOM      9  C   UNL     1       6.583  -0.919   0.177  1.00  0.00     0.004 A 
ATOM     10  C   UNL     1       5.285   1.350   0.904  1.00  0.00     0.000 A 
ATOM     11  C   UNL     1       6.071  -0.829   1.456  1.00  0.00     0.000 A 
ATOM     12  C   UNL     1       5.414   0.329   1.812  1.00  0.00     0.000 A 
ENDBRANCH   6   7
ENDBRANCH   1   6
TORSDOF 4
ENDMDL
MODEL 2
REMARK VINA RESULT:      -7.0      1.039      1.957
REMARK SMILES O=C(O)CCc1ccccc1
REMARK SMILES IDX 4 1 2 2 1 3 3 4 5 6 6 7 7 8 11 9 8 10 10 11 9 12
REMARK H PARENT 3 5
REMARK Flexibility Score: inf
ROOT
ATOM      1  C   UNL     1       7.260  -1.270  -2.160  1.00  0.00     0.127 C 
ENDROOT
BRANCH   1   2
ATOM      2  C   UNL     1       8.695  -1.309  -2.525  1.00  0.00     0.303 C 
ATOM      3  O   UNL     1       9.497  -0.438  -2.107  1.00  0.00    -0.252 OA
BRANCH   2   4
ATOM      4  O   UNL     1       9.193  -2.311  -3.343  1.00  0.00    -0.481 OA
ATOM      5  H   UNL     1       9.656  -2.059  -4.220  1.00  0.00     0.296 HD
ENDBRANCH   2   4
ENDBRANCH   1   2
BRANCH   1   6
ATOM      6  C   UNL     1       7.153  -1.330  -0.666  1.00  0.00     0.047 C 
BRANCH   6   7
ATOM      7  C   UNL     1       6.395  -0.225  -0.080  1.00  0.00    -0.047 A 
ATOM      8  C   UNL     1       5.964  -0.283   1.225  1.00  0.00     0.004 A 
ATOM      9  C   UNL     1       6.117   0.881  -0.850  1.00  0.00     0.004 A 
ATOM     10  C   UNL     1       5.247   0.809   1.719  1.00  0.00     0.000 A 
ATOM     11  C   UNL     1       5.407   1.959  -0.360  1.00  0.00     0.000 A 
ATOM     12  C   UNL     1       4.971   1.909   0.947  1.00  0.00     0.000 A 
ENDBRANCH   6   7
ENDBRANCH   1   6
TORSDOF 4
ENDMDL
