@<TRIPOS>MOLECULE
/home/cewinharhar/GITHUB/reincatalyze/data/processed/docking_pred/2023-May-05-1615_maxeplen10_maxtrainstep1000_seadep16_gamma099_lrac9e-4_lrcr1e-3/4295960a5818388fac6ce93a10a8a6662c8ec52f_ligand_2.pdbqt
 12 12 0 0 0
SMALL
GASTEIGER

@<TRIPOS>ATOM
      1  C          7.2600   -1.2700   -2.1600 C.3     1  UNL1        0.1270
      2  C          8.6950   -1.3090   -2.5250 C.2     1  UNL1        0.3030
      3  O          9.4970   -0.4380   -2.1070 O.2     1  UNL1       -0.2520
      4  O          9.1930   -2.3110   -3.3430 O.3     1  UNL1       -0.4810
      5  H          9.6560   -2.0590   -4.2200 H       1  UNL1        0.2960
      6  C          7.1530   -1.3300   -0.6660 C.3     1  UNL1        0.0470
      7  C          6.3950   -0.2250   -0.0800 C.2     1  UNL1       -0.0470
      8  C          5.9640   -0.2830    1.2250 C.2     1  UNL1        0.0040
      9  C          6.1170    0.8810   -0.8500 C.2     1  UNL1        0.0040
     10  C          5.2470    0.8090    1.7190 C.2     1  UNL1        0.0000
     11  C          5.4070    1.9590   -0.3600 C.2     1  UNL1        0.0000
     12  C          4.9710    1.9090    0.9470 C.2     1  UNL1        0.0000
@<TRIPOS>BOND
     1     5     4    1
     2     4     2    1
     3     2     1    1
     4     2     3    2
     5     1     6    1
     6     9    11    1
     7     9     7    2
     8     6     7    1
     9    11    12    2
    10     7     8    1
    11    12    10    1
    12     8    10    2
