@<TRIPOS>MOLECULE
/home/cewinharhar/GITHUB/reincatalyze/data/processed/docking_pred/2023-May-05-1615_maxeplen10_maxtrainstep1000_seadep16_gamma099_lrac9e-4_lrcr1e-3/437598aa9d4ddbb457dda5082e5f4820e6dbe55d_ligand_2.pdbqt
 12 12 0 0 0
SMALL
GASTEIGER

@<TRIPOS>ATOM
      1  C          8.4570   -0.6640   -2.0810 C.3     1  UNL1        0.1270
      2  C          8.4690   -1.9090   -2.8840 C.2     1  UNL1        0.3030
      3  O          9.5350   -2.5380   -3.0960 O.2     1  UNL1       -0.2520
      4  O          7.2980   -2.4150   -3.4260 O.3     1  UNL1       -0.4810
      5  H          7.2720   -3.3890   -3.7410 H       1  UNL1        0.2960
      6  C          7.0640   -0.1130   -2.0850 C.3     1  UNL1        0.0470
      7  C          6.4840    0.0470   -0.7530 C.2     1  UNL1       -0.0470
      8  C          5.8330    1.2080   -0.4040 C.2     1  UNL1        0.0040
      9  C          6.5930   -0.9810    0.1550 C.2     1  UNL1        0.0040
     10  C          5.3030    1.2910    0.8850 C.2     1  UNL1        0.0000
     11  C          6.0680   -0.8970    1.4290 C.2     1  UNL1        0.0000
     12  C          5.4150    0.2630    1.7870 C.2     1  UNL1        0.0000
@<TRIPOS>BOND
     1     5     4    1
     2     4     2    1
     3     3     2    2
     4     2     1    1
     5     6     1    1
     6     6     7    1
     7     7     8    2
     8     7     9    1
     9     8    10    1
    10     9    11    2
    11    10    12    2
    12    11    12    1
