@<TRIPOS>MOLECULE
/home/cewinharhar/GITHUB/reincatalyze/data/processed/docking_pred/2023-May-05-1615_maxeplen10_maxtrainstep1000_seadep16_gamma099_lrac9e-4_lrcr1e-3/437598aa9d4ddbb457dda5082e5f4820e6dbe55d_ligand_2.pdbqt
 12 12 0 0 0
SMALL
GASTEIGER

@<TRIPOS>ATOM
      1  C          8.3340   -0.6210   -2.0790 C.3     1  UNL1        0.1270
      2  C          8.3360   -1.8670   -2.8820 C.2     1  UNL1        0.3030
      3  O          7.2640   -2.3950   -3.2660 O.2     1  UNL1       -0.2520
      4  O          9.5260   -2.4840   -3.2320 O.3     1  UNL1       -0.4810
      5  H          9.4990   -3.3620   -3.7580 H       1  UNL1        0.2960
      6  C          6.9650   -0.4380   -1.4980 C.3     1  UNL1        0.0470
      7  C          6.8090    0.7910   -0.7220 C.2     1  UNL1       -0.0470
      8  C          7.8880    1.3710   -0.0970 C.2     1  UNL1        0.0040
      9  C          5.5640    1.3680   -0.6230 C.2     1  UNL1        0.0040
     10  C          7.6650    2.5450    0.6260 C.2     1  UNL1        0.0000
     11  C          5.3450    2.5290    0.0920 C.2     1  UNL1        0.0000
     12  C          6.4210    3.1160    0.7220 C.2     1  UNL1        0.0000
@<TRIPOS>BOND
     1     5     4    1
     2     3     2    2
     3     4     2    1
     4     2     1    1
     5     1     6    1
     6     6     7    1
     7     7     9    2
     8     7     8    1
     9     9    11    1
    10     8    10    2
    11    11    12    2
    12    10    12    1
