MODEL 1
REMARK VINA RESULT:      -7.1      0.000      0.000
REMARK SMILES O=C(O)CCc1ccccc1
REMARK SMILES IDX 4 1 2 2 1 3 3 4 5 6 6 7 7 8 11 9 8 10 10 11 9 12
REMARK H PARENT 3 5
REMARK Flexibility Score: inf
ROOT
ATOM      1  C   UNL     1       8.457  -0.664  -2.081  1.00  0.00     0.127 C 
ENDROOT
BRANCH   1   2
ATOM      2  C   UNL     1       8.469  -1.909  -2.884  1.00  0.00     0.303 C 
ATOM      3  O   UNL     1       9.535  -2.538  -3.096  1.00  0.00    -0.252 OA
BRANCH   2   4
ATOM      4  O   UNL     1       7.298  -2.415  -3.426  1.00  0.00    -0.481 OA
ATOM      5  H   UNL     1       7.272  -3.389  -3.741  1.00  0.00     0.296 HD
ENDBRANCH   2   4
ENDBRANCH   1   2
BRANCH   1   6
ATOM      6  C   UNL     1       7.064  -0.113  -2.085  1.00  0.00     0.047 C 
BRANCH   6   7
ATOM      7  C   UNL     1       6.484   0.047  -0.753  1.00  0.00    -0.047 A 
ATOM      8  C   UNL     1       5.833   1.208  -0.404  1.00  0.00     0.004 A 
ATOM      9  C   UNL     1       6.593  -0.981   0.155  1.00  0.00     0.004 A 
ATOM     10  C   UNL     1       5.303   1.291   0.885  1.00  0.00     0.000 A 
ATOM     11  C   UNL     1       6.068  -0.897   1.429  1.00  0.00     0.000 A 
ATOM     12  C   UNL     1       5.415   0.263   1.787  1.00  0.00     0.000 A 
ENDBRANCH   6   7
ENDBRANCH   1   6
TORSDOF 4
ENDMDL
MODEL 2
REMARK VINA RESULT:      -6.6      1.406      2.225
REMARK SMILES O=C(O)CCc1ccccc1
REMARK SMILES IDX 4 1 2 2 1 3 3 4 5 6 6 7 7 8 11 9 8 10 10 11 9 12
REMARK H PARENT 3 5
REMARK Flexibility Score: inf
ROOT
ATOM      1  C   UNL     1       8.334  -0.621  -2.079  1.00  0.00     0.127 C 
ENDROOT
BRANCH   1   2
ATOM      2  C   UNL     1       8.336  -1.867  -2.882  1.00  0.00     0.303 C 
ATOM      3  O   UNL     1       7.264  -2.395  -3.266  1.00  0.00    -0.252 OA
BRANCH   2   4
ATOM      4  O   UNL     1       9.526  -2.484  -3.232  1.00  0.00    -0.481 OA
ATOM      5  H   UNL     1       9.499  -3.362  -3.758  1.00  0.00     0.296 HD
ENDBRANCH   2   4
ENDBRANCH   1   2
BRANCH   1   6
ATOM      6  C   UNL     1       6.965  -0.438  -1.498  1.00  0.00     0.047 C 
BRANCH   6   7
ATOM      7  C   UNL     1       6.809   0.791  -0.722  1.00  0.00    -0.047 A 
ATOM      8  C   UNL     1       7.888   1.371  -0.097  1.00  0.00     0.004 A 
ATOM      9  C   UNL     1       5.564   1.368  -0.623  1.00  0.00     0.004 A 
ATOM     10  C   UNL     1       7.665   2.545   0.626  1.00  0.00     0.000 A 
ATOM     11  C   UNL     1       5.345   2.529   0.092  1.00  0.00     0.000 A 
ATOM     12  C   UNL     1       6.421   3.116   0.722  1.00  0.00     0.000 A 
ENDBRANCH   6   7
ENDBRANCH   1   6
TORSDOF 4
ENDMDL
