@<TRIPOS>MOLECULE
/home/cewinharhar/GITHUB/reincatalyze/data/processed/docking_pred/2023-May-05-1615_maxeplen10_maxtrainstep1000_seadep16_gamma099_lrac9e-4_lrcr1e-3/43f74fb3996e866f8c2ebaeff785616509de483e_ligand_2.pdbqt
 12 12 0 0 0
SMALL
GASTEIGER

@<TRIPOS>ATOM
      1  C          8.2040   -6.1610   11.4750 C.3     1  UNL1        0.1270
      2  C          8.3190   -4.6920   11.6340 C.2     1  UNL1        0.3030
      3  O          9.1760   -4.1850   12.4000 O.2     1  UNL1       -0.2520
      4  O          7.4820   -3.8350   10.9380 O.3     1  UNL1       -0.4810
      5  H          7.6400   -2.8250   10.9950 H       1  UNL1        0.2960
      6  C          8.8840   -6.5510   10.1970 C.3     1  UNL1        0.0470
      7  C         10.1690   -7.2210   10.3880 C.2     1  UNL1       -0.0470
      8  C         11.3350   -6.4960   10.4720 C.2     1  UNL1        0.0040
      9  C         10.2020   -8.5930   10.4860 C.2     1  UNL1        0.0040
     10  C         12.5250   -7.2030   10.6550 C.2     1  UNL1        0.0000
     11  C         11.3800   -9.2900   10.6670 C.2     1  UNL1        0.0000
     12  C         12.5530   -8.5710   10.7520 C.2     1  UNL1        0.0000
@<TRIPOS>BOND
     1     6     7    1
     2     6     1    1
     3     7     8    2
     4     7     9    1
     5     8    10    1
     6     9    11    2
     7    10    12    2
     8    11    12    1
     9     4     5    1
    10     4     2    1
    11     1     2    1
    12     2     3    2
