@<TRIPOS>MOLECULE
/home/cewinharhar/GITHUB/reincatalyze/data/processed/docking_pred/2023-May-05-1615_maxeplen10_maxtrainstep1000_seadep16_gamma099_lrac9e-4_lrcr1e-3/43f74fb3996e866f8c2ebaeff785616509de483e_ligand_2.pdbqt
 12 12 0 0 0
SMALL
GASTEIGER

@<TRIPOS>ATOM
      1  C          7.9600   -6.2700   10.9150 C.3     1  UNL1        0.1270
      2  C          8.2700   -4.8540   11.2240 C.2     1  UNL1        0.3030
      3  O          7.5270   -3.9230   10.8270 O.2     1  UNL1       -0.2520
      4  O          9.3930   -4.5190   11.9630 O.3     1  UNL1       -0.4810
      5  H         10.0310   -5.2590   12.2690 H       1  UNL1        0.2960
      6  C          8.3720   -7.1090   12.0850 C.3     1  UNL1        0.0470
      7  C          9.2630   -8.2160   11.7390 C.2     1  UNL1       -0.0470
      8  C         10.1850   -8.0860   10.7270 C.2     1  UNL1        0.0040
      9  C          9.1710   -9.3960   12.4400 C.2     1  UNL1        0.0040
     10  C         11.0030   -9.1840   10.4510 C.2     1  UNL1        0.0000
     11  C          9.9800  -10.4800   12.1660 C.2     1  UNL1        0.0000
     12  C         10.9070  -10.3590   11.1530 C.2     1  UNL1        0.0000
@<TRIPOS>BOND
     1    10     8    1
     2    10    12    2
     3     8     7    2
     4     3     2    2
     5     1     2    1
     6     1     6    1
     7    12    11    1
     8     2     4    1
     9     7     6    1
    10     7     9    1
    11     4     5    1
    12    11     9    2
