@<TRIPOS>MOLECULE
/home/cewinharhar/GITHUB/reincatalyze/data/processed/docking_pred/2023-May-05-1615_maxeplen10_maxtrainstep1000_seadep16_gamma099_lrac9e-4_lrcr1e-3/46824fcf52dc560be674bfd6df7e039c48ea1670_ligand_2.pdbqt
 12 12 0 0 0
SMALL
GASTEIGER

@<TRIPOS>ATOM
      1  C          5.0890   -0.1260    2.0430 C.3     1  UNL1        0.1270
      2  C          4.4130    1.1910    1.9750 C.2     1  UNL1        0.3030
      3  O          4.9370    2.1610    1.3740 O.2     1  UNL1       -0.2520
      4  O          3.1810    1.3880    2.5760 O.3     1  UNL1       -0.4810
      5  H          3.0840    1.2370    3.5840 H       1  UNL1        0.2960
      6  C          6.5410    0.0730    1.7310 C.3     1  UNL1        0.0470
      7  C          7.0140   -0.7020    0.5860 C.2     1  UNL1       -0.0470
      8  C          6.6340   -0.3710   -0.6940 C.2     1  UNL1        0.0040
      9  C          7.8520   -1.7730    0.8000 C.2     1  UNL1        0.0040
     10  C          7.1260   -1.1550   -1.7400 C.2     1  UNL1        0.0000
     11  C          8.3360   -2.5480   -0.2350 C.2     1  UNL1        0.0000
     12  C          7.9600   -2.2230   -1.5200 C.2     1  UNL1        0.0000
@<TRIPOS>BOND
     1    10    12    2
     2    10     8    1
     3    12    11    1
     4     8     7    2
     5    11     9    2
     6     7     9    1
     7     7     6    1
     8     3     2    2
     9     6     1    1
    10     2     1    1
    11     2     4    1
    12     4     5    1
