@<TRIPOS>MOLECULE
/home/cewinharhar/GITHUB/reincatalyze/data/processed/docking_pred/2023-May-05-1615_maxeplen10_maxtrainstep1000_seadep16_gamma099_lrac9e-4_lrcr1e-3/46824fcf52dc560be674bfd6df7e039c48ea1670_ligand_2.pdbqt
 12 12 0 0 0
SMALL
GASTEIGER

@<TRIPOS>ATOM
      1  C          8.3150   -0.6890   -2.1630 C.3     1  UNL1        0.1270
      2  C          8.4360   -1.9510   -2.9300 C.2     1  UNL1        0.3030
      3  O          9.5510   -2.5020   -3.1060 O.2     1  UNL1       -0.2520
      4  O          7.3170   -2.5600   -3.4760 O.3     1  UNL1       -0.4810
      5  H          6.3860   -2.2590   -3.1750 H       1  UNL1        0.2960
      6  C          6.8890   -0.5350   -1.7310 C.3     1  UNL1        0.0470
      7  C          6.6820   -0.6980   -0.2930 C.2     1  UNL1       -0.0470
      8  C          7.2850   -1.7270    0.3920 C.2     1  UNL1        0.0040
      9  C          5.8760    0.1950    0.3740 C.2     1  UNL1        0.0040
     10  C          7.0440   -1.8210    1.7640 C.2     1  UNL1        0.0000
     11  C          5.6380    0.1000    1.7310 C.2     1  UNL1        0.0000
     12  C          6.2380   -0.9280    2.4250 C.2     1  UNL1        0.0000
@<TRIPOS>BOND
     1     4     5    1
     2     4     2    1
     3     3     2    2
     4     2     1    1
     5     1     6    1
     6     6     7    1
     7     7     9    2
     8     7     8    1
     9     9    11    1
    10     8    10    2
    11    11    12    2
    12    10    12    1
