@<TRIPOS>MOLECULE
/home/cewinharhar/GITHUB/reincatalyze/data/processed/docking_pred/2023-May-05-1615_maxeplen10_maxtrainstep1000_seadep16_gamma099_lrac9e-4_lrcr1e-3/46824fcf52dc560be674bfd6df7e039c48ea1670_ligand_2.pdbqt
 12 12 0 0 0
SMALL
GASTEIGER

@<TRIPOS>ATOM
      1  C          5.9490   -0.8760    1.7800 C.3     1  UNL1        0.1270
      2  C          5.3850    0.4680    2.0490 C.2     1  UNL1        0.3030
      3  O          4.2020    0.6090    2.4450 O.2     1  UNL1       -0.2520
      4  O          6.1510    1.6080    1.8690 O.3     1  UNL1       -0.4810
      5  H          6.7290    1.9500    2.6420 H       1  UNL1        0.2960
      6  C          7.4110   -0.7230    1.4880 C.3     1  UNL1        0.0470
      7  C          7.7260   -0.6290    0.0630 C.2     1  UNL1       -0.0470
      8  C          8.8690    0.0060   -0.3640 C.2     1  UNL1        0.0040
      9  C          6.8640   -1.1860   -0.8530 C.2     1  UNL1        0.0040
     10  C          9.1070    0.0580   -1.7390 C.2     1  UNL1        0.0000
     11  C          7.1000   -1.1340   -2.2120 C.2     1  UNL1        0.0000
     12  C          8.2430   -0.4990   -2.6490 C.2     1  UNL1        0.0000
@<TRIPOS>BOND
     1    12    11    2
     2    12    10    1
     3    11     9    1
     4    10     8    2
     5     9     7    2
     6     8     7    1
     7     7     6    1
     8     6     1    1
     9     1     2    1
    10     4     2    1
    11     4     5    1
    12     2     3    2
