@<TRIPOS>MOLECULE
/home/cewinharhar/GITHUB/reincatalyze/data/processed/docking_pred/2023-May-05-1615_maxeplen10_maxtrainstep1000_seadep16_gamma099_lrac9e-4_lrcr1e-3/46861e00ed193d15618049a480e2ca269f83ce14_ligand_2.pdbqt
 12 12 0 0 0
SMALL
GASTEIGER

@<TRIPOS>ATOM
      1  C          5.0190    1.6280    0.6550 C.3     1  UNL1        0.1270
      2  C          4.5740    0.9880    1.9150 C.2     1  UNL1        0.3030
      3  O          5.2850    0.1310    2.4950 O.2     1  UNL1       -0.2520
      4  O          3.3570    1.3190    2.4880 O.3     1  UNL1       -0.4810
      5  H          3.2400    2.2410    2.9180 H       1  UNL1        0.2960
      6  C          6.5140    1.7220    0.6760 C.3     1  UNL1        0.0470
      7  C          7.1730    0.9590   -0.3820 C.2     1  UNL1       -0.0470
      8  C          8.4930    1.1870   -0.6970 C.2     1  UNL1        0.0040
      9  C          6.4580    0.0020   -1.0650 C.2     1  UNL1        0.0040
     10  C          9.0580    0.4200   -1.7180 C.2     1  UNL1        0.0000
     11  C          7.0180   -0.7550   -2.0750 C.2     1  UNL1        0.0000
     12  C          8.3390   -0.5320   -2.3960 C.2     1  UNL1        0.0000
@<TRIPOS>BOND
     1    12    11    2
     2    12    10    1
     3    11     9    1
     4    10     8    2
     5     9     7    2
     6     8     7    1
     7     7     6    1
     8     1     6    1
     9     1     2    1
    10     2     4    1
    11     2     3    2
    12     4     5    1
