@<TRIPOS>MOLECULE
/home/cewinharhar/GITHUB/reincatalyze/data/processed/docking_pred/2023-May-05-1615_maxeplen10_maxtrainstep1000_seadep16_gamma099_lrac9e-4_lrcr1e-3/46861e00ed193d15618049a480e2ca269f83ce14_ligand_2.pdbqt
 12 12 0 0 0
SMALL
GASTEIGER

@<TRIPOS>ATOM
      1  C          8.3950   -0.6380   -2.0980 C.3     1  UNL1        0.1270
      2  C          8.3650   -1.8950   -2.8820 C.2     1  UNL1        0.3030
      3  O          7.2790   -2.4060   -3.2520 O.2     1  UNL1       -0.2520
      4  O          9.5390   -2.5430   -3.2300 O.3     1  UNL1       -0.4810
      5  H          9.5650   -3.1110   -4.0820 H       1  UNL1        0.2960
      6  C          7.0130   -0.0600   -2.0820 C.3     1  UNL1        0.0470
      7  C          6.4530    0.1050   -0.7420 C.2     1  UNL1       -0.0470
      8  C          5.7980    1.2620   -0.3900 C.2     1  UNL1        0.0040
      9  C          6.5860   -0.9160    0.1710 C.2     1  UNL1        0.0040
     10  C          5.2870    1.3500    0.9070 C.2     1  UNL1        0.0000
     11  C          6.0810   -0.8270    1.4530 C.2     1  UNL1        0.0000
     12  C          5.4240    0.3290    1.8140 C.2     1  UNL1        0.0000
@<TRIPOS>BOND
     1     5     4    1
     2     3     2    2
     3     4     2    1
     4     2     1    1
     5     1     6    1
     6     6     7    1
     7     7     8    2
     8     7     9    1
     9     8    10    1
    10     9    11    2
    11    10    12    2
    12    11    12    1
