@<TRIPOS>MOLECULE
/home/cewinharhar/GITHUB/reincatalyze/data/processed/docking_pred/2023-May-05-1615_maxeplen10_maxtrainstep1000_seadep16_gamma099_lrac9e-4_lrcr1e-3/46aa5159a95d0d08c04f597503a56ad94e9ef6ed_ligand_2.pdbqt
 12 12 0 0 0
SMALL
GASTEIGER

@<TRIPOS>ATOM
      1  C          8.4040   -0.6600   -2.0710 C.3     1  UNL1        0.1270
      2  C          8.3720   -1.9050   -2.8740 C.2     1  UNL1        0.3030
      3  O          7.2850   -2.4070   -3.2540 O.2     1  UNL1       -0.2520
      4  O          9.5450   -2.5520   -3.2280 O.3     1  UNL1       -0.4810
      5  H         10.4380   -2.1990   -2.8730 H       1  UNL1        0.2960
      6  C          7.0280   -0.0680   -2.0670 C.3     1  UNL1        0.0470
      7  C          6.4580    0.1030   -0.7310 C.2     1  UNL1       -0.0470
      8  C          5.8020    1.2630   -0.3890 C.2     1  UNL1        0.0040
      9  C          6.5830   -0.9140    0.1860 C.2     1  UNL1        0.0040
     10  C          5.2820    1.3560    0.9040 C.2     1  UNL1        0.0000
     11  C          6.0680   -0.8200    1.4640 C.2     1  UNL1        0.0000
     12  C          5.4100    0.3390    1.8150 C.2     1  UNL1        0.0000
@<TRIPOS>BOND
     1     3     2    2
     2     4     2    1
     3     4     5    1
     4     2     1    1
     5     1     6    1
     6     6     7    1
     7     7     8    2
     8     7     9    1
     9     8    10    1
    10     9    11    2
    11    10    12    2
    12    11    12    1
