@<TRIPOS>MOLECULE
/home/cewinharhar/GITHUB/reincatalyze/data/processed/docking_pred/2023-May-05-1615_maxeplen10_maxtrainstep1000_seadep16_gamma099_lrac9e-4_lrcr1e-3/49b3117837231080fe644fe44c00424f4b8d2b91_ligand_2.pdbqt
 12 12 0 0 0
SMALL
GASTEIGER

@<TRIPOS>ATOM
      1  C          8.4110   -0.6450   -2.0890 C.3     1  UNL1        0.1270
      2  C          8.3800   -1.8910   -2.8910 C.2     1  UNL1        0.3030
      3  O          7.2930   -2.4250   -3.2220 O.2     1  UNL1       -0.2520
      4  O          9.5550   -2.5020   -3.2990 O.3     1  UNL1       -0.4810
      5  H         10.1430   -2.0390   -3.9980 H       1  UNL1        0.2960
      6  C          7.0340   -0.0560   -2.0810 C.3     1  UNL1        0.0470
      7  C          6.4610    0.0990   -0.7450 C.2     1  UNL1       -0.0470
      8  C          5.8200    1.2610   -0.3840 C.2     1  UNL1        0.0040
      9  C          6.5670   -0.9370    0.1550 C.2     1  UNL1        0.0040
     10  C          5.2960    1.3380    0.9080 C.2     1  UNL1        0.0000
     11  C          6.0490   -0.8590    1.4320 C.2     1  UNL1        0.0000
     12  C          5.4050    0.3030    1.8010 C.2     1  UNL1        0.0000
@<TRIPOS>BOND
     1     5     4    1
     2     4     2    1
     3     3     2    2
     4     2     1    1
     5     1     6    1
     6     6     7    1
     7     7     8    2
     8     7     9    1
     9     8    10    1
    10     9    11    2
    11    10    12    2
    12    11    12    1
