@<TRIPOS>MOLECULE
/home/cewinharhar/GITHUB/reincatalyze/data/processed/docking_pred/2023-May-05-1615_maxeplen10_maxtrainstep1000_seadep16_gamma099_lrac9e-4_lrcr1e-3/49b3117837231080fe644fe44c00424f4b8d2b91_ligand_2.pdbqt
 12 12 0 0 0
SMALL
GASTEIGER

@<TRIPOS>ATOM
      1  C          7.9560   -6.4550   10.9300 C.3     1  UNL1        0.1270
      2  C          8.3080   -5.0210   11.0580 C.2     1  UNL1        0.3030
      3  O          9.2570   -4.6470   11.7890 O.2     1  UNL1       -0.2520
      4  O          7.5960   -4.0510   10.3700 O.3     1  UNL1       -0.4810
      5  H          6.9630   -3.4340   10.8870 H       1  UNL1        0.2960
      6  C          8.5050   -7.1820   12.1190 C.3     1  UNL1        0.0470
      7  C          9.3630   -8.3150   11.7790 C.2     1  UNL1       -0.0470
      8  C          9.2440   -9.5120   12.4460 C.2     1  UNL1        0.0040
      9  C         10.2950   -8.1740   10.7770 C.2     1  UNL1        0.0040
     10  C         10.0960  -10.5520   12.0680 C.2     1  UNL1        0.0000
     11  C         11.1370   -9.2040   10.4050 C.2     1  UNL1        0.0000
     12  C         11.0250  -10.4060   11.0690 C.2     1  UNL1        0.0000
@<TRIPOS>BOND
     1     4     5    1
     2     4     2    1
     3    11     9    1
     4    11    12    2
     5     9     7    2
     6     1     2    1
     7     1     6    1
     8     2     3    2
     9    12    10    1
    10     7     6    1
    11     7     8    1
    12    10     8    2
