@<TRIPOS>MOLECULE
/home/cewinharhar/GITHUB/reincatalyze/data/processed/docking_pred/2023-May-05-1615_maxeplen10_maxtrainstep1000_seadep16_gamma099_lrac9e-4_lrcr1e-3/49b3117837231080fe644fe44c00424f4b8d2b91_ligand_2.pdbqt
 12 12 0 0 0
SMALL
GASTEIGER

@<TRIPOS>ATOM
      1  C          8.0190   -5.6240   11.7790 C.3     1  UNL1        0.1270
      2  C          7.5590   -4.2670   11.4020 C.2     1  UNL1        0.3030
      3  O          7.5990   -3.8740   10.2100 O.2     1  UNL1       -0.2520
      4  O          7.0700   -3.3920   12.3580 O.3     1  UNL1       -0.4810
      5  H          7.5510   -3.3140   13.2590 H       1  UNL1        0.2960
      6  C          8.5630   -6.2940   10.5540 C.3     1  UNL1        0.0470
      7  C          9.9270   -6.7970   10.7070 C.2     1  UNL1       -0.0470
      8  C         10.2310   -8.1060   10.4140 C.2     1  UNL1        0.0040
      9  C         10.9120   -5.9430   11.1480 C.2     1  UNL1        0.0040
     10  C         11.5560   -8.5170   10.5830 C.2     1  UNL1        0.0000
     11  C         12.2200   -6.3510   11.3140 C.2     1  UNL1        0.0000
     12  C         12.5330   -7.6610   11.0230 C.2     1  UNL1        0.0000
@<TRIPOS>BOND
     1     3     2    2
     2     8    10    1
     3     8     7    2
     4     6     7    1
     5     6     1    1
     6    10    12    2
     7     7     9    1
     8    12    11    1
     9     9    11    2
    10     2     1    1
    11     2     4    1
    12     4     5    1
