MODEL 1
REMARK VINA RESULT:      -7.3      0.000      0.000
REMARK SMILES O=C(O)CCc1ccccc1
REMARK SMILES IDX 4 1 2 2 1 3 3 4 5 6 6 7 7 8 11 9 8 10 10 11 9 12
REMARK H PARENT 3 5
REMARK Flexibility Score: inf
ROOT
ATOM      1  C   UNL     1       8.411  -0.645  -2.089  1.00  0.00     0.127 C 
ENDROOT
BRANCH   1   2
ATOM      2  C   UNL     1       8.380  -1.891  -2.891  1.00  0.00     0.303 C 
ATOM      3  O   UNL     1       7.293  -2.425  -3.222  1.00  0.00    -0.252 OA
BRANCH   2   4
ATOM      4  O   UNL     1       9.555  -2.502  -3.299  1.00  0.00    -0.481 OA
ATOM      5  H   UNL     1      10.143  -2.039  -3.998  1.00  0.00     0.296 HD
ENDBRANCH   2   4
ENDBRANCH   1   2
BRANCH   1   6
ATOM      6  C   UNL     1       7.034  -0.056  -2.081  1.00  0.00     0.047 C 
BRANCH   6   7
ATOM      7  C   UNL     1       6.461   0.099  -0.745  1.00  0.00    -0.047 A 
ATOM      8  C   UNL     1       5.820   1.261  -0.384  1.00  0.00     0.004 A 
ATOM      9  C   UNL     1       6.567  -0.937   0.155  1.00  0.00     0.004 A 
ATOM     10  C   UNL     1       5.296   1.338   0.908  1.00  0.00     0.000 A 
ATOM     11  C   UNL     1       6.049  -0.859   1.432  1.00  0.00     0.000 A 
ATOM     12  C   UNL     1       5.405   0.303   1.801  1.00  0.00     0.000 A 
ENDBRANCH   6   7
ENDBRANCH   1   6
TORSDOF 4
ENDMDL
