@<TRIPOS>MOLECULE
/home/cewinharhar/GITHUB/reincatalyze/data/processed/docking_pred/2023-May-05-1615_maxeplen10_maxtrainstep1000_seadep16_gamma099_lrac9e-4_lrcr1e-3/4a3a178b6a4326eb13634b12f3ce9c4ec26f8538_ligand_2.pdbqt
 12 12 0 0 0
SMALL
GASTEIGER

@<TRIPOS>ATOM
      1  C          8.4540   -0.5960   -2.1870 C.3     1  UNL1        0.1270
      2  C          8.4910   -1.8830   -2.9200 C.2     1  UNL1        0.3030
      3  O          9.5720   -2.4940   -3.1080 O.2     1  UNL1       -0.2520
      4  O          7.3290   -2.4490   -3.4200 O.3     1  UNL1       -0.4810
      5  H          6.4300   -2.2050   -2.9960 H       1  UNL1        0.2960
      6  C          7.0230   -0.1730   -2.0510 C.3     1  UNL1        0.0470
      7  C          6.5460   -0.1260   -0.6700 C.2     1  UNL1       -0.0470
      8  C          5.8920    0.9850   -0.1890 C.2     1  UNL1        0.0040
      9  C          6.7560   -1.2110    0.1500 C.2     1  UNL1        0.0040
     10  C          5.4630    0.9590    1.1400 C.2     1  UNL1        0.0000
     11  C          6.3310   -1.2340    1.4630 C.2     1  UNL1        0.0000
     12  C          5.6760   -0.1250    1.9530 C.2     1  UNL1        0.0000
@<TRIPOS>BOND
     1     4     5    1
     2     4     2    1
     3     3     2    2
     4     2     1    1
     5     1     6    1
     6     6     7    1
     7     7     8    2
     8     7     9    1
     9     8    10    1
    10     9    11    2
    11    10    12    2
    12    11    12    1
