@<TRIPOS>MOLECULE
/home/cewinharhar/GITHUB/reincatalyze/data/processed/docking_pred/2023-May-05-1615_maxeplen10_maxtrainstep1000_seadep16_gamma099_lrac9e-4_lrcr1e-3/4c3a486d5bbb1ad3c8ce5b6da142191fd088767a_ligand_2.pdbqt
 12 12 0 0 0
SMALL
GASTEIGER

@<TRIPOS>ATOM
      1  C          8.4350   -0.6320   -2.1400 C.3     1  UNL1        0.1270
      2  C          8.4700   -1.8970   -2.9110 C.2     1  UNL1        0.3030
      3  O          9.5470   -2.5130   -3.1030 O.2     1  UNL1       -0.2520
      4  O          7.3100   -2.4370   -3.4430 O.3     1  UNL1       -0.4810
      5  H          6.8370   -3.1960   -2.9450 H       1  UNL1        0.2960
      6  C          7.0230   -0.1320   -2.1210 C.3     1  UNL1        0.0470
      7  C          6.4760    0.0520   -0.7770 C.2     1  UNL1       -0.0470
      8  C          5.8450    1.2240   -0.4290 C.2     1  UNL1        0.0040
      9  C          6.5960   -0.9650    0.1410 C.2     1  UNL1        0.0040
     10  C          5.3460    1.3300    0.8710 C.2     1  UNL1        0.0000
     11  C          6.1030   -0.8580    1.4260 C.2     1  UNL1        0.0000
     12  C          5.4700    0.3120    1.7840 C.2     1  UNL1        0.0000
@<TRIPOS>BOND
     1     4     5    1
     2     4     2    1
     3     3     2    2
     4     2     1    1
     5     1     6    1
     6     6     7    1
     7     7     8    2
     8     7     9    1
     9     8    10    1
    10     9    11    2
    11    10    12    2
    12    11    12    1
