@<TRIPOS>MOLECULE
/home/cewinharhar/GITHUB/reincatalyze/data/processed/docking_pred/2023-May-05-1615_maxeplen10_maxtrainstep1000_seadep16_gamma099_lrac9e-4_lrcr1e-3/4c3a486d5bbb1ad3c8ce5b6da142191fd088767a_ligand_2.pdbqt
 12 12 0 0 0
SMALL
GASTEIGER

@<TRIPOS>ATOM
      1  C          8.1640   -2.0140    0.7990 C.3     1  UNL1        0.1270
      2  C          8.3960   -3.4560    1.0490 C.2     1  UNL1        0.3030
      3  O          9.5010   -3.9920    0.7870 O.2     1  UNL1       -0.2520
      4  O          7.3970   -4.2550    1.5810 O.3     1  UNL1       -0.4810
      5  H          6.9050   -3.9470    2.4240 H       1  UNL1        0.2960
      6  C          6.8470   -1.6370    1.4080 C.3     1  UNL1        0.0470
      7  C          6.2880   -0.3900    0.8900 C.2     1  UNL1       -0.0470
      8  C          5.5300    0.4290    1.6950 C.2     1  UNL1        0.0040
      9  C          6.5280   -0.0390   -0.4180 C.2     1  UNL1        0.0040
     10  C          5.0280    1.6050    1.1330 C.2     1  UNL1        0.0000
     11  C          6.0310    1.1240   -0.9720 C.2     1  UNL1        0.0000
     12  C          5.2710    1.9500   -0.1730 C.2     1  UNL1        0.0000
@<TRIPOS>BOND
     1    11     9    1
     2    11    12    2
     3     9     7    2
     4    12    10    1
     5     3     2    2
     6     1     2    1
     7     1     6    1
     8     7     6    1
     9     7     8    1
    10     2     4    1
    11    10     8    2
    12     4     5    1
