MODEL 1
REMARK VINA RESULT:      -7.2      0.000      0.000
REMARK SMILES O=C(O)CCc1ccccc1
REMARK SMILES IDX 4 1 2 2 1 3 3 4 5 6 6 7 7 8 11 9 8 10 10 11 9 12
REMARK H PARENT 3 5
REMARK Flexibility Score: inf
ROOT
ATOM      1  C   UNL     1       8.435  -0.632  -2.140  1.00  0.00     0.127 C 
ENDROOT
BRANCH   1   2
ATOM      2  C   UNL     1       8.470  -1.897  -2.911  1.00  0.00     0.303 C 
ATOM      3  O   UNL     1       9.547  -2.513  -3.103  1.00  0.00    -0.252 OA
BRANCH   2   4
ATOM      4  O   UNL     1       7.310  -2.437  -3.443  1.00  0.00    -0.481 OA
ATOM      5  H   UNL     1       6.837  -3.196  -2.945  1.00  0.00     0.296 HD
ENDBRANCH   2   4
ENDBRANCH   1   2
BRANCH   1   6
ATOM      6  C   UNL     1       7.023  -0.132  -2.121  1.00  0.00     0.047 C 
BRANCH   6   7
ATOM      7  C   UNL     1       6.476   0.052  -0.777  1.00  0.00    -0.047 A 
ATOM      8  C   UNL     1       5.845   1.224  -0.429  1.00  0.00     0.004 A 
ATOM      9  C   UNL     1       6.596  -0.965   0.141  1.00  0.00     0.004 A 
ATOM     10  C   UNL     1       5.346   1.330   0.871  1.00  0.00     0.000 A 
ATOM     11  C   UNL     1       6.103  -0.858   1.426  1.00  0.00     0.000 A 
ATOM     12  C   UNL     1       5.470   0.312   1.784  1.00  0.00     0.000 A 
ENDBRANCH   6   7
ENDBRANCH   1   6
TORSDOF 4
ENDMDL
MODEL 2
REMARK VINA RESULT:      -7.1      2.491      3.237
REMARK SMILES O=C(O)CCc1ccccc1
REMARK SMILES IDX 4 1 2 2 1 3 3 4 5 6 6 7 7 8 11 9 8 10 10 11 9 12
REMARK H PARENT 3 5
REMARK Flexibility Score: inf
ROOT
ATOM      1  C   UNL     1       8.164  -2.014   0.799  1.00  0.00     0.127 C 
ENDROOT
BRANCH   1   2
ATOM      2  C   UNL     1       8.396  -3.456   1.049  1.00  0.00     0.303 C 
ATOM      3  O   UNL     1       9.501  -3.992   0.787  1.00  0.00    -0.252 OA
BRANCH   2   4
ATOM      4  O   UNL     1       7.397  -4.255   1.581  1.00  0.00    -0.481 OA
ATOM      5  H   UNL     1       6.905  -3.947   2.424  1.00  0.00     0.296 HD
ENDBRANCH   2   4
ENDBRANCH   1   2
BRANCH   1   6
ATOM      6  C   UNL     1       6.847  -1.637   1.408  1.00  0.00     0.047 C 
BRANCH   6   7
ATOM      7  C   UNL     1       6.288  -0.390   0.890  1.00  0.00    -0.047 A 
ATOM      8  C   UNL     1       5.530   0.429   1.695  1.00  0.00     0.004 A 
ATOM      9  C   UNL     1       6.528  -0.039  -0.418  1.00  0.00     0.004 A 
ATOM     10  C   UNL     1       5.028   1.605   1.133  1.00  0.00     0.000 A 
ATOM     11  C   UNL     1       6.031   1.124  -0.972  1.00  0.00     0.000 A 
ATOM     12  C   UNL     1       5.271   1.950  -0.173  1.00  0.00     0.000 A 
ENDBRANCH   6   7
ENDBRANCH   1   6
TORSDOF 4
ENDMDL
