@<TRIPOS>MOLECULE
/home/cewinharhar/GITHUB/reincatalyze/data/processed/docking_pred/2023-May-05-1615_maxeplen10_maxtrainstep1000_seadep16_gamma099_lrac9e-4_lrcr1e-3/4d620996829bdf69d2437cdb6940cc233521eaf3_ligand_2.pdbqt
 12 12 0 0 0
SMALL
GASTEIGER

@<TRIPOS>ATOM
      1  C          7.4270   -1.3720   -2.2770 C.3     1  UNL1        0.1270
      2  C          8.8730   -1.4420   -2.5960 C.2     1  UNL1        0.3030
      3  O          9.6450   -0.4880   -2.3290 O.2     1  UNL1       -0.2520
      4  O          9.4140   -2.5660   -3.2000 O.3     1  UNL1       -0.4810
      5  H          8.8000   -3.2010   -3.7170 H       1  UNL1        0.2960
      6  C          7.2560   -1.6210   -0.8100 C.3     1  UNL1        0.0470
      7  C          6.5130   -0.5730   -0.1120 C.2     1  UNL1       -0.0470
      8  C          6.1430   -0.7300    1.2030 C.2     1  UNL1        0.0040
      9  C          6.1870    0.5810   -0.7860 C.2     1  UNL1        0.0040
     10  C          5.4360    0.3130    1.8060 C.2     1  UNL1        0.0000
     11  C          5.4880    1.6110   -0.1890 C.2     1  UNL1        0.0000
     12  C          5.1120    1.4610    1.1290 C.2     1  UNL1        0.0000
@<TRIPOS>BOND
     1     5     4    1
     2     4     2    1
     3     2     3    2
     4     2     1    1
     5     1     6    1
     6     6     7    1
     7     9    11    1
     8     9     7    2
     9    11    12    2
    10     7     8    1
    11    12    10    1
    12     8    10    2
