@<TRIPOS>MOLECULE
/home/cewinharhar/GITHUB/reincatalyze/data/processed/docking_pred/2023-May-05-1615_maxeplen10_maxtrainstep1000_seadep16_gamma099_lrac9e-4_lrcr1e-3/4dfe2a4ebf2cd2c58b23ebebd9c83ff91bb12173_ligand_2.pdbqt
 12 12 0 0 0
SMALL
GASTEIGER

@<TRIPOS>ATOM
      1  C          8.4500   -0.6780   -2.0650 C.3     1  UNL1        0.1270
      2  C          8.4620   -1.9190   -2.8740 C.2     1  UNL1        0.3030
      3  O          9.5290   -2.5500   -3.0820 O.2     1  UNL1       -0.2520
      4  O          7.2940   -2.4190   -3.4250 O.3     1  UNL1       -0.4810
      5  H          6.6310   -2.9180   -2.8250 H       1  UNL1        0.2960
      6  C          7.0580   -0.1230   -2.0750 C.3     1  UNL1        0.0470
      7  C          6.4780    0.0540   -0.7450 C.2     1  UNL1       -0.0470
      8  C          5.8300    1.2200   -0.4100 C.2     1  UNL1        0.0040
      9  C          6.5870   -0.9620    0.1760 C.2     1  UNL1        0.0040
     10  C          5.3000    1.3200    0.8780 C.2     1  UNL1        0.0000
     11  C          6.0630   -0.8610    1.4490 C.2     1  UNL1        0.0000
     12  C          5.4120    0.3040    1.7930 C.2     1  UNL1        0.0000
@<TRIPOS>BOND
     1     4     2    1
     2     4     5    1
     3     3     2    2
     4     2     1    1
     5     6     1    1
     6     6     7    1
     7     7     8    2
     8     7     9    1
     9     8    10    1
    10     9    11    2
    11    10    12    2
    12    11    12    1
