@<TRIPOS>MOLECULE
/home/cewinharhar/GITHUB/reincatalyze/data/processed/docking_pred/2023-May-05-1615_maxeplen10_maxtrainstep1000_seadep16_gamma099_lrac9e-4_lrcr1e-3/4dfe2a4ebf2cd2c58b23ebebd9c83ff91bb12173_ligand_2.pdbqt
 12 12 0 0 0
SMALL
GASTEIGER

@<TRIPOS>ATOM
      1  C          8.3190   -0.5970   -2.1290 C.3     1  UNL1        0.1270
      2  C          8.3310   -1.8590   -2.9040 C.2     1  UNL1        0.3030
      3  O          7.2630   -2.4040   -3.2790 O.2     1  UNL1       -0.2520
      4  O          9.5260   -2.4760   -3.2390 O.3     1  UNL1       -0.4810
      5  H         10.3360   -1.9000   -3.4840 H       1  UNL1        0.2960
      6  C          6.9630   -0.4350   -1.5130 C.3     1  UNL1        0.0470
      7  C          6.8070    0.7910   -0.7320 C.2     1  UNL1       -0.0470
      8  C          7.8870    1.3700   -0.1080 C.2     1  UNL1        0.0040
      9  C          5.5610    1.3650   -0.6270 C.2     1  UNL1        0.0040
     10  C          7.6650    2.5410    0.6200 C.2     1  UNL1        0.0000
     11  C          5.3430    2.5230    0.0940 C.2     1  UNL1        0.0000
     12  C          6.4200    3.1090    0.7220 C.2     1  UNL1        0.0000
@<TRIPOS>BOND
     1     5     4    1
     2     3     2    2
     3     4     2    1
     4     2     1    1
     5     1     6    1
     6     6     7    1
     7     7     9    2
     8     7     8    1
     9     9    11    1
    10     8    10    2
    11    11    12    2
    12    10    12    1
