MODEL 1
REMARK VINA RESULT:      -7.1      0.000      0.000
REMARK SMILES O=C(O)CCc1ccccc1
REMARK SMILES IDX 4 1 2 2 1 3 3 4 5 6 6 7 7 8 11 9 8 10 10 11 9 12
REMARK H PARENT 3 5
REMARK Flexibility Score: inf
ROOT
ATOM      1  C   UNL     1       8.450  -0.678  -2.065  1.00  0.00     0.127 C 
ENDROOT
BRANCH   1   2
ATOM      2  C   UNL     1       8.462  -1.919  -2.874  1.00  0.00     0.303 C 
ATOM      3  O   UNL     1       9.529  -2.550  -3.082  1.00  0.00    -0.252 OA
BRANCH   2   4
ATOM      4  O   UNL     1       7.294  -2.419  -3.425  1.00  0.00    -0.481 OA
ATOM      5  H   UNL     1       6.631  -2.918  -2.825  1.00  0.00     0.296 HD
ENDBRANCH   2   4
ENDBRANCH   1   2
BRANCH   1   6
ATOM      6  C   UNL     1       7.058  -0.123  -2.075  1.00  0.00     0.047 C 
BRANCH   6   7
ATOM      7  C   UNL     1       6.478   0.054  -0.745  1.00  0.00    -0.047 A 
ATOM      8  C   UNL     1       5.830   1.220  -0.410  1.00  0.00     0.004 A 
ATOM      9  C   UNL     1       6.587  -0.962   0.176  1.00  0.00     0.004 A 
ATOM     10  C   UNL     1       5.300   1.320   0.878  1.00  0.00     0.000 A 
ATOM     11  C   UNL     1       6.063  -0.861   1.449  1.00  0.00     0.000 A 
ATOM     12  C   UNL     1       5.412   0.304   1.793  1.00  0.00     0.000 A 
ENDBRANCH   6   7
ENDBRANCH   1   6
TORSDOF 4
ENDMDL
MODEL 2
REMARK VINA RESULT:      -7.0      8.006      8.677
REMARK SMILES O=C(O)CCc1ccccc1
REMARK SMILES IDX 4 1 2 2 1 3 3 4 5 6 6 7 7 8 11 9 8 10 10 11 9 12
REMARK H PARENT 3 5
REMARK Flexibility Score: inf
ROOT
ATOM      1  C   UNL     1      13.794   1.442   5.049  1.00  0.00     0.127 C 
ENDROOT
BRANCH   1   2
ATOM      2  C   UNL     1      14.437   2.657   5.601  1.00  0.00     0.303 C 
ATOM      3  O   UNL     1      14.047   3.805   5.274  1.00  0.00    -0.252 OA
BRANCH   2   4
ATOM      4  O   UNL     1      15.491   2.559   6.495  1.00  0.00    -0.481 OA
ATOM      5  H   UNL     1      16.404   2.238   6.160  1.00  0.00     0.296 HD
ENDBRANCH   2   4
ENDBRANCH   1   2
BRANCH   1   6
ATOM      6  C   UNL     1      13.663   1.610   3.566  1.00  0.00     0.047 C 
BRANCH   6   7
ATOM      7  C   UNL     1      12.329   1.310   3.049  1.00  0.00    -0.047 A 
ATOM      8  C   UNL     1      12.136   0.284   2.154  1.00  0.00     0.004 A 
ATOM      9  C   UNL     1      11.260   2.067   3.471  1.00  0.00     0.004 A 
ATOM     10  C   UNL     1      10.834   0.054   1.703  1.00  0.00     0.000 A 
ATOM     11  C   UNL     1       9.974   1.838   3.024  1.00  0.00     0.000 A 
ATOM     12  C   UNL     1       9.772   0.812   2.126  1.00  0.00     0.000 A 
ENDBRANCH   6   7
ENDBRANCH   1   6
TORSDOF 4
ENDMDL
MODEL 3
REMARK VINA RESULT:      -6.7      1.404      2.211
REMARK SMILES O=C(O)CCc1ccccc1
REMARK SMILES IDX 4 1 2 2 1 3 3 4 5 6 6 7 7 8 11 9 8 10 10 11 9 12
REMARK H PARENT 3 5
REMARK Flexibility Score: inf
ROOT
ATOM      1  C   UNL     1       8.319  -0.597  -2.129  1.00  0.00     0.127 C 
ENDROOT
BRANCH   1   2
ATOM      2  C   UNL     1       8.331  -1.859  -2.904  1.00  0.00     0.303 C 
ATOM      3  O   UNL     1       7.263  -2.404  -3.279  1.00  0.00    -0.252 OA
BRANCH   2   4
ATOM      4  O   UNL     1       9.526  -2.476  -3.239  1.00  0.00    -0.481 OA
ATOM      5  H   UNL     1      10.336  -1.900  -3.484  1.00  0.00     0.296 HD
ENDBRANCH   2   4
ENDBRANCH   1   2
BRANCH   1   6
ATOM      6  C   UNL     1       6.963  -0.435  -1.513  1.00  0.00     0.047 C 
BRANCH   6   7
ATOM      7  C   UNL     1       6.807   0.791  -0.732  1.00  0.00    -0.047 A 
ATOM      8  C   UNL     1       7.887   1.370  -0.108  1.00  0.00     0.004 A 
ATOM      9  C   UNL     1       5.561   1.365  -0.627  1.00  0.00     0.004 A 
ATOM     10  C   UNL     1       7.665   2.541   0.620  1.00  0.00     0.000 A 
ATOM     11  C   UNL     1       5.343   2.523   0.094  1.00  0.00     0.000 A 
ATOM     12  C   UNL     1       6.420   3.109   0.722  1.00  0.00     0.000 A 
ENDBRANCH   6   7
ENDBRANCH   1   6
TORSDOF 4
ENDMDL
