@<TRIPOS>MOLECULE
/home/cewinharhar/GITHUB/reincatalyze/data/processed/docking_pred/2023-May-05-1615_maxeplen10_maxtrainstep1000_seadep16_gamma099_lrac9e-4_lrcr1e-3/4dfe2a4ebf2cd2c58b23ebebd9c83ff91bb12173_ligand_2.pdbqt
 12 12 0 0 0
SMALL
GASTEIGER

@<TRIPOS>ATOM
      1  C         13.7940    1.4420    5.0490 C.3     1  UNL1        0.1270
      2  C         14.4370    2.6570    5.6010 C.2     1  UNL1        0.3030
      3  O         14.0470    3.8050    5.2740 O.2     1  UNL1       -0.2520
      4  O         15.4910    2.5590    6.4950 O.3     1  UNL1       -0.4810
      5  H         16.4040    2.2380    6.1600 H       1  UNL1        0.2960
      6  C         13.6630    1.6100    3.5660 C.3     1  UNL1        0.0470
      7  C         12.3290    1.3100    3.0490 C.2     1  UNL1       -0.0470
      8  C         12.1360    0.2840    2.1540 C.2     1  UNL1        0.0040
      9  C         11.2600    2.0670    3.4710 C.2     1  UNL1        0.0040
     10  C         10.8340    0.0540    1.7030 C.2     1  UNL1        0.0000
     11  C          9.9740    1.8380    3.0240 C.2     1  UNL1        0.0000
     12  C          9.7720    0.8120    2.1260 C.2     1  UNL1        0.0000
@<TRIPOS>BOND
     1    10    12    2
     2    10     8    1
     3    12    11    1
     4     8     7    2
     5    11     9    2
     6     7     9    1
     7     7     6    1
     8     6     1    1
     9     1     2    1
    10     3     2    2
    11     2     4    1
    12     5     4    1
