@<TRIPOS>MOLECULE
/home/cewinharhar/GITHUB/reincatalyze/data/processed/docking_pred/2023-May-05-1615_maxeplen10_maxtrainstep1000_seadep16_gamma099_lrac9e-4_lrcr1e-3/4e2e003c692afcef440410ba16f5bc8e831af6c9_ligand_2.pdbqt
 12 12 0 0 0
SMALL
GASTEIGER

@<TRIPOS>ATOM
      1  C          8.2580   -0.5400   -2.2000 C.3     1  UNL1        0.1270
      2  C          8.2980   -1.8280   -2.9320 C.2     1  UNL1        0.3030
      3  O          7.2420   -2.3970   -3.3060 O.2     1  UNL1       -0.2520
      4  O          9.5050   -2.4430   -3.2230 O.3     1  UNL1       -0.4810
      5  H          9.5160   -3.2530   -3.8480 H       1  UNL1        0.2960
      6  C          6.9680   -0.4680   -1.4420 C.3     1  UNL1        0.0470
      7  C          6.7890    0.7730   -0.6900 C.2     1  UNL1       -0.0470
      8  C          5.5530    1.3720   -0.6070 C.2     1  UNL1        0.0040
      9  C          7.8730    1.3390   -0.0600 C.2     1  UNL1        0.0040
     10  C          5.4550    2.5550    0.1290 C.2     1  UNL1        0.0000
     11  C          7.7740    2.5090    0.6670 C.2     1  UNL1        0.0000
     12  C          6.5400    3.1160    0.7540 C.2     1  UNL1        0.0000
@<TRIPOS>BOND
     1     5     4    1
     2     3     2    2
     3     4     2    1
     4     2     1    1
     5     1     6    1
     6     6     7    1
     7     7     8    2
     8     7     9    1
     9     8    10    1
    10     9    11    2
    11    10    12    2
    12    11    12    1
