MODEL 1
REMARK VINA RESULT:      -7.1      0.000      0.000
REMARK SMILES O=C(O)CCc1ccccc1
REMARK SMILES IDX 4 1 2 2 1 3 3 4 5 6 6 7 7 8 11 9 8 10 10 11 9 12
REMARK H PARENT 3 5
REMARK Flexibility Score: inf
ROOT
ATOM      1  C   UNL     1       8.445  -0.634  -2.122  1.00  0.00     0.127 C 
ENDROOT
BRANCH   1   2
ATOM      2  C   UNL     1       8.462  -1.902  -2.888  1.00  0.00     0.303 C 
ATOM      3  O   UNL     1       9.530  -2.536  -3.074  1.00  0.00    -0.252 OA
BRANCH   2   4
ATOM      4  O   UNL     1       7.295  -2.424  -3.423  1.00  0.00    -0.481 OA
ATOM      5  H   UNL     1       6.462  -1.832  -3.481  1.00  0.00     0.296 HD
ENDBRANCH   2   4
ENDBRANCH   1   2
BRANCH   1   6
ATOM      6  C   UNL     1       7.038  -0.119  -2.095  1.00  0.00     0.047 C 
BRANCH   6   7
ATOM      7  C   UNL     1       6.481   0.021  -0.751  1.00  0.00    -0.047 A 
ATOM      8  C   UNL     1       6.587  -1.001   0.164  1.00  0.00     0.004 A 
ATOM      9  C   UNL     1       5.848   1.192  -0.405  1.00  0.00     0.004 A 
ATOM     10  C   UNL     1       6.033  -0.798   1.429  1.00  0.00     0.000 A 
ATOM     11  C   UNL     1       5.300   1.391   0.847  1.00  0.00     0.000 A 
ATOM     12  C   UNL     1       5.401   0.371   1.769  1.00  0.00     0.000 A 
ENDBRANCH   6   7
ENDBRANCH   1   6
TORSDOF 4
ENDMDL
MODEL 2
REMARK VINA RESULT:      -6.6      1.369      2.207
REMARK SMILES O=C(O)CCc1ccccc1
REMARK SMILES IDX 4 1 2 2 1 3 3 4 5 6 6 7 7 8 11 9 8 10 10 11 9 12
REMARK H PARENT 3 5
REMARK Flexibility Score: inf
ROOT
ATOM      1  C   UNL     1       8.258  -0.540  -2.200  1.00  0.00     0.127 C 
ENDROOT
BRANCH   1   2
ATOM      2  C   UNL     1       8.298  -1.828  -2.932  1.00  0.00     0.303 C 
ATOM      3  O   UNL     1       7.242  -2.397  -3.306  1.00  0.00    -0.252 OA
BRANCH   2   4
ATOM      4  O   UNL     1       9.505  -2.443  -3.223  1.00  0.00    -0.481 OA
ATOM      5  H   UNL     1       9.516  -3.253  -3.848  1.00  0.00     0.296 HD
ENDBRANCH   2   4
ENDBRANCH   1   2
BRANCH   1   6
ATOM      6  C   UNL     1       6.968  -0.468  -1.442  1.00  0.00     0.047 C 
BRANCH   6   7
ATOM      7  C   UNL     1       6.789   0.773  -0.690  1.00  0.00    -0.047 A 
ATOM      8  C   UNL     1       5.553   1.372  -0.607  1.00  0.00     0.004 A 
ATOM      9  C   UNL     1       7.873   1.339  -0.060  1.00  0.00     0.004 A 
ATOM     10  C   UNL     1       5.455   2.555   0.129  1.00  0.00     0.000 A 
ATOM     11  C   UNL     1       7.774   2.509   0.667  1.00  0.00     0.000 A 
ATOM     12  C   UNL     1       6.540   3.116   0.754  1.00  0.00     0.000 A 
ENDBRANCH   6   7
ENDBRANCH   1   6
TORSDOF 4
ENDMDL
