@<TRIPOS>MOLECULE
/home/cewinharhar/GITHUB/reincatalyze/data/processed/docking_pred/2023-May-05-1615_maxeplen10_maxtrainstep1000_seadep16_gamma099_lrac9e-4_lrcr1e-3/4e2e003c692afcef440410ba16f5bc8e831af6c9_ligand_2.pdbqt
 12 12 0 0 0
SMALL
GASTEIGER

@<TRIPOS>ATOM
      1  C          8.4450   -0.6340   -2.1220 C.3     1  UNL1        0.1270
      2  C          8.4620   -1.9020   -2.8880 C.2     1  UNL1        0.3030
      3  O          9.5300   -2.5360   -3.0740 O.2     1  UNL1       -0.2520
      4  O          7.2950   -2.4240   -3.4230 O.3     1  UNL1       -0.4810
      5  H          6.4620   -1.8320   -3.4810 H       1  UNL1        0.2960
      6  C          7.0380   -0.1190   -2.0950 C.3     1  UNL1        0.0470
      7  C          6.4810    0.0210   -0.7510 C.2     1  UNL1       -0.0470
      8  C          6.5870   -1.0010    0.1640 C.2     1  UNL1        0.0040
      9  C          5.8480    1.1920   -0.4050 C.2     1  UNL1        0.0040
     10  C          6.0330   -0.7980    1.4290 C.2     1  UNL1        0.0000
     11  C          5.3000    1.3910    0.8470 C.2     1  UNL1        0.0000
     12  C          5.4010    0.3710    1.7690 C.2     1  UNL1        0.0000
@<TRIPOS>BOND
     1     5     4    1
     2     4     2    1
     3     3     2    2
     4     2     1    1
     5     1     6    1
     6     6     7    1
     7     7     9    2
     8     7     8    1
     9     9    11    1
    10     8    10    2
    11    11    12    2
    12    10    12    1
