@<TRIPOS>MOLECULE
/home/cewinharhar/GITHUB/reincatalyze/data/processed/docking_pred/2023-May-05-1615_maxeplen10_maxtrainstep1000_seadep16_gamma099_lrac9e-4_lrcr1e-3/4f8338f1f65f27d68c3e57a6b5041c9c59ec4c55_ligand_2.pdbqt
 12 12 0 0 0
SMALL
GASTEIGER

@<TRIPOS>ATOM
      1  C          8.4060   -0.6560   -2.0760 C.3     1  UNL1        0.1270
      2  C          8.3760   -1.9020   -2.8780 C.2     1  UNL1        0.3030
      3  O          7.2900   -2.4140   -3.2450 O.2     1  UNL1       -0.2520
      4  O          9.5510   -2.5390   -3.2450 O.3     1  UNL1       -0.4810
      5  H          9.7850   -3.4410   -2.8220 H       1  UNL1        0.2960
      6  C          7.0290   -0.0660   -2.0720 C.3     1  UNL1        0.0470
      7  C          6.4580    0.1020   -0.7370 C.2     1  UNL1       -0.0470
      8  C          5.8050    1.2620   -0.3920 C.2     1  UNL1        0.0040
      9  C          6.5790   -0.9190    0.1780 C.2     1  UNL1        0.0040
     10  C          5.2830    1.3520    0.9010 C.2     1  UNL1        0.0000
     11  C          6.0640   -0.8280    1.4550 C.2     1  UNL1        0.0000
     12  C          5.4080    0.3310    1.8090 C.2     1  UNL1        0.0000
@<TRIPOS>BOND
     1     3     2    2
     2     4     2    1
     3     4     5    1
     4     2     1    1
     5     1     6    1
     6     6     7    1
     7     7     8    2
     8     7     9    1
     9     8    10    1
    10     9    11    2
    11    10    12    2
    12    11    12    1
