MODEL 1
REMARK VINA RESULT:      -7.1      0.000      0.000
REMARK SMILES O=C(O)CCc1ccccc1
REMARK SMILES IDX 4 1 2 2 1 3 3 4 5 6 6 7 7 8 11 9 8 10 10 11 9 12
REMARK H PARENT 3 5
REMARK Flexibility Score: inf
ROOT
ATOM      1  C   UNL     1       8.474  -0.634  -2.120  1.00  0.00     0.127 C 
ENDROOT
BRANCH   1   2
ATOM      2  C   UNL     1       8.483  -1.900  -2.889  1.00  0.00     0.303 C 
ATOM      3  O   UNL     1       9.548  -2.536  -3.085  1.00  0.00    -0.252 OA
BRANCH   2   4
ATOM      4  O   UNL     1       7.310  -2.419  -3.415  1.00  0.00    -0.481 OA
ATOM      5  H   UNL     1       7.178  -2.430  -4.430  1.00  0.00     0.296 HD
ENDBRANCH   2   4
ENDBRANCH   1   2
BRANCH   1   6
ATOM      6  C   UNL     1       7.076  -0.095  -2.114  1.00  0.00     0.047 C 
BRANCH   6   7
ATOM      7  C   UNL     1       6.504   0.060  -0.778  1.00  0.00    -0.047 A 
ATOM      8  C   UNL     1       6.602  -0.950   0.151  1.00  0.00     0.004 A 
ATOM      9  C   UNL     1       5.865   1.234  -0.454  1.00  0.00     0.004 A 
ATOM     10  C   UNL     1       6.034  -0.732   1.408  1.00  0.00     0.000 A 
ATOM     11  C   UNL     1       5.303   1.448   0.789  1.00  0.00     0.000 A 
ATOM     12  C   UNL     1       5.396   0.441   1.725  1.00  0.00     0.000 A 
ENDBRANCH   6   7
ENDBRANCH   1   6
TORSDOF 4
ENDMDL
MODEL 2
REMARK VINA RESULT:      -6.5      2.421      3.437
REMARK SMILES O=C(O)CCc1ccccc1
REMARK SMILES IDX 4 1 2 2 1 3 3 4 5 6 6 7 7 8 11 9 8 10 10 11 9 12
REMARK H PARENT 3 5
REMARK Flexibility Score: inf
ROOT
ATOM      1  C   UNL     1       7.933  -1.240   2.385  1.00  0.00     0.127 C 
ENDROOT
BRANCH   1   2
ATOM      2  C   UNL     1       8.704  -2.307   1.705  1.00  0.00     0.303 C 
ATOM      3  O   UNL     1       9.934  -2.456   1.913  1.00  0.00    -0.252 OA
BRANCH   2   4
ATOM      4  O   UNL     1       8.086  -3.172   0.816  1.00  0.00    -0.481 OA
ATOM      5  H   UNL     1       7.579  -3.984   1.178  1.00  0.00     0.296 HD
ENDBRANCH   2   4
ENDBRANCH   1   2
BRANCH   1   6
ATOM      6  C   UNL     1       6.514  -1.307   1.908  1.00  0.00     0.047 C 
BRANCH   6   7
ATOM      7  C   UNL     1       6.116  -0.179   1.068  1.00  0.00    -0.047 A 
ATOM      8  C   UNL     1       6.533  -0.094  -0.240  1.00  0.00     0.004 A 
ATOM      9  C   UNL     1       5.312   0.803   1.600  1.00  0.00     0.004 A 
ATOM     10  C   UNL     1       6.113   1.011  -0.984  1.00  0.00     0.000 A 
ATOM     11  C   UNL     1       4.898   1.895   0.863  1.00  0.00     0.000 A 
ATOM     12  C   UNL     1       5.312   1.988  -0.448  1.00  0.00     0.000 A 
ENDBRANCH   6   7
ENDBRANCH   1   6
TORSDOF 4
ENDMDL
