@<TRIPOS>MOLECULE
/home/cewinharhar/GITHUB/reincatalyze/data/processed/docking_pred/2023-May-05-1615_maxeplen10_maxtrainstep1000_seadep16_gamma099_lrac9e-4_lrcr1e-3/4f8485ffa73320ccf1b94cd7b1ea99ef776c762b_ligand_2.pdbqt
 12 12 0 0 0
SMALL
GASTEIGER

@<TRIPOS>ATOM
      1  C          7.9330   -1.2400    2.3850 C.3     1  UNL1        0.1270
      2  C          8.7040   -2.3070    1.7050 C.2     1  UNL1        0.3030
      3  O          9.9340   -2.4560    1.9130 O.2     1  UNL1       -0.2520
      4  O          8.0860   -3.1720    0.8160 O.3     1  UNL1       -0.4810
      5  H          7.5790   -3.9840    1.1780 H       1  UNL1        0.2960
      6  C          6.5140   -1.3070    1.9080 C.3     1  UNL1        0.0470
      7  C          6.1160   -0.1790    1.0680 C.2     1  UNL1       -0.0470
      8  C          6.5330   -0.0940   -0.2400 C.2     1  UNL1        0.0040
      9  C          5.3120    0.8030    1.6000 C.2     1  UNL1        0.0040
     10  C          6.1130    1.0110   -0.9840 C.2     1  UNL1        0.0000
     11  C          4.8980    1.8950    0.8630 C.2     1  UNL1        0.0000
     12  C          5.3120    1.9880   -0.4480 C.2     1  UNL1        0.0000
@<TRIPOS>BOND
     1    10    12    2
     2    10     8    1
     3    12    11    1
     4     8     7    2
     5     4     5    1
     6     4     2    1
     7    11     9    2
     8     7     9    1
     9     7     6    1
    10     2     3    2
    11     2     1    1
    12     6     1    1
