MODEL 1
REMARK VINA RESULT:      -7.0      0.000      0.000
REMARK SMILES O=C(O)CCc1ccccc1
REMARK SMILES IDX 4 1 2 2 1 3 3 4 5 6 6 7 7 8 11 9 8 10 10 11 9 12
REMARK H PARENT 3 5
REMARK Flexibility Score: inf
ROOT
ATOM      1  C   UNL     1       8.405  -0.668  -2.064  1.00  0.00     0.127 C 
ENDROOT
BRANCH   1   2
ATOM      2  C   UNL     1       8.373  -1.909  -2.873  1.00  0.00     0.303 C 
ATOM      3  O   UNL     1       7.287  -2.411  -3.253  1.00  0.00    -0.252 OA
BRANCH   2   4
ATOM      4  O   UNL     1       9.547  -2.552  -3.233  1.00  0.00    -0.481 OA
ATOM      5  H   UNL     1       9.635  -2.944  -4.174  1.00  0.00     0.296 HD
ENDBRANCH   2   4
ENDBRANCH   1   2
BRANCH   1   6
ATOM      6  C   UNL     1       7.031  -0.070  -2.065  1.00  0.00     0.047 C 
BRANCH   6   7
ATOM      7  C   UNL     1       6.454   0.096  -0.732  1.00  0.00    -0.047 A 
ATOM      8  C   UNL     1       5.799   1.256  -0.389  1.00  0.00     0.004 A 
ATOM      9  C   UNL     1       6.572  -0.924   0.183  1.00  0.00     0.004 A 
ATOM     10  C   UNL     1       5.272   1.346   0.902  1.00  0.00     0.000 A 
ATOM     11  C   UNL     1       6.052  -0.834   1.459  1.00  0.00     0.000 A 
ATOM     12  C   UNL     1       5.394   0.325   1.810  1.00  0.00     0.000 A 
ENDBRANCH   6   7
ENDBRANCH   1   6
TORSDOF 4
ENDMDL
MODEL 2
REMARK VINA RESULT:      -6.8      1.412      2.188
REMARK SMILES O=C(O)CCc1ccccc1
REMARK SMILES IDX 4 1 2 2 1 3 3 4 5 6 6 7 7 8 11 9 8 10 10 11 9 12
REMARK H PARENT 3 5
REMARK Flexibility Score: inf
ROOT
ATOM      1  C   UNL     1       8.323  -0.529  -2.292  1.00  0.00     0.127 C 
ENDROOT
BRANCH   1   2
ATOM      2  C   UNL     1       8.413  -1.853  -2.951  1.00  0.00     0.303 C 
ATOM      3  O   UNL     1       9.516  -2.437  -3.092  1.00  0.00    -0.252 OA
BRANCH   2   4
ATOM      4  O   UNL     1       7.277  -2.486  -3.432  1.00  0.00    -0.481 OA
ATOM      5  H   UNL     1       7.038  -3.418  -3.083  1.00  0.00     0.296 HD
ENDBRANCH   2   4
ENDBRANCH   1   2
BRANCH   1   6
ATOM      6  C   UNL     1       7.007  -0.445  -1.581  1.00  0.00     0.047 C 
BRANCH   6   7
ATOM      7  C   UNL     1       6.842   0.765  -0.777  1.00  0.00    -0.047 A 
ATOM      8  C   UNL     1       7.921   1.350  -0.157  1.00  0.00     0.004 A 
ATOM      9  C   UNL     1       5.589   1.319  -0.647  1.00  0.00     0.004 A 
ATOM     10  C   UNL     1       7.690   2.504   0.594  1.00  0.00     0.000 A 
ATOM     11  C   UNL     1       5.362   2.460   0.096  1.00  0.00     0.000 A 
ATOM     12  C   UNL     1       6.438   3.052   0.721  1.00  0.00     0.000 A 
ENDBRANCH   6   7
ENDBRANCH   1   6
TORSDOF 4
ENDMDL
