@<TRIPOS>MOLECULE
/home/cewinharhar/GITHUB/reincatalyze/data/processed/docking_pred/2023-May-05-1615_maxeplen10_maxtrainstep1000_seadep16_gamma099_lrac9e-4_lrcr1e-3/4fd116288ae20ad94bf91d23a53b6bc9c92e4cae_ligand_2.pdbqt
 12 12 0 0 0
SMALL
GASTEIGER

@<TRIPOS>ATOM
      1  C          8.3230   -0.5290   -2.2920 C.3     1  UNL1        0.1270
      2  C          8.4130   -1.8530   -2.9510 C.2     1  UNL1        0.3030
      3  O          9.5160   -2.4370   -3.0920 O.2     1  UNL1       -0.2520
      4  O          7.2770   -2.4860   -3.4320 O.3     1  UNL1       -0.4810
      5  H          7.0380   -3.4180   -3.0830 H       1  UNL1        0.2960
      6  C          7.0070   -0.4450   -1.5810 C.3     1  UNL1        0.0470
      7  C          6.8420    0.7650   -0.7770 C.2     1  UNL1       -0.0470
      8  C          7.9210    1.3500   -0.1570 C.2     1  UNL1        0.0040
      9  C          5.5890    1.3190   -0.6470 C.2     1  UNL1        0.0040
     10  C          7.6900    2.5040    0.5940 C.2     1  UNL1        0.0000
     11  C          5.3620    2.4600    0.0960 C.2     1  UNL1        0.0000
     12  C          6.4380    3.0520    0.7210 C.2     1  UNL1        0.0000
@<TRIPOS>BOND
     1     4     5    1
     2     4     2    1
     3     3     2    2
     4     2     1    1
     5     1     6    1
     6     6     7    1
     7     7     9    2
     8     7     8    1
     9     9    11    1
    10     8    10    2
    11    11    12    2
    12    10    12    1
