@<TRIPOS>MOLECULE
/home/cewinharhar/GITHUB/reincatalyze/data/processed/docking_pred/2023-May-05-1615_maxeplen10_maxtrainstep1000_seadep16_gamma099_lrac9e-4_lrcr1e-3/4fd116288ae20ad94bf91d23a53b6bc9c92e4cae_ligand_2.pdbqt
 12 12 0 0 0
SMALL
GASTEIGER

@<TRIPOS>ATOM
      1  C          8.4050   -0.6680   -2.0640 C.3     1  UNL1        0.1270
      2  C          8.3730   -1.9090   -2.8730 C.2     1  UNL1        0.3030
      3  O          7.2870   -2.4110   -3.2530 O.2     1  UNL1       -0.2520
      4  O          9.5470   -2.5520   -3.2330 O.3     1  UNL1       -0.4810
      5  H          9.6350   -2.9440   -4.1740 H       1  UNL1        0.2960
      6  C          7.0310   -0.0700   -2.0650 C.3     1  UNL1        0.0470
      7  C          6.4540    0.0960   -0.7320 C.2     1  UNL1       -0.0470
      8  C          5.7990    1.2560   -0.3890 C.2     1  UNL1        0.0040
      9  C          6.5720   -0.9240    0.1830 C.2     1  UNL1        0.0040
     10  C          5.2720    1.3460    0.9020 C.2     1  UNL1        0.0000
     11  C          6.0520   -0.8340    1.4590 C.2     1  UNL1        0.0000
     12  C          5.3940    0.3250    1.8100 C.2     1  UNL1        0.0000
@<TRIPOS>BOND
     1     5     4    1
     2     3     2    2
     3     4     2    1
     4     2     1    1
     5     6     1    1
     6     6     7    1
     7     7     8    2
     8     7     9    1
     9     8    10    1
    10     9    11    2
    11    10    12    2
    12    11    12    1
