@<TRIPOS>MOLECULE
/home/cewinharhar/GITHUB/reincatalyze/data/processed/docking_pred/2023-May-05-1615_maxeplen10_maxtrainstep1000_seadep16_gamma099_lrac9e-4_lrcr1e-3/5131ba4422f83928eab452067adeb3f7f7723c60_ligand_2.pdbqt
 12 12 0 0 0
SMALL
GASTEIGER

@<TRIPOS>ATOM
      1  C          8.4050   -0.6530   -2.0810 C.3     1  UNL1        0.1270
      2  C          8.3750   -1.9020   -2.8780 C.2     1  UNL1        0.3030
      3  O          7.2890   -2.4130   -3.2460 O.2     1  UNL1       -0.2520
      4  O          9.5500   -2.5410   -3.2400 O.3     1  UNL1       -0.4810
      5  H          9.9860   -3.1970   -2.5860 H       1  UNL1        0.2960
      6  C          7.0270   -0.0660   -2.0740 C.3     1  UNL1        0.0470
      7  C          6.4580    0.1020   -0.7380 C.2     1  UNL1       -0.0470
      8  C          5.8040    1.2620   -0.3920 C.2     1  UNL1        0.0040
      9  C          6.5820   -0.9180    0.1770 C.2     1  UNL1        0.0040
     10  C          5.2850    1.3530    0.9010 C.2     1  UNL1        0.0000
     11  C          6.0690   -0.8260    1.4560 C.2     1  UNL1        0.0000
     12  C          5.4120    0.3330    1.8100 C.2     1  UNL1        0.0000
@<TRIPOS>BOND
     1     3     2    2
     2     4     2    1
     3     4     5    1
     4     2     1    1
     5     1     6    1
     6     6     7    1
     7     7     8    2
     8     7     9    1
     9     8    10    1
    10     9    11    2
    11    10    12    2
    12    11    12    1
