@<TRIPOS>MOLECULE
/home/cewinharhar/GITHUB/reincatalyze/data/processed/docking_pred/2023-May-05-1615_maxeplen10_maxtrainstep1000_seadep16_gamma099_lrac9e-4_lrcr1e-3/51335195432d6c3c52ef841bfe8bb9323d602809_ligand_2.pdbqt
 12 12 0 0 0
SMALL
GASTEIGER

@<TRIPOS>ATOM
      1  C          7.2500   -1.2300   -2.1930 C.3     1  UNL1        0.1270
      2  C          8.6880   -1.2930   -2.5430 C.2     1  UNL1        0.3030
      3  O          9.4980   -0.4290   -2.1240 O.2     1  UNL1       -0.2520
      4  O          9.1800   -2.3110   -3.3440 O.3     1  UNL1       -0.4810
      5  H          8.6430   -2.6060   -4.1650 H       1  UNL1        0.2960
      6  C          7.1230   -1.3230   -0.7030 C.3     1  UNL1        0.0470
      7  C          6.3750   -0.2220   -0.0990 C.2     1  UNL1       -0.0470
      8  C          5.9470   -0.2940    1.2070 C.2     1  UNL1        0.0040
      9  C          6.1010    0.8960   -0.8520 C.2     1  UNL1        0.0040
     10  C          5.2380    0.7950    1.7180 C.2     1  UNL1        0.0000
     11  C          5.3990    1.9720   -0.3450 C.2     1  UNL1        0.0000
     12  C          4.9670    1.9070    0.9610 C.2     1  UNL1        0.0000
@<TRIPOS>BOND
     1     5     4    1
     2     4     2    1
     3     2     1    1
     4     2     3    2
     5     1     6    1
     6     9    11    1
     7     9     7    2
     8     6     7    1
     9    11    12    2
    10     7     8    1
    11    12    10    1
    12     8    10    2
