MODEL 1
REMARK VINA RESULT:      -7.2      0.000      0.000
REMARK SMILES O=C(O)CCc1ccccc1
REMARK SMILES IDX 4 1 2 2 1 3 3 4 5 6 6 7 7 8 11 9 8 10 10 11 9 12
REMARK H PARENT 3 5
REMARK Flexibility Score: inf
ROOT
ATOM      1  C   UNL     1       8.405  -0.649  -2.085  1.00  0.00     0.127 C 
ENDROOT
BRANCH   1   2
ATOM      2  C   UNL     1       8.375  -1.899  -2.881  1.00  0.00     0.303 C 
ATOM      3  O   UNL     1       7.288  -2.414  -3.243  1.00  0.00    -0.252 OA
BRANCH   2   4
ATOM      4  O   UNL     1       9.549  -2.535  -3.250  1.00  0.00    -0.481 OA
ATOM      5  H   UNL     1      10.132  -2.125  -3.985  1.00  0.00     0.296 HD
ENDBRANCH   2   4
ENDBRANCH   1   2
BRANCH   1   6
ATOM      6  C   UNL     1       7.026  -0.063  -2.077  1.00  0.00     0.047 C 
BRANCH   6   7
ATOM      7  C   UNL     1       6.458   0.101  -0.740  1.00  0.00    -0.047 A 
ATOM      8  C   UNL     1       5.805   1.260  -0.390  1.00  0.00     0.004 A 
ATOM      9  C   UNL     1       6.581  -0.922   0.172  1.00  0.00     0.004 A 
ATOM     10  C   UNL     1       5.286   1.346   0.904  1.00  0.00     0.000 A 
ATOM     11  C   UNL     1       6.068  -0.835   1.451  1.00  0.00     0.000 A 
ATOM     12  C   UNL     1       5.413   0.323   1.809  1.00  0.00     0.000 A 
ENDBRANCH   6   7
ENDBRANCH   1   6
TORSDOF 4
ENDMDL
