@<TRIPOS>MOLECULE
/home/cewinharhar/GITHUB/reincatalyze/data/processed/docking_pred/2023-May-05-1615_maxeplen10_maxtrainstep1000_seadep16_gamma099_lrac9e-4_lrcr1e-3/51cadb519a72bd0ce332fe372f57097c9ba117cb_ligand_2.pdbqt
 12 12 0 0 0
SMALL
GASTEIGER

@<TRIPOS>ATOM
      1  C          8.4050   -0.6490   -2.0850 C.3     1  UNL1        0.1270
      2  C          8.3750   -1.8990   -2.8810 C.2     1  UNL1        0.3030
      3  O          7.2880   -2.4140   -3.2430 O.2     1  UNL1       -0.2520
      4  O          9.5490   -2.5350   -3.2500 O.3     1  UNL1       -0.4810
      5  H         10.1320   -2.1250   -3.9850 H       1  UNL1        0.2960
      6  C          7.0260   -0.0630   -2.0770 C.3     1  UNL1        0.0470
      7  C          6.4580    0.1010   -0.7400 C.2     1  UNL1       -0.0470
      8  C          5.8050    1.2600   -0.3900 C.2     1  UNL1        0.0040
      9  C          6.5810   -0.9220    0.1720 C.2     1  UNL1        0.0040
     10  C          5.2860    1.3460    0.9040 C.2     1  UNL1        0.0000
     11  C          6.0680   -0.8350    1.4510 C.2     1  UNL1        0.0000
     12  C          5.4130    0.3230    1.8090 C.2     1  UNL1        0.0000
@<TRIPOS>BOND
     1     5     4    1
     2     4     2    1
     3     3     2    2
     4     2     1    1
     5     1     6    1
     6     6     7    1
     7     7     8    2
     8     7     9    1
     9     8    10    1
    10     9    11    2
    11    10    12    2
    12    11    12    1
