@<TRIPOS>MOLECULE
/home/cewinharhar/GITHUB/reincatalyze/data/processed/docking_pred/2023-May-05-1615_maxeplen10_maxtrainstep1000_seadep16_gamma099_lrac9e-4_lrcr1e-3/51cadb519a72bd0ce332fe372f57097c9ba117cb_ligand_2.pdbqt
 12 12 0 0 0
SMALL
GASTEIGER

@<TRIPOS>ATOM
      1  C          5.9370   -0.8900    1.7690 C.3     1  UNL1        0.1270
      2  C          5.3710    0.4510    2.0480 C.2     1  UNL1        0.3030
      3  O          4.1970    0.5860    2.4710 O.2     1  UNL1       -0.2520
      4  O          6.1260    1.5950    1.8480 O.3     1  UNL1       -0.4810
      5  H          5.7300    2.3680    1.3060 H       1  UNL1        0.2960
      6  C          7.3990   -0.7340    1.4790 C.3     1  UNL1        0.0470
      7  C          7.7160   -0.6440    0.0550 C.2     1  UNL1       -0.0470
      8  C          8.8580   -0.0080   -0.3730 C.2     1  UNL1        0.0040
      9  C          6.8560   -1.2060   -0.8610 C.2     1  UNL1        0.0040
     10  C          9.0980    0.0390   -1.7480 C.2     1  UNL1        0.0000
     11  C          7.0950   -1.1580   -2.2200 C.2     1  UNL1        0.0000
     12  C          8.2370   -0.5230   -2.6570 C.2     1  UNL1        0.0000
@<TRIPOS>BOND
     1    12    11    2
     2    12    10    1
     3    11     9    1
     4    10     8    2
     5     9     7    2
     6     8     7    1
     7     7     6    1
     8     5     4    1
     9     6     1    1
    10     1     2    1
    11     4     2    1
    12     2     3    2
