@<TRIPOS>MOLECULE
/home/cewinharhar/GITHUB/reincatalyze/data/processed/docking_pred/2023-May-05-1615_maxeplen10_maxtrainstep1000_seadep16_gamma099_lrac9e-4_lrcr1e-3/51cadb519a72bd0ce332fe372f57097c9ba117cb_ligand_2.pdbqt
 12 12 0 0 0
SMALL
GASTEIGER

@<TRIPOS>ATOM
      1  C          5.0980   -0.1250    2.0450 C.3     1  UNL1        0.1270
      2  C          4.4180    1.1910    1.9790 C.2     1  UNL1        0.3030
      3  O          4.9400    2.1630    1.3800 O.2     1  UNL1       -0.2520
      4  O          3.1840    1.3830    2.5780 O.3     1  UNL1       -0.4810
      5  H          2.4760    1.9450    2.0970 H       1  UNL1        0.2960
      6  C          6.5480    0.0780    1.7260 C.3     1  UNL1        0.0470
      7  C          7.0190   -0.7000    0.5820 C.2     1  UNL1       -0.0470
      8  C          6.6390   -0.3700   -0.6980 C.2     1  UNL1        0.0040
      9  C          7.8540   -1.7720    0.7970 C.2     1  UNL1        0.0040
     10  C          7.1290   -1.1560   -1.7430 C.2     1  UNL1        0.0000
     11  C          8.3370   -2.5490   -0.2370 C.2     1  UNL1        0.0000
     12  C          7.9600   -2.2250   -1.5220 C.2     1  UNL1        0.0000
@<TRIPOS>BOND
     1    10    12    2
     2    10     8    1
     3    12    11    1
     4     8     7    2
     5    11     9    2
     6     7     9    1
     7     7     6    1
     8     3     2    2
     9     6     1    1
    10     2     1    1
    11     2     4    1
    12     5     4    1
