@<TRIPOS>MOLECULE
/home/cewinharhar/GITHUB/reincatalyze/data/processed/docking_pred/2023-May-05-1615_maxeplen10_maxtrainstep1000_seadep16_gamma099_lrac9e-4_lrcr1e-3/544f4ddee7da09465e084ab518e20d4fbc72de61_ligand_2.pdbqt
 12 12 0 0 0
SMALL
GASTEIGER

@<TRIPOS>ATOM
      1  C          5.9210   -0.8910    1.7500 C.3     1  UNL1        0.1270
      2  C          5.3670    0.4520    2.0410 C.2     1  UNL1        0.3030
      3  O          4.1950    0.5940    2.4700 O.2     1  UNL1       -0.2520
      4  O          6.1300    1.5930    1.8450 O.3     1  UNL1       -0.4810
      5  H          6.3250    2.2070    2.6410 H       1  UNL1        0.2960
      6  C          7.3860   -0.7450    1.4710 C.3     1  UNL1        0.0470
      7  C          7.7140   -0.6500    0.0500 C.2     1  UNL1       -0.0470
      8  C          8.8530   -0.0000   -0.3670 C.2     1  UNL1        0.0040
      9  C          6.8700   -1.2220   -0.8740 C.2     1  UNL1        0.0040
     10  C          9.1030    0.0510   -1.7400 C.2     1  UNL1        0.0000
     11  C          7.1190   -1.1690   -2.2310 C.2     1  UNL1        0.0000
     12  C          8.2570   -0.5200   -2.6570 C.2     1  UNL1        0.0000
@<TRIPOS>BOND
     1    12    11    2
     2    12    10    1
     3    11     9    1
     4    10     8    2
     5     9     7    2
     6     8     7    1
     7     7     6    1
     8     6     1    1
     9     1     2    1
    10     4     2    1
    11     4     5    1
    12     2     3    2
