@<TRIPOS>MOLECULE
/home/cewinharhar/GITHUB/reincatalyze/data/processed/docking_pred/2023-May-05-1615_maxeplen10_maxtrainstep1000_seadep16_gamma099_lrac9e-4_lrcr1e-3/544f4ddee7da09465e084ab518e20d4fbc72de61_ligand_2.pdbqt
 12 12 0 0 0
SMALL
GASTEIGER

@<TRIPOS>ATOM
      1  C          5.0820   -0.1270    2.0430 C.3     1  UNL1        0.1270
      2  C          4.4070    1.1910    1.9800 C.2     1  UNL1        0.3030
      3  O          4.9320    2.1630    1.3830 O.2     1  UNL1       -0.2520
      4  O          3.1750    1.3880    2.5820 O.3     1  UNL1       -0.4810
      5  H          2.3270    1.3530    2.0100 H       1  UNL1        0.2960
      6  C          6.5350    0.0730    1.7340 C.3     1  UNL1        0.0470
      7  C          7.0110   -0.7060    0.5920 C.2     1  UNL1       -0.0470
      8  C          6.6300   -0.3810   -0.6890 C.2     1  UNL1        0.0040
      9  C          7.8520   -1.7720    0.8100 C.2     1  UNL1        0.0040
     10  C          7.1240   -1.1670   -1.7320 C.2     1  UNL1        0.0000
     11  C          8.3400   -2.5490   -0.2220 C.2     1  UNL1        0.0000
     12  C          7.9620   -2.2300   -1.5080 C.2     1  UNL1        0.0000
@<TRIPOS>BOND
     1    10    12    2
     2    10     8    1
     3    12    11    1
     4     8     7    2
     5    11     9    2
     6     7     9    1
     7     7     6    1
     8     3     2    2
     9     6     1    1
    10     2     1    1
    11     2     4    1
    12     5     4    1
