@<TRIPOS>MOLECULE
/home/cewinharhar/GITHUB/reincatalyze/data/processed/docking_pred/2023-May-05-1615_maxeplen10_maxtrainstep1000_seadep16_gamma099_lrac9e-4_lrcr1e-3/54a2e3ceee1b2a6ac8591f20fd198e2f201bb612_ligand_2.pdbqt
 12 12 0 0 0
SMALL
GASTEIGER

@<TRIPOS>ATOM
      1  C          8.3130   -0.5570   -2.2080 C.3     1  UNL1        0.1270
      2  C          8.3360   -1.8520   -2.9300 C.2     1  UNL1        0.3030
      3  O          7.2730   -2.4180   -3.2840 O.2     1  UNL1       -0.2520
      4  O          9.5360   -2.4740   -3.2350 O.3     1  UNL1       -0.4810
      5  H          9.7300   -2.7420   -4.2030 H       1  UNL1        0.2960
      6  C          6.9320   -0.3440   -1.6680 C.3     1  UNL1        0.0470
      7  C          6.8090    0.8230   -0.7960 C.2     1  UNL1       -0.0470
      8  C          7.9130    1.3540   -0.1710 C.2     1  UNL1        0.0040
      9  C          5.5700    1.3900   -0.6060 C.2     1  UNL1        0.0040
     10  C          7.7210    2.4700    0.6460 C.2     1  UNL1        0.0000
     11  C          5.3820    2.4940    0.2020 C.2     1  UNL1        0.0000
     12  C          6.4830    3.0320    0.8320 C.2     1  UNL1        0.0000
@<TRIPOS>BOND
     1     5     4    1
     2     3     2    2
     3     4     2    1
     4     2     1    1
     5     1     6    1
     6     6     7    1
     7     7     9    2
     8     7     8    1
     9     9    11    1
    10     8    10    2
    11    11    12    2
    12    10    12    1
