@<TRIPOS>MOLECULE
/home/cewinharhar/GITHUB/reincatalyze/data/processed/docking_pred/2023-May-05-1615_maxeplen10_maxtrainstep1000_seadep16_gamma099_lrac9e-4_lrcr1e-3/54c3cf531f582f2d935f1daccafc2f163e83168d_ligand_2.pdbqt
 12 12 0 0 0
SMALL
GASTEIGER

@<TRIPOS>ATOM
      1  C          8.4000   -0.6410   -2.0950 C.3     1  UNL1        0.1270
      2  C          8.3700   -1.8970   -2.8800 C.2     1  UNL1        0.3030
      3  O          7.2840   -2.4080   -3.2500 O.2     1  UNL1       -0.2520
      4  O          9.5450   -2.5440   -3.2290 O.3     1  UNL1       -0.4810
      5  H         10.2270   -2.0600   -3.8200 H       1  UNL1        0.2960
      6  C          7.0180   -0.0610   -2.0820 C.3     1  UNL1        0.0470
      7  C          6.4550    0.1050   -0.7430 C.2     1  UNL1       -0.0470
      8  C          5.7980    1.2620   -0.3940 C.2     1  UNL1        0.0040
      9  C          6.5880   -0.9150    0.1720 C.2     1  UNL1        0.0040
     10  C          5.2850    1.3500    0.9020 C.2     1  UNL1        0.0000
     11  C          6.0800   -0.8250    1.4530 C.2     1  UNL1        0.0000
     12  C          5.4210    0.3310    1.8100 C.2     1  UNL1        0.0000
@<TRIPOS>BOND
     1     5     4    1
     2     3     2    2
     3     4     2    1
     4     2     1    1
     5     1     6    1
     6     6     7    1
     7     7     8    2
     8     7     9    1
     9     8    10    1
    10     9    11    2
    11    10    12    2
    12    11    12    1
