@<TRIPOS>MOLECULE
/home/cewinharhar/GITHUB/reincatalyze/data/processed/docking_pred/2023-May-05-1615_maxeplen10_maxtrainstep1000_seadep16_gamma099_lrac9e-4_lrcr1e-3/551c5941f3bf749be32b1159c48b101be233bdbe_ligand_2.pdbqt
 12 12 0 0 0
SMALL
GASTEIGER

@<TRIPOS>ATOM
      1  C          8.4680   -0.6550   -2.0850 C.3     1  UNL1        0.1270
      2  C          8.4820   -1.9000   -2.8890 C.2     1  UNL1        0.3030
      3  O          9.5500   -2.5260   -3.1010 O.2     1  UNL1       -0.2520
      4  O          7.3120   -2.4090   -3.4300 O.3     1  UNL1       -0.4810
      5  H          6.6560   -2.9080   -2.8240 H       1  UNL1        0.2960
      6  C          7.0720   -0.1100   -2.0850 C.3     1  UNL1        0.0470
      7  C          6.5000    0.0580   -0.7500 C.2     1  UNL1       -0.0470
      8  C          5.8530    1.2220   -0.4040 C.2     1  UNL1        0.0040
      9  C          6.6110   -0.9660    0.1620 C.2     1  UNL1        0.0040
     10  C          5.3300    1.3120    0.8880 C.2     1  UNL1        0.0000
     11  C          6.0940   -0.8740    1.4390 C.2     1  UNL1        0.0000
     12  C          5.4450    0.2880    1.7940 C.2     1  UNL1        0.0000
@<TRIPOS>BOND
     1     4     2    1
     2     4     5    1
     3     3     2    2
     4     2     1    1
     5     1     6    1
     6     6     7    1
     7     7     8    2
     8     7     9    1
     9     8    10    1
    10     9    11    2
    11    10    12    2
    12    11    12    1
