@<TRIPOS>MOLECULE
/home/cewinharhar/GITHUB/reincatalyze/data/processed/docking_pred/2023-May-05-1615_maxeplen10_maxtrainstep1000_seadep16_gamma099_lrac9e-4_lrcr1e-3/551e6d8a024554ec32308953f7464105b503c37a_ligand_2.pdbqt
 12 12 0 0 0
SMALL
GASTEIGER

@<TRIPOS>ATOM
      1  C          8.4000   -0.6500   -2.0830 C.3     1  UNL1        0.1270
      2  C          8.3700   -1.9020   -2.8760 C.2     1  UNL1        0.3030
      3  O          7.2850   -2.4070   -3.2540 O.2     1  UNL1       -0.2520
      4  O          9.5450   -2.5500   -3.2240 O.3     1  UNL1       -0.4810
      5  H          9.9690   -3.2060   -2.5630 H       1  UNL1        0.2960
      6  C          7.0200   -0.0660   -2.0740 C.3     1  UNL1        0.0470
      7  C          6.4550    0.1040   -0.7360 C.2     1  UNL1       -0.0470
      8  C          5.7990    1.2620   -0.3920 C.2     1  UNL1        0.0040
      9  C          6.5850   -0.9130    0.1810 C.2     1  UNL1        0.0040
     10  C          5.2830    1.3550    0.9030 C.2     1  UNL1        0.0000
     11  C          6.0750   -0.8200    1.4610 C.2     1  UNL1        0.0000
     12  C          5.4170    0.3380    1.8140 C.2     1  UNL1        0.0000
@<TRIPOS>BOND
     1     3     2    2
     2     4     2    1
     3     4     5    1
     4     2     1    1
     5     1     6    1
     6     6     7    1
     7     7     8    2
     8     7     9    1
     9     8    10    1
    10     9    11    2
    11    10    12    2
    12    11    12    1
