@<TRIPOS>MOLECULE
/home/cewinharhar/GITHUB/reincatalyze/data/processed/docking_pred/2023-May-05-1615_maxeplen10_maxtrainstep1000_seadep16_gamma099_lrac9e-4_lrcr1e-3/57f45ec83c8c38489066d898ddae0638f0802b8b_ligand_2.pdbqt
 12 12 0 0 0
SMALL
GASTEIGER

@<TRIPOS>ATOM
      1  C          8.4020   -0.6520   -2.0800 C.3     1  UNL1        0.1270
      2  C          8.3720   -1.9010   -2.8780 C.2     1  UNL1        0.3030
      3  O          7.2860   -2.4100   -3.2500 O.2     1  UNL1       -0.2520
      4  O          9.5460   -2.5430   -3.2370 O.3     1  UNL1       -0.4810
      5  H          9.5040   -3.3510   -3.8640 H       1  UNL1        0.2960
      6  C          7.0230   -0.0650   -2.0730 C.3     1  UNL1        0.0470
      7  C          6.4560    0.1030   -0.7360 C.2     1  UNL1       -0.0470
      8  C          5.8020    1.2620   -0.3900 C.2     1  UNL1        0.0040
      9  C          6.5800   -0.9170    0.1790 C.2     1  UNL1        0.0040
     10  C          5.2840    1.3530    0.9040 C.2     1  UNL1        0.0000
     11  C          6.0680   -0.8250    1.4580 C.2     1  UNL1        0.0000
     12  C          5.4120    0.3340    1.8130 C.2     1  UNL1        0.0000
@<TRIPOS>BOND
     1     5     4    1
     2     3     2    2
     3     4     2    1
     4     2     1    1
     5     1     6    1
     6     6     7    1
     7     7     8    2
     8     7     9    1
     9     8    10    1
    10     9    11    2
    11    10    12    2
    12    11    12    1
