@<TRIPOS>MOLECULE
/home/cewinharhar/GITHUB/reincatalyze/data/processed/docking_pred/2023-May-05-1615_maxeplen10_maxtrainstep1000_seadep16_gamma099_lrac9e-4_lrcr1e-3/57f45ec83c8c38489066d898ddae0638f0802b8b_ligand_2.pdbqt
 12 12 0 0 0
SMALL
GASTEIGER

@<TRIPOS>ATOM
      1  C          8.2010   -6.1120   11.4250 C.3     1  UNL1        0.1270
      2  C          8.0940   -4.6350   11.3480 C.2     1  UNL1        0.3030
      3  O          8.4500   -3.9060   12.3060 O.2     1  UNL1       -0.2520
      4  O          7.5960   -4.0180   10.2120 O.3     1  UNL1       -0.4810
      5  H          8.0190   -4.2240    9.3030 H       1  UNL1        0.2960
      6  C          8.8550   -6.6020   10.1690 C.3     1  UNL1        0.0470
      7  C         10.1570   -7.2310   10.3840 C.2     1  UNL1       -0.0470
      8  C         11.2970   -6.4680   10.4900 C.2     1  UNL1        0.0040
      9  C         10.2330   -8.6010   10.4810 C.2     1  UNL1        0.0040
     10  C         12.5070   -7.1360   10.6950 C.2     1  UNL1        0.0000
     11  C         11.4300   -9.2590   10.6840 C.2     1  UNL1        0.0000
     12  C         12.5770   -8.5030   10.7910 C.2     1  UNL1        0.0000
@<TRIPOS>BOND
     1     5     4    1
     2     6     7    1
     3     6     1    1
     4     4     2    1
     5     7     9    2
     6     7     8    1
     7     9    11    1
     8     8    10    2
     9    11    12    2
    10    10    12    1
    11     2     1    1
    12     2     3    2
