@<TRIPOS>MOLECULE
/home/cewinharhar/GITHUB/reincatalyze/data/processed/docking_pred/2023-May-05-1615_maxeplen10_maxtrainstep1000_seadep16_gamma099_lrac9e-4_lrcr1e-3/57f45ec83c8c38489066d898ddae0638f0802b8b_ligand_2.pdbqt
 12 12 0 0 0
SMALL
GASTEIGER

@<TRIPOS>ATOM
      1  C          7.9660   -6.2920   11.0120 C.3     1  UNL1        0.1270
      2  C          8.0900   -4.8180   11.0960 C.2     1  UNL1        0.3030
      3  O          7.6250   -4.0730   10.1990 O.2     1  UNL1       -0.2520
      4  O          8.7250   -4.2200   12.1730 O.3     1  UNL1       -0.4810
      5  H          8.3640   -4.3760   13.1180 H       1  UNL1        0.2960
      6  C          8.7770   -6.8970   12.1170 C.3     1  UNL1        0.0470
      7  C          9.4850   -8.1180   11.7350 C.2     1  UNL1       -0.0470
      8  C         10.3750   -8.1170   10.6870 C.2     1  UNL1        0.0040
      9  C          9.2520   -9.2770   12.4400 C.2     1  UNL1        0.0040
     10  C         11.0160   -9.3190   10.3790 C.2     1  UNL1        0.0000
     11  C          9.8860  -10.4650   12.1340 C.2     1  UNL1        0.0000
     12  C         10.7790  -10.4720   11.0840 C.2     1  UNL1        0.0000
@<TRIPOS>BOND
     1     3     2    2
     2    10     8    1
     3    10    12    2
     4     8     7    2
     5     1     2    1
     6     1     6    1
     7    12    11    1
     8     2     4    1
     9     7     6    1
    10     7     9    1
    11    11     9    2
    12     4     5    1
