@<TRIPOS>MOLECULE
/home/cewinharhar/GITHUB/reincatalyze/data/processed/docking_pred/2023-May-05-1615_maxeplen10_maxtrainstep1000_seadep16_gamma099_lrac9e-4_lrcr1e-3/59d8efee26bc15572bc8cf3b0279eede3143e347_ligand_2.pdbqt
 12 12 0 0 0
SMALL
GASTEIGER

@<TRIPOS>ATOM
      1  C          8.4020   -0.6640   -2.0660 C.3     1  UNL1        0.1270
      2  C          8.3730   -1.9050   -2.8760 C.2     1  UNL1        0.3030
      3  O          7.2860   -2.4120   -3.2500 O.2     1  UNL1       -0.2520
      4  O          9.5470   -2.5410   -3.2440 O.3     1  UNL1       -0.4810
      5  H          9.8840   -2.4540   -4.2070 H       1  UNL1        0.2960
      6  C          7.0270   -0.0700   -2.0650 C.3     1  UNL1        0.0470
      7  C          6.4540    0.0990   -0.7310 C.2     1  UNL1       -0.0470
      8  C          5.8020    1.2610   -0.3880 C.2     1  UNL1        0.0040
      9  C          6.5700   -0.9210    0.1840 C.2     1  UNL1        0.0040
     10  C          5.2770    1.3530    0.9040 C.2     1  UNL1        0.0000
     11  C          6.0520   -0.8280    1.4610 C.2     1  UNL1        0.0000
     12  C          5.3980    0.3320    1.8130 C.2     1  UNL1        0.0000
@<TRIPOS>BOND
     1     5     4    1
     2     3     2    2
     3     4     2    1
     4     2     1    1
     5     1     6    1
     6     6     7    1
     7     7     8    2
     8     7     9    1
     9     8    10    1
    10     9    11    2
    11    10    12    2
    12    11    12    1
