@<TRIPOS>MOLECULE
/home/cewinharhar/GITHUB/reincatalyze/data/processed/docking_pred/2023-May-05-1615_maxeplen10_maxtrainstep1000_seadep16_gamma099_lrac9e-4_lrcr1e-3/5ba5439e64352188cd964ddb86dd28d806e95272_ligand_2.pdbqt
 12 12 0 0 0
SMALL
GASTEIGER

@<TRIPOS>ATOM
      1  C          6.0840    1.4350    1.2190 C.3     1  UNL1        0.1270
      2  C          5.2250    0.5280    2.0170 C.2     1  UNL1        0.3030
      3  O          5.6190   -0.6180    2.3480 O.2     1  UNL1       -0.2520
      4  O          3.9590    0.9220    2.4210 O.3     1  UNL1       -0.4810
      5  H          3.8480    1.8030    2.9310 H       1  UNL1        0.2960
      6  C          5.7930    1.2020   -0.2320 C.3     1  UNL1        0.0470
      7  C          6.8870    0.5670   -0.9640 C.2     1  UNL1       -0.0470
      8  C          8.1730    1.0460   -0.8620 C.2     1  UNL1        0.0040
      9  C          6.6190   -0.5220   -1.7600 C.2     1  UNL1        0.0040
     10  C          9.1690    0.3900   -1.5880 C.2     1  UNL1        0.0000
     11  C          7.6050   -1.1700   -2.4770 C.2     1  UNL1        0.0000
     12  C          8.8960   -0.6960   -2.3810 C.2     1  UNL1        0.0000
@<TRIPOS>BOND
     1    11    12    2
     2    11     9    1
     3    12    10    1
     4     9     7    2
     5    10     8    2
     6     7     8    1
     7     7     6    1
     8     6     1    1
     9     1     2    1
    10     2     3    2
    11     2     4    1
    12     4     5    1
