@<TRIPOS>MOLECULE
/home/cewinharhar/GITHUB/reincatalyze/data/processed/docking_pred/2023-May-05-1615_maxeplen10_maxtrainstep1000_seadep16_gamma099_lrac9e-4_lrcr1e-3/5bd4159c0713ad18fb2d2a846002564f6b7df27c_ligand_2.pdbqt
 12 12 0 0 0
SMALL
GASTEIGER

@<TRIPOS>ATOM
      1  C          7.2660   -1.2610   -2.1740 C.3     1  UNL1        0.1270
      2  C          8.7070   -1.3240   -2.5150 C.2     1  UNL1        0.3030
      3  O          9.5140   -0.4580   -2.0940 O.2     1  UNL1       -0.2520
      4  O          9.2040   -2.3430   -3.3120 O.3     1  UNL1       -0.4810
      5  H          9.5450   -2.1230   -4.2520 H       1  UNL1        0.2960
      6  C          7.1310   -1.3510   -0.6840 C.3     1  UNL1        0.0470
      7  C          6.3770   -0.2490   -0.0880 C.2     1  UNL1       -0.0470
      8  C          5.9290   -0.3250    1.2100 C.2     1  UNL1        0.0040
      9  C          6.1180    0.8720   -0.8420 C.2     1  UNL1        0.0040
     10  C          5.2160    0.7650    1.7140 C.2     1  UNL1        0.0000
     11  C          5.4120    1.9480   -0.3420 C.2     1  UNL1        0.0000
     12  C          4.9600    1.8810    0.9580 C.2     1  UNL1        0.0000
@<TRIPOS>BOND
     1     5     4    1
     2     4     2    1
     3     2     1    1
     4     2     3    2
     5     1     6    1
     6     9    11    1
     7     9     7    2
     8     6     7    1
     9    11    12    2
    10     7     8    1
    11    12    10    1
    12     8    10    2
