MODEL 1
REMARK VINA RESULT:      -7.3      0.000      0.000
REMARK SMILES O=C(O)CCc1ccccc1
REMARK SMILES IDX 4 1 2 2 1 3 3 4 5 6 6 7 7 8 11 9 8 10 10 11 9 12
REMARK H PARENT 3 5
REMARK Flexibility Score: inf
ROOT
ATOM      1  C   UNL     1       8.435  -0.636  -2.140  1.00  0.00     0.127 C 
ENDROOT
BRANCH   1   2
ATOM      2  C   UNL     1       8.473  -1.900  -2.912  1.00  0.00     0.303 C 
ATOM      3  O   UNL     1       9.551  -2.517  -3.098  1.00  0.00    -0.252 OA
BRANCH   2   4
ATOM      4  O   UNL     1       7.315  -2.437  -3.452  1.00  0.00    -0.481 OA
ATOM      5  H   UNL     1       7.189  -2.436  -4.467  1.00  0.00     0.296 HD
ENDBRANCH   2   4
ENDBRANCH   1   2
BRANCH   1   6
ATOM      6  C   UNL     1       7.022  -0.137  -2.122  1.00  0.00     0.047 C 
BRANCH   6   7
ATOM      7  C   UNL     1       6.474   0.049  -0.780  1.00  0.00    -0.047 A 
ATOM      8  C   UNL     1       5.839   1.220  -0.436  1.00  0.00     0.004 A 
ATOM      9  C   UNL     1       6.598  -0.964   0.143  1.00  0.00     0.004 A 
ATOM     10  C   UNL     1       5.338   1.328   0.864  1.00  0.00     0.000 A 
ATOM     11  C   UNL     1       6.103  -0.855   1.427  1.00  0.00     0.000 A 
ATOM     12  C   UNL     1       5.466   0.315   1.780  1.00  0.00     0.000 A 
ENDBRANCH   6   7
ENDBRANCH   1   6
TORSDOF 4
ENDMDL
