@<TRIPOS>MOLECULE
/home/cewinharhar/GITHUB/reincatalyze/data/processed/docking_pred/2023-May-05-1615_maxeplen10_maxtrainstep1000_seadep16_gamma099_lrac9e-4_lrcr1e-3/5e677739909452415bd62a3bb65a8cc9d063ea2f_ligand_2.pdbqt
 12 12 0 0 0
SMALL
GASTEIGER

@<TRIPOS>ATOM
      1  C          8.4690   -0.6690   -2.1040 C.3     1  UNL1        0.1270
      2  C          8.4610   -1.9300   -2.8820 C.2     1  UNL1        0.3030
      3  O          9.5070   -2.6100   -3.0290 O.2     1  UNL1       -0.2520
      4  O          7.2960   -2.3930   -3.4720 O.3     1  UNL1       -0.4810
      5  H          6.6950   -1.7370   -3.9770 H       1  UNL1        0.2960
      6  C          7.0870   -0.0900   -2.1320 C.3     1  UNL1        0.0470
      7  C          6.4920    0.0940   -0.8090 C.2     1  UNL1       -0.0470
      8  C          5.7900    1.2370   -0.5060 C.2     1  UNL1        0.0040
      9  C          6.6400   -0.8940    0.1370 C.2     1  UNL1        0.0040
     10  C          5.2490    1.3450    0.7770 C.2     1  UNL1        0.0000
     11  C          6.1050   -0.7860    1.4050 C.2     1  UNL1        0.0000
     12  C          5.4000    0.3570    1.7160 C.2     1  UNL1        0.0000
@<TRIPOS>BOND
     1     5     4    1
     2     4     2    1
     3     3     2    2
     4     2     1    1
     5     6     1    1
     6     6     7    1
     7     7     8    2
     8     7     9    1
     9     8    10    1
    10     9    11    2
    11    10    12    2
    12    11    12    1
