@<TRIPOS>MOLECULE
/home/cewinharhar/GITHUB/reincatalyze/data/processed/docking_pred/2023-May-05-1615_maxeplen10_maxtrainstep1000_seadep16_gamma099_lrac9e-4_lrcr1e-3/5e677739909452415bd62a3bb65a8cc9d063ea2f_ligand_2.pdbqt
 12 12 0 0 0
SMALL
GASTEIGER

@<TRIPOS>ATOM
      1  C          5.0210   -0.1130    1.9990 C.3     1  UNL1        0.1270
      2  C          4.3500    1.2080    1.9520 C.2     1  UNL1        0.3030
      3  O          4.8590    2.1740    1.3320 O.2     1  UNL1       -0.2520
      4  O          3.1400    1.4120    2.5940 O.3     1  UNL1       -0.4810
      5  H          2.6490    2.3020    2.4670 H       1  UNL1        0.2960
      6  C          6.4780    0.0880    1.7130 C.3     1  UNL1        0.0470
      7  C          6.9760   -0.6950    0.5830 C.2     1  UNL1       -0.0470
      8  C          6.6380   -0.3610   -0.7080 C.2     1  UNL1        0.0040
      9  C          7.7920   -1.7760    0.8240 C.2     1  UNL1        0.0040
     10  C          7.1500   -1.1530   -1.7370 C.2     1  UNL1        0.0000
     11  C          8.2980   -2.5580   -0.1950 C.2     1  UNL1        0.0000
     12  C          7.9640   -2.2310   -1.4920 C.2     1  UNL1        0.0000
@<TRIPOS>BOND
     1    10    12    2
     2    10     8    1
     3    12    11    1
     4     8     7    2
     5    11     9    2
     6     7     9    1
     7     7     6    1
     8     3     2    2
     9     6     1    1
    10     2     1    1
    11     2     4    1
    12     5     4    1
