@<TRIPOS>MOLECULE
/home/cewinharhar/GITHUB/reincatalyze/data/processed/docking_pred/2023-May-05-1615_maxeplen10_maxtrainstep1000_seadep16_gamma099_lrac9e-4_lrcr1e-3/5e677739909452415bd62a3bb65a8cc9d063ea2f_ligand_2.pdbqt
 12 12 0 0 0
SMALL
GASTEIGER

@<TRIPOS>ATOM
      1  C          8.3190   -0.5980   -2.0960 C.3     1  UNL1        0.1270
      2  C          8.3290   -1.8510   -2.8870 C.2     1  UNL1        0.3030
      3  O          7.2590   -2.3920   -3.2620 O.2     1  UNL1       -0.2520
      4  O          9.5230   -2.4620   -3.2350 O.3     1  UNL1       -0.4810
      5  H          9.6420   -3.4640   -3.0620 H       1  UNL1        0.2960
      6  C          6.9540   -0.4260   -1.5020 C.3     1  UNL1        0.0470
      7  C          6.7950    0.8000   -0.7220 C.2     1  UNL1       -0.0470
      8  C          7.8710    1.3710   -0.0830 C.2     1  UNL1        0.0040
      9  C          5.5520    1.3820   -0.6340 C.2     1  UNL1        0.0040
     10  C          7.6450    2.5430    0.6430 C.2     1  UNL1        0.0000
     11  C          5.3310    2.5400    0.0850 C.2     1  UNL1        0.0000
     12  C          6.4030    3.1190    0.7290 C.2     1  UNL1        0.0000
@<TRIPOS>BOND
     1     3     2    2
     2     4     5    1
     3     4     2    1
     4     2     1    1
     5     1     6    1
     6     6     7    1
     7     7     9    2
     8     7     8    1
     9     9    11    1
    10     8    10    2
    11    11    12    2
    12    10    12    1
