@<TRIPOS>MOLECULE
/home/cewinharhar/GITHUB/reincatalyze/data/processed/docking_pred/2023-May-05-1615_maxeplen10_maxtrainstep1000_seadep16_gamma099_lrac9e-4_lrcr1e-3/5f00cdda1ab61f28c1ea6d7129614616e9231d70_ligand_2.pdbqt
 12 12 0 0 0
SMALL
GASTEIGER

@<TRIPOS>ATOM
      1  C          8.2820   -0.5460   -2.2090 C.3     1  UNL1        0.1270
      2  C          8.3140   -1.8380   -2.9340 C.2     1  UNL1        0.3030
      3  O          7.2540   -2.4060   -3.2980 O.2     1  UNL1       -0.2520
      4  O          9.5180   -2.4560   -3.2310 O.3     1  UNL1       -0.4810
      5  H         10.3410   -1.8800   -3.4300 H       1  UNL1        0.2960
      6  C          6.9560   -0.4240   -1.5230 C.3     1  UNL1        0.0470
      7  C          6.8040    0.7990   -0.7360 C.2     1  UNL1       -0.0470
      8  C          7.8860    1.3700   -0.1080 C.2     1  UNL1        0.0040
      9  C          5.5610    1.3790   -0.6300 C.2     1  UNL1        0.0040
     10  C          7.6680    2.5380    0.6260 C.2     1  UNL1        0.0000
     11  C          5.3470    2.5340    0.0960 C.2     1  UNL1        0.0000
     12  C          6.4260    3.1120    0.7290 C.2     1  UNL1        0.0000
@<TRIPOS>BOND
     1     5     4    1
     2     3     2    2
     3     4     2    1
     4     2     1    1
     5     1     6    1
     6     6     7    1
     7     7     9    2
     8     7     8    1
     9     9    11    1
    10     8    10    2
    11    11    12    2
    12    10    12    1
