MODEL 1
REMARK VINA RESULT:      -7.3      0.000      0.000
REMARK SMILES O=C(O)CCc1ccccc1
REMARK SMILES IDX 4 1 2 2 1 3 3 4 5 6 6 7 7 8 11 9 8 10 10 11 9 12
REMARK H PARENT 3 5
REMARK Flexibility Score: inf
ROOT
ATOM      1  C   UNL     1       8.405  -0.667  -2.063  1.00  0.00     0.127 C 
ENDROOT
BRANCH   1   2
ATOM      2  C   UNL     1       8.374  -1.906  -2.875  1.00  0.00     0.303 C 
ATOM      3  O   UNL     1       7.288  -2.412  -3.251  1.00  0.00    -0.252 OA
BRANCH   2   4
ATOM      4  O   UNL     1       9.549  -2.543  -3.242  1.00  0.00    -0.481 OA
ATOM      5  H   UNL     1      10.116  -2.151  -3.999  1.00  0.00     0.296 HD
ENDBRANCH   2   4
ENDBRANCH   1   2
BRANCH   1   6
ATOM      6  C   UNL     1       7.030  -0.071  -2.062  1.00  0.00     0.047 C 
BRANCH   6   7
ATOM      7  C   UNL     1       6.456   0.098  -0.728  1.00  0.00    -0.047 A 
ATOM      8  C   UNL     1       5.803   1.259  -0.386  1.00  0.00     0.004 A 
ATOM      9  C   UNL     1       6.573  -0.922   0.187  1.00  0.00     0.004 A 
ATOM     10  C   UNL     1       5.278   1.351   0.906  1.00  0.00     0.000 A 
ATOM     11  C   UNL     1       6.055  -0.830   1.463  1.00  0.00     0.000 A 
ATOM     12  C   UNL     1       5.399   0.330   1.815  1.00  0.00     0.000 A 
ENDBRANCH   6   7
ENDBRANCH   1   6
TORSDOF 4
ENDMDL
