@<TRIPOS>MOLECULE
/home/cewinharhar/GITHUB/reincatalyze/data/processed/docking_pred/2023-May-05-1615_maxeplen10_maxtrainstep1000_seadep16_gamma099_lrac9e-4_lrcr1e-3/6047b5c71b47d2a809e14c46b0582b8ae3076bc9_ligand_2.pdbqt
 12 12 0 0 0
SMALL
GASTEIGER

@<TRIPOS>ATOM
      1  C          8.3250   -0.6020   -2.1200 C.3     1  UNL1        0.1270
      2  C          8.3360   -1.8630   -2.8990 C.2     1  UNL1        0.3030
      3  O          7.2670   -2.4060   -3.2730 O.2     1  UNL1       -0.2520
      4  O          9.5300   -2.4790   -3.2370 O.3     1  UNL1       -0.4810
      5  H          9.7020   -3.4400   -2.9310 H       1  UNL1        0.2960
      6  C          6.9580   -0.4220   -1.5340 C.3     1  UNL1        0.0470
      7  C          6.8080    0.7950   -0.7380 C.2     1  UNL1       -0.0470
      8  C          7.8920    1.3610   -0.1080 C.2     1  UNL1        0.0040
      9  C          5.5650    1.3740   -0.6250 C.2     1  UNL1        0.0040
     10  C          7.6750    2.5240    0.6350 C.2     1  UNL1        0.0000
     11  C          5.3520    2.5230    0.1110 C.2     1  UNL1        0.0000
     12  C          6.4330    3.0960    0.7460 C.2     1  UNL1        0.0000
@<TRIPOS>BOND
     1     3     2    2
     2     4     5    1
     3     4     2    1
     4     2     1    1
     5     1     6    1
     6     6     7    1
     7     7     9    2
     8     7     8    1
     9     9    11    1
    10     8    10    2
    11    11    12    2
    12    10    12    1
