MODEL 1
REMARK VINA RESULT:      -7.1      0.000      0.000
REMARK SMILES O=C(O)CCc1ccccc1
REMARK SMILES IDX 4 1 2 2 1 3 3 4 5 6 6 7 7 8 11 9 8 10 10 11 9 12
REMARK H PARENT 3 5
REMARK Flexibility Score: inf
ROOT
ATOM      1  C   UNL     1       8.448  -0.692  -2.054  1.00  0.00     0.127 C 
ENDROOT
BRANCH   1   2
ATOM      2  C   UNL     1       8.462  -1.930  -2.868  1.00  0.00     0.303 C 
ATOM      3  O   UNL     1       9.526  -2.566  -3.066  1.00  0.00    -0.252 OA
BRANCH   2   4
ATOM      4  O   UNL     1       7.296  -2.420  -3.434  1.00  0.00    -0.481 OA
ATOM      5  H   UNL     1       6.688  -3.030  -2.880  1.00  0.00     0.296 HD
ENDBRANCH   2   4
ENDBRANCH   1   2
BRANCH   1   6
ATOM      6  C   UNL     1       7.058  -0.131  -2.073  1.00  0.00     0.047 C 
BRANCH   6   7
ATOM      7  C   UNL     1       6.472   0.051  -0.746  1.00  0.00    -0.047 A 
ATOM      8  C   UNL     1       5.810   1.213  -0.423  1.00  0.00     0.004 A 
ATOM      9  C   UNL     1       6.586  -0.958   0.182  1.00  0.00     0.004 A 
ATOM     10  C   UNL     1       5.274   1.317   0.862  1.00  0.00     0.000 A 
ATOM     11  C   UNL     1       6.055  -0.853   1.452  1.00  0.00     0.000 A 
ATOM     12  C   UNL     1       5.392   0.308   1.785  1.00  0.00     0.000 A 
ENDBRANCH   6   7
ENDBRANCH   1   6
TORSDOF 4
ENDMDL
MODEL 2
REMARK VINA RESULT:      -6.6      1.406      2.211
REMARK SMILES O=C(O)CCc1ccccc1
REMARK SMILES IDX 4 1 2 2 1 3 3 4 5 6 6 7 7 8 11 9 8 10 10 11 9 12
REMARK H PARENT 3 5
REMARK Flexibility Score: inf
ROOT
ATOM      1  C   UNL     1       8.325  -0.602  -2.120  1.00  0.00     0.127 C 
ENDROOT
BRANCH   1   2
ATOM      2  C   UNL     1       8.336  -1.863  -2.899  1.00  0.00     0.303 C 
ATOM      3  O   UNL     1       7.267  -2.406  -3.273  1.00  0.00    -0.252 OA
BRANCH   2   4
ATOM      4  O   UNL     1       9.530  -2.479  -3.237  1.00  0.00    -0.481 OA
ATOM      5  H   UNL     1       9.702  -3.440  -2.931  1.00  0.00     0.296 HD
ENDBRANCH   2   4
ENDBRANCH   1   2
BRANCH   1   6
ATOM      6  C   UNL     1       6.958  -0.422  -1.534  1.00  0.00     0.047 C 
BRANCH   6   7
ATOM      7  C   UNL     1       6.808   0.795  -0.738  1.00  0.00    -0.047 A 
ATOM      8  C   UNL     1       7.892   1.361  -0.108  1.00  0.00     0.004 A 
ATOM      9  C   UNL     1       5.565   1.374  -0.625  1.00  0.00     0.004 A 
ATOM     10  C   UNL     1       7.675   2.524   0.635  1.00  0.00     0.000 A 
ATOM     11  C   UNL     1       5.352   2.523   0.111  1.00  0.00     0.000 A 
ATOM     12  C   UNL     1       6.433   3.096   0.746  1.00  0.00     0.000 A 
ENDBRANCH   6   7
ENDBRANCH   1   6
TORSDOF 4
ENDMDL
