@<TRIPOS>MOLECULE
/home/cewinharhar/GITHUB/reincatalyze/data/processed/docking_pred/2023-May-05-1615_maxeplen10_maxtrainstep1000_seadep16_gamma099_lrac9e-4_lrcr1e-3/6047b5c71b47d2a809e14c46b0582b8ae3076bc9_ligand_2.pdbqt
 12 12 0 0 0
SMALL
GASTEIGER

@<TRIPOS>ATOM
      1  C          8.4480   -0.6920   -2.0540 C.3     1  UNL1        0.1270
      2  C          8.4620   -1.9300   -2.8680 C.2     1  UNL1        0.3030
      3  O          9.5260   -2.5660   -3.0660 O.2     1  UNL1       -0.2520
      4  O          7.2960   -2.4200   -3.4340 O.3     1  UNL1       -0.4810
      5  H          6.6880   -3.0300   -2.8800 H       1  UNL1        0.2960
      6  C          7.0580   -0.1310   -2.0730 C.3     1  UNL1        0.0470
      7  C          6.4720    0.0510   -0.7460 C.2     1  UNL1       -0.0470
      8  C          5.8100    1.2130   -0.4230 C.2     1  UNL1        0.0040
      9  C          6.5860   -0.9580    0.1820 C.2     1  UNL1        0.0040
     10  C          5.2740    1.3170    0.8620 C.2     1  UNL1        0.0000
     11  C          6.0550   -0.8530    1.4520 C.2     1  UNL1        0.0000
     12  C          5.3920    0.3080    1.7850 C.2     1  UNL1        0.0000
@<TRIPOS>BOND
     1     4     5    1
     2     4     2    1
     3     3     2    2
     4     2     1    1
     5     6     1    1
     6     6     7    1
     7     7     8    2
     8     7     9    1
     9     8    10    1
    10     9    11    2
    11    10    12    2
    12    11    12    1
