@<TRIPOS>MOLECULE
/home/cewinharhar/GITHUB/reincatalyze/data/processed/docking_pred/2023-May-05-1615_maxeplen10_maxtrainstep1000_seadep16_gamma099_lrac9e-4_lrcr1e-3/6047b5c71b47d2a809e14c46b0582b8ae3076bc9_ligand_2.pdbqt
 12 12 0 0 0
SMALL
GASTEIGER

@<TRIPOS>ATOM
      1  C          6.0960    1.4340    1.2440 C.3     1  UNL1        0.1270
      2  C          5.2150    0.5270    2.0180 C.2     1  UNL1        0.3030
      3  O          5.5900   -0.6280    2.3370 O.2     1  UNL1       -0.2520
      4  O          3.9500    0.9310    2.4110 O.3     1  UNL1       -0.4810
      5  H          3.8520    1.5770    3.2000 H       1  UNL1        0.2960
      6  C          5.8090    1.2370   -0.2130 C.3     1  UNL1        0.0470
      7  C          6.8920    0.5880   -0.9500 C.2     1  UNL1       -0.0470
      8  C          8.1840    1.0520   -0.8560 C.2     1  UNL1        0.0040
      9  C          6.6070   -0.5000   -1.7420 C.2     1  UNL1        0.0040
     10  C          9.1680    0.3830   -1.5870 C.2     1  UNL1        0.0000
     11  C          7.5810   -1.1610   -2.4630 C.2     1  UNL1        0.0000
     12  C          8.8780   -0.7020   -2.3760 C.2     1  UNL1        0.0000
@<TRIPOS>BOND
     1    11    12    2
     2    11     9    1
     3    12    10    1
     4     9     7    2
     5    10     8    2
     6     7     8    1
     7     7     6    1
     8     6     1    1
     9     1     2    1
    10     2     3    2
    11     2     4    1
    12     4     5    1
