@<TRIPOS>MOLECULE
/home/cewinharhar/GITHUB/reincatalyze/data/processed/docking_pred/2023-May-05-1615_maxeplen10_maxtrainstep1000_seadep16_gamma099_lrac9e-4_lrcr1e-3/6070aa1b8336213875ea865ca7f6d729a9af33a9_ligand_2.pdbqt
 12 12 0 0 0
SMALL
GASTEIGER

@<TRIPOS>ATOM
      1  C          7.2550   -1.2550   -2.1670 C.3     1  UNL1        0.1270
      2  C          8.6930   -1.3080   -2.5230 C.2     1  UNL1        0.3030
      3  O          9.5010   -0.4460   -2.0970 O.2     1  UNL1       -0.2520
      4  O          9.1860   -2.3140   -3.3380 O.3     1  UNL1       -0.4810
      5  H          9.9050   -2.0890   -4.0310 H       1  UNL1        0.2960
      6  C          7.1360   -1.3340   -0.6750 C.3     1  UNL1        0.0470
      7  C          6.3800   -0.2340   -0.0800 C.2     1  UNL1       -0.0470
      8  C          5.9400   -0.3050    1.2210 C.2     1  UNL1        0.0040
      9  C          6.1110    0.8830   -0.8380 C.2     1  UNL1        0.0040
     10  C          5.2240    0.7830    1.7240 C.2     1  UNL1        0.0000
     11  C          5.4020    1.9580   -0.3390 C.2     1  UNL1        0.0000
     12  C          4.9580    1.8940    0.9640 C.2     1  UNL1        0.0000
@<TRIPOS>BOND
     1     5     4    1
     2     4     2    1
     3     2     1    1
     4     2     3    2
     5     1     6    1
     6     9    11    1
     7     9     7    2
     8     6     7    1
     9    11    12    2
    10     7     8    1
    11    12    10    1
    12     8    10    2
