MODEL 1
REMARK VINA RESULT:      -7.3      0.000      0.000
REMARK SMILES O=C(O)CCc1ccccc1
REMARK SMILES IDX 4 1 2 2 1 3 3 4 5 6 6 7 7 8 11 9 8 10 10 11 9 12
REMARK H PARENT 3 5
REMARK Flexibility Score: inf
ROOT
ATOM      1  C   UNL     1       8.401  -0.644  -2.091  1.00  0.00     0.127 C 
ENDROOT
BRANCH   1   2
ATOM      2  C   UNL     1       8.371  -1.898  -2.880  1.00  0.00     0.303 C 
ATOM      3  O   UNL     1       7.285  -2.409  -3.250  1.00  0.00    -0.252 OA
BRANCH   2   4
ATOM      4  O   UNL     1       9.546  -2.544  -3.231  1.00  0.00    -0.481 OA
ATOM      5  H   UNL     1       9.509  -3.522  -3.531  1.00  0.00     0.296 HD
ENDBRANCH   2   4
ENDBRANCH   1   2
BRANCH   1   6
ATOM      6  C   UNL     1       7.020  -0.063  -2.079  1.00  0.00     0.047 C 
BRANCH   6   7
ATOM      7  C   UNL     1       6.456   0.103  -0.741  1.00  0.00    -0.047 A 
ATOM      8  C   UNL     1       5.800   1.261  -0.392  1.00  0.00     0.004 A 
ATOM      9  C   UNL     1       6.586  -0.917   0.174  1.00  0.00     0.004 A 
ATOM     10  C   UNL     1       5.285   1.350   0.903  1.00  0.00     0.000 A 
ATOM     11  C   UNL     1       6.077  -0.827   1.454  1.00  0.00     0.000 A 
ATOM     12  C   UNL     1       5.419   0.330   1.811  1.00  0.00     0.000 A 
ENDBRANCH   6   7
ENDBRANCH   1   6
TORSDOF 4
ENDMDL
MODEL 2
REMARK VINA RESULT:      -7.0      1.035      1.956
REMARK SMILES O=C(O)CCc1ccccc1
REMARK SMILES IDX 4 1 2 2 1 3 3 4 5 6 6 7 7 8 11 9 8 10 10 11 9 12
REMARK H PARENT 3 5
REMARK Flexibility Score: inf
ROOT
ATOM      1  C   UNL     1       7.255  -1.255  -2.167  1.00  0.00     0.127 C 
ENDROOT
BRANCH   1   2
ATOM      2  C   UNL     1       8.693  -1.308  -2.523  1.00  0.00     0.303 C 
ATOM      3  O   UNL     1       9.501  -0.446  -2.097  1.00  0.00    -0.252 OA
BRANCH   2   4
ATOM      4  O   UNL     1       9.186  -2.314  -3.338  1.00  0.00    -0.481 OA
ATOM      5  H   UNL     1       9.905  -2.089  -4.031  1.00  0.00     0.296 HD
ENDBRANCH   2   4
ENDBRANCH   1   2
BRANCH   1   6
ATOM      6  C   UNL     1       7.136  -1.334  -0.675  1.00  0.00     0.047 C 
BRANCH   6   7
ATOM      7  C   UNL     1       6.380  -0.234  -0.080  1.00  0.00    -0.047 A 
ATOM      8  C   UNL     1       5.940  -0.305   1.221  1.00  0.00     0.004 A 
ATOM      9  C   UNL     1       6.111   0.883  -0.838  1.00  0.00     0.004 A 
ATOM     10  C   UNL     1       5.224   0.783   1.724  1.00  0.00     0.000 A 
ATOM     11  C   UNL     1       5.402   1.958  -0.339  1.00  0.00     0.000 A 
ATOM     12  C   UNL     1       4.958   1.894   0.964  1.00  0.00     0.000 A 
ENDBRANCH   6   7
ENDBRANCH   1   6
TORSDOF 4
ENDMDL
