@<TRIPOS>MOLECULE
/home/cewinharhar/GITHUB/reincatalyze/data/processed/docking_pred/2023-May-05-1615_maxeplen10_maxtrainstep1000_seadep16_gamma099_lrac9e-4_lrcr1e-3/62f66f9004302081042513b5faa006f3d97c65a4_ligand_2.pdbqt
 12 12 0 0 0
SMALL
GASTEIGER

@<TRIPOS>ATOM
      1  C          7.2520   -1.2490   -2.1760 C.3     1  UNL1        0.1270
      2  C          8.6900   -1.3020   -2.5340 C.2     1  UNL1        0.3030
      3  O          9.4960   -0.4340   -2.1170 O.2     1  UNL1       -0.2520
      4  O          9.1840   -2.3150   -3.3400 O.3     1  UNL1       -0.4810
      5  H          9.5130   -2.0880   -4.2830 H       1  UNL1        0.2960
      6  C          7.1350   -1.3160   -0.6840 C.3     1  UNL1        0.0470
      7  C          6.3820   -0.2090   -0.0970 C.2     1  UNL1       -0.0470
      8  C          5.9540   -0.2650    1.2090 C.2     1  UNL1        0.0040
      9  C          6.1060    0.8970   -0.8660 C.2     1  UNL1        0.0040
     10  C          5.2410    0.8290    1.7050 C.2     1  UNL1        0.0000
     11  C          5.4000    1.9780   -0.3750 C.2     1  UNL1        0.0000
     12  C          4.9670    1.9300    0.9330 C.2     1  UNL1        0.0000
@<TRIPOS>BOND
     1     5     4    1
     2     4     2    1
     3     2     1    1
     4     2     3    2
     5     1     6    1
     6     9    11    1
     7     9     7    2
     8     6     7    1
     9    11    12    2
    10     7     8    1
    11    12    10    1
    12     8    10    2
