MODEL 1
REMARK VINA RESULT:      -7.3      0.000      0.000
REMARK SMILES O=C(O)CCc1ccccc1
REMARK SMILES IDX 4 1 2 2 1 3 3 4 5 6 6 7 7 8 11 9 8 10 10 11 9 12
REMARK H PARENT 3 5
REMARK Flexibility Score: inf
ROOT
ATOM      1  C   UNL     1       8.400  -0.644  -2.090  1.00  0.00     0.127 C 
ENDROOT
BRANCH   1   2
ATOM      2  C   UNL     1       8.371  -1.898  -2.880  1.00  0.00     0.303 C 
ATOM      3  O   UNL     1       7.285  -2.409  -3.250  1.00  0.00    -0.252 OA
BRANCH   2   4
ATOM      4  O   UNL     1       9.546  -2.542  -3.233  1.00  0.00    -0.481 OA
ATOM      5  H   UNL     1      10.300  -2.621  -2.545  1.00  0.00     0.296 HD
ENDBRANCH   2   4
ENDBRANCH   1   2
BRANCH   1   6
ATOM      6  C   UNL     1       7.019  -0.063  -2.079  1.00  0.00     0.047 C 
BRANCH   6   7
ATOM      7  C   UNL     1       6.455   0.103  -0.740  1.00  0.00    -0.047 A 
ATOM      8  C   UNL     1       5.800   1.261  -0.392  1.00  0.00     0.004 A 
ATOM      9  C   UNL     1       6.584  -0.917   0.174  1.00  0.00     0.004 A 
ATOM     10  C   UNL     1       5.286   1.350   0.904  1.00  0.00     0.000 A 
ATOM     11  C   UNL     1       6.075  -0.828   1.454  1.00  0.00     0.000 A 
ATOM     12  C   UNL     1       5.418   0.330   1.812  1.00  0.00     0.000 A 
ENDBRANCH   6   7
ENDBRANCH   1   6
TORSDOF 4
ENDMDL
MODEL 2
REMARK VINA RESULT:      -7.0      1.040      1.959
REMARK SMILES O=C(O)CCc1ccccc1
REMARK SMILES IDX 4 1 2 2 1 3 3 4 5 6 6 7 7 8 11 9 8 10 10 11 9 12
REMARK H PARENT 3 5
REMARK Flexibility Score: inf
ROOT
ATOM      1  C   UNL     1       7.252  -1.249  -2.176  1.00  0.00     0.127 C 
ENDROOT
BRANCH   1   2
ATOM      2  C   UNL     1       8.690  -1.302  -2.534  1.00  0.00     0.303 C 
ATOM      3  O   UNL     1       9.496  -0.434  -2.117  1.00  0.00    -0.252 OA
BRANCH   2   4
ATOM      4  O   UNL     1       9.184  -2.315  -3.340  1.00  0.00    -0.481 OA
ATOM      5  H   UNL     1       9.513  -2.088  -4.283  1.00  0.00     0.296 HD
ENDBRANCH   2   4
ENDBRANCH   1   2
BRANCH   1   6
ATOM      6  C   UNL     1       7.135  -1.316  -0.684  1.00  0.00     0.047 C 
BRANCH   6   7
ATOM      7  C   UNL     1       6.382  -0.209  -0.097  1.00  0.00    -0.047 A 
ATOM      8  C   UNL     1       5.954  -0.265   1.209  1.00  0.00     0.004 A 
ATOM      9  C   UNL     1       6.106   0.897  -0.866  1.00  0.00     0.004 A 
ATOM     10  C   UNL     1       5.241   0.829   1.705  1.00  0.00     0.000 A 
ATOM     11  C   UNL     1       5.400   1.978  -0.375  1.00  0.00     0.000 A 
ATOM     12  C   UNL     1       4.967   1.930   0.933  1.00  0.00     0.000 A 
ENDBRANCH   6   7
ENDBRANCH   1   6
TORSDOF 4
ENDMDL
