@<TRIPOS>MOLECULE
/home/cewinharhar/GITHUB/reincatalyze/data/processed/docking_pred/2023-May-05-1615_maxeplen10_maxtrainstep1000_seadep16_gamma099_lrac9e-4_lrcr1e-3/64ade7361adfbcba1ebdf367c3e16aacabd62181_ligand_2.pdbqt
 12 12 0 0 0
SMALL
GASTEIGER

@<TRIPOS>ATOM
      1  C          8.4310   -0.6460   -2.1310 C.3     1  UNL1        0.1270
      2  C          8.4680   -1.9060   -2.9110 C.2     1  UNL1        0.3030
      3  O          9.5470   -2.5200   -3.1040 O.2     1  UNL1       -0.2520
      4  O          7.3100   -2.4410   -3.4510 O.3     1  UNL1       -0.4810
      5  H          6.6650   -2.9550   -2.8440 H       1  UNL1        0.2960
      6  C          7.0200   -0.1430   -2.1170 C.3     1  UNL1        0.0470
      7  C          6.4710    0.0520   -0.7760 C.2     1  UNL1       -0.0470
      8  C          5.8330    1.2240   -0.4400 C.2     1  UNL1        0.0040
      9  C          6.5950   -0.9550    0.1530 C.2     1  UNL1        0.0040
     10  C          5.3330    1.3400    0.8580 C.2     1  UNL1        0.0000
     11  C          6.1000   -0.8380    1.4360 C.2     1  UNL1        0.0000
     12  C          5.4610    0.3330    1.7810 C.2     1  UNL1        0.0000
@<TRIPOS>BOND
     1     4     2    1
     2     4     5    1
     3     3     2    2
     4     2     1    1
     5     1     6    1
     6     6     7    1
     7     7     8    2
     8     7     9    1
     9     8    10    1
    10     9    11    2
    11    10    12    2
    12    11    12    1
