MODEL 1
REMARK VINA RESULT:      -7.3      0.000      0.000
REMARK SMILES O=C(O)CCc1ccccc1
REMARK SMILES IDX 4 1 2 2 1 3 3 4 5 6 6 7 7 8 11 9 8 10 10 11 9 12
REMARK H PARENT 3 5
REMARK Flexibility Score: inf
ROOT
ATOM      1  C   UNL     1       8.431  -0.646  -2.131  1.00  0.00     0.127 C 
ENDROOT
BRANCH   1   2
ATOM      2  C   UNL     1       8.468  -1.906  -2.911  1.00  0.00     0.303 C 
ATOM      3  O   UNL     1       9.547  -2.520  -3.104  1.00  0.00    -0.252 OA
BRANCH   2   4
ATOM      4  O   UNL     1       7.310  -2.441  -3.451  1.00  0.00    -0.481 OA
ATOM      5  H   UNL     1       6.665  -2.955  -2.844  1.00  0.00     0.296 HD
ENDBRANCH   2   4
ENDBRANCH   1   2
BRANCH   1   6
ATOM      6  C   UNL     1       7.020  -0.143  -2.117  1.00  0.00     0.047 C 
BRANCH   6   7
ATOM      7  C   UNL     1       6.471   0.052  -0.776  1.00  0.00    -0.047 A 
ATOM      8  C   UNL     1       5.833   1.224  -0.440  1.00  0.00     0.004 A 
ATOM      9  C   UNL     1       6.595  -0.955   0.153  1.00  0.00     0.004 A 
ATOM     10  C   UNL     1       5.333   1.340   0.858  1.00  0.00     0.000 A 
ATOM     11  C   UNL     1       6.100  -0.838   1.436  1.00  0.00     0.000 A 
ATOM     12  C   UNL     1       5.461   0.333   1.781  1.00  0.00     0.000 A 
ENDBRANCH   6   7
ENDBRANCH   1   6
TORSDOF 4
ENDMDL
