@<TRIPOS>MOLECULE
/home/cewinharhar/GITHUB/reincatalyze/data/processed/docking_pred/2023-May-05-1615_maxeplen10_maxtrainstep1000_seadep16_gamma099_lrac9e-4_lrcr1e-3/650932a4c96e02f0afcc120cab6b741f416c7ae8_ligand_2.pdbqt
 12 12 0 0 0
SMALL
GASTEIGER

@<TRIPOS>ATOM
      1  C          8.4020   -0.6600   -2.0710 C.3     1  UNL1        0.1270
      2  C          8.3710   -1.9050   -2.8740 C.2     1  UNL1        0.3030
      3  O          7.2850   -2.4070   -3.2550 O.2     1  UNL1       -0.2520
      4  O          9.5450   -2.5520   -3.2270 O.3     1  UNL1       -0.4810
      5  H          9.8630   -3.3510   -2.6720 H       1  UNL1        0.2960
      6  C          7.0260   -0.0680   -2.0660 C.3     1  UNL1        0.0470
      7  C          6.4570    0.1020   -0.7300 C.2     1  UNL1       -0.0470
      8  C          5.8000    1.2610   -0.3880 C.2     1  UNL1        0.0040
      9  C          6.5830   -0.9140    0.1880 C.2     1  UNL1        0.0040
     10  C          5.2810    1.3550    0.9050 C.2     1  UNL1        0.0000
     11  C          6.0690   -0.8200    1.4660 C.2     1  UNL1        0.0000
     12  C          5.4110    0.3380    1.8170 C.2     1  UNL1        0.0000
@<TRIPOS>BOND
     1     3     2    2
     2     4     2    1
     3     4     5    1
     4     2     1    1
     5     1     6    1
     6     6     7    1
     7     7     8    2
     8     7     9    1
     9     8    10    1
    10     9    11    2
    11    10    12    2
    12    11    12    1
