@<TRIPOS>MOLECULE
/home/cewinharhar/GITHUB/reincatalyze/data/processed/docking_pred/2023-May-05-1615_maxeplen10_maxtrainstep1000_seadep16_gamma099_lrac9e-4_lrcr1e-3/65610c622cc3bd86a4d466f03d6f61670904542e_ligand_2.pdbqt
 12 12 0 0 0
SMALL
GASTEIGER

@<TRIPOS>ATOM
      1  C          8.3440   -0.5480   -2.2500 C.3     1  UNL1        0.1270
      2  C          8.4270   -1.8610   -2.9320 C.2     1  UNL1        0.3030
      3  O          9.5260   -2.4480   -3.0820 O.2     1  UNL1       -0.2520
      4  O          7.2880   -2.4770   -3.4250 O.3     1  UNL1       -0.4810
      5  H          7.3700   -3.3890   -3.8820 H       1  UNL1        0.2960
      6  C          7.0300   -0.4710   -1.5340 C.3     1  UNL1        0.0470
      7  C          6.8490    0.7530   -0.7540 C.2     1  UNL1       -0.0470
      8  C          7.9140    1.3450   -0.1160 C.2     1  UNL1        0.0040
      9  C          5.5950    1.3120   -0.6650 C.2     1  UNL1        0.0040
     10  C          7.6680    2.5120    0.6100 C.2     1  UNL1        0.0000
     11  C          5.3530    2.4660    0.0530 C.2     1  UNL1        0.0000
     12  C          6.4150    3.0650    0.6960 C.2     1  UNL1        0.0000
@<TRIPOS>BOND
     1     5     4    1
     2     4     2    1
     3     3     2    2
     4     2     1    1
     5     1     6    1
     6     6     7    1
     7     7     9    2
     8     7     8    1
     9     9    11    1
    10     8    10    2
    11    11    12    2
    12    10    12    1
