MODEL 1
REMARK VINA RESULT:      -7.0      0.000      0.000
REMARK SMILES O=C(O)CCc1ccccc1
REMARK SMILES IDX 4 1 2 2 1 3 3 4 5 6 6 7 7 8 11 9 8 10 10 11 9 12
REMARK H PARENT 3 5
REMARK Flexibility Score: inf
ROOT
ATOM      1  C   UNL     1       8.401  -0.653  -2.082  1.00  0.00     0.127 C 
ENDROOT
BRANCH   1   2
ATOM      2  C   UNL     1       8.372  -1.900  -2.881  1.00  0.00     0.303 C 
ATOM      3  O   UNL     1       7.285  -2.412  -3.249  1.00  0.00    -0.252 OA
BRANCH   2   4
ATOM      4  O   UNL     1       9.546  -2.538  -3.246  1.00  0.00    -0.481 OA
ATOM      5  H   UNL     1      10.190  -2.857  -2.516  1.00  0.00     0.296 HD
ENDBRANCH   2   4
ENDBRANCH   1   2
BRANCH   1   6
ATOM      6  C   UNL     1       7.023  -0.065  -2.076  1.00  0.00     0.047 C 
BRANCH   6   7
ATOM      7  C   UNL     1       6.451   0.095  -0.740  1.00  0.00    -0.047 A 
ATOM      8  C   UNL     1       5.798   1.253  -0.388  1.00  0.00     0.004 A 
ATOM      9  C   UNL     1       6.570  -0.931   0.169  1.00  0.00     0.004 A 
ATOM     10  C   UNL     1       5.275   1.336   0.904  1.00  0.00     0.000 A 
ATOM     11  C   UNL     1       6.053  -0.847   1.446  1.00  0.00     0.000 A 
ATOM     12  C   UNL     1       5.398   0.310   1.807  1.00  0.00     0.000 A 
ENDBRANCH   6   7
ENDBRANCH   1   6
TORSDOF 4
ENDMDL
MODEL 2
REMARK VINA RESULT:      -6.8      1.408      2.195
REMARK SMILES O=C(O)CCc1ccccc1
REMARK SMILES IDX 4 1 2 2 1 3 3 4 5 6 6 7 7 8 11 9 8 10 10 11 9 12
REMARK H PARENT 3 5
REMARK Flexibility Score: inf
ROOT
ATOM      1  C   UNL     1       8.344  -0.548  -2.250  1.00  0.00     0.127 C 
ENDROOT
BRANCH   1   2
ATOM      2  C   UNL     1       8.427  -1.861  -2.932  1.00  0.00     0.303 C 
ATOM      3  O   UNL     1       9.526  -2.448  -3.082  1.00  0.00    -0.252 OA
BRANCH   2   4
ATOM      4  O   UNL     1       7.288  -2.477  -3.425  1.00  0.00    -0.481 OA
ATOM      5  H   UNL     1       7.370  -3.389  -3.882  1.00  0.00     0.296 HD
ENDBRANCH   2   4
ENDBRANCH   1   2
BRANCH   1   6
ATOM      6  C   UNL     1       7.030  -0.471  -1.534  1.00  0.00     0.047 C 
BRANCH   6   7
ATOM      7  C   UNL     1       6.849   0.753  -0.754  1.00  0.00    -0.047 A 
ATOM      8  C   UNL     1       7.914   1.345  -0.116  1.00  0.00     0.004 A 
ATOM      9  C   UNL     1       5.595   1.312  -0.665  1.00  0.00     0.004 A 
ATOM     10  C   UNL     1       7.668   2.512   0.610  1.00  0.00     0.000 A 
ATOM     11  C   UNL     1       5.353   2.466   0.053  1.00  0.00     0.000 A 
ATOM     12  C   UNL     1       6.415   3.065   0.696  1.00  0.00     0.000 A 
ENDBRANCH   6   7
ENDBRANCH   1   6
TORSDOF 4
ENDMDL
