@<TRIPOS>MOLECULE
/home/cewinharhar/GITHUB/reincatalyze/data/processed/docking_pred/2023-May-05-1615_maxeplen10_maxtrainstep1000_seadep16_gamma099_lrac9e-4_lrcr1e-3/65610c622cc3bd86a4d466f03d6f61670904542e_ligand_2.pdbqt
 12 12 0 0 0
SMALL
GASTEIGER

@<TRIPOS>ATOM
      1  C          8.4010   -0.6530   -2.0820 C.3     1  UNL1        0.1270
      2  C          8.3720   -1.9000   -2.8810 C.2     1  UNL1        0.3030
      3  O          7.2850   -2.4120   -3.2490 O.2     1  UNL1       -0.2520
      4  O          9.5460   -2.5380   -3.2460 O.3     1  UNL1       -0.4810
      5  H         10.1900   -2.8570   -2.5160 H       1  UNL1        0.2960
      6  C          7.0230   -0.0650   -2.0760 C.3     1  UNL1        0.0470
      7  C          6.4510    0.0950   -0.7400 C.2     1  UNL1       -0.0470
      8  C          5.7980    1.2530   -0.3880 C.2     1  UNL1        0.0040
      9  C          6.5700   -0.9310    0.1690 C.2     1  UNL1        0.0040
     10  C          5.2750    1.3360    0.9040 C.2     1  UNL1        0.0000
     11  C          6.0530   -0.8470    1.4460 C.2     1  UNL1        0.0000
     12  C          5.3980    0.3100    1.8070 C.2     1  UNL1        0.0000
@<TRIPOS>BOND
     1     3     2    2
     2     4     2    1
     3     4     5    1
     4     2     1    1
     5     1     6    1
     6     6     7    1
     7     7     8    2
     8     7     9    1
     9     8    10    1
    10     9    11    2
    11    10    12    2
    12    11    12    1
