@<TRIPOS>MOLECULE
/home/cewinharhar/GITHUB/reincatalyze/data/processed/docking_pred/2023-May-05-1615_maxeplen10_maxtrainstep1000_seadep16_gamma099_lrac9e-4_lrcr1e-3/661305b30cebe31e235170a50c1781f21e405ac9_ligand_2.pdbqt
 12 12 0 0 0
SMALL
GASTEIGER

@<TRIPOS>ATOM
      1  C          8.3950   -0.6380   -2.0980 C.3     1  UNL1        0.1270
      2  C          8.3640   -1.8940   -2.8830 C.2     1  UNL1        0.3030
      3  O          7.2780   -2.4040   -3.2540 O.2     1  UNL1       -0.2520
      4  O          9.5380   -2.5430   -3.2290 O.3     1  UNL1       -0.4810
      5  H         10.3050   -2.5870   -2.5530 H       1  UNL1        0.2960
      6  C          7.0120   -0.0600   -2.0800 C.3     1  UNL1        0.0470
      7  C          6.4540    0.1050   -0.7390 C.2     1  UNL1       -0.0470
      8  C          5.7980    1.2620   -0.3880 C.2     1  UNL1        0.0040
      9  C          6.5890   -0.9150    0.1740 C.2     1  UNL1        0.0040
     10  C          5.2890    1.3500    0.9100 C.2     1  UNL1        0.0000
     11  C          6.0850   -0.8260    1.4570 C.2     1  UNL1        0.0000
     12  C          5.4270    0.3300    1.8170 C.2     1  UNL1        0.0000
@<TRIPOS>BOND
     1     3     2    2
     2     4     2    1
     3     4     5    1
     4     2     1    1
     5     1     6    1
     6     6     7    1
     7     7     8    2
     8     7     9    1
     9     8    10    1
    10     9    11    2
    11    10    12    2
    12    11    12    1
