MODEL 1
REMARK VINA RESULT:      -7.3      0.000      0.000
REMARK SMILES O=C(O)CCc1ccccc1
REMARK SMILES IDX 4 1 2 2 1 3 3 4 5 6 6 7 7 8 11 9 8 10 10 11 9 12
REMARK H PARENT 3 5
REMARK Flexibility Score: inf
ROOT
ATOM      1  C   UNL     1       8.395  -0.638  -2.098  1.00  0.00     0.127 C 
ENDROOT
BRANCH   1   2
ATOM      2  C   UNL     1       8.364  -1.894  -2.883  1.00  0.00     0.303 C 
ATOM      3  O   UNL     1       7.278  -2.404  -3.254  1.00  0.00    -0.252 OA
BRANCH   2   4
ATOM      4  O   UNL     1       9.538  -2.543  -3.229  1.00  0.00    -0.481 OA
ATOM      5  H   UNL     1      10.305  -2.587  -2.553  1.00  0.00     0.296 HD
ENDBRANCH   2   4
ENDBRANCH   1   2
BRANCH   1   6
ATOM      6  C   UNL     1       7.012  -0.060  -2.080  1.00  0.00     0.047 C 
BRANCH   6   7
ATOM      7  C   UNL     1       6.454   0.105  -0.739  1.00  0.00    -0.047 A 
ATOM      8  C   UNL     1       5.798   1.262  -0.388  1.00  0.00     0.004 A 
ATOM      9  C   UNL     1       6.589  -0.915   0.174  1.00  0.00     0.004 A 
ATOM     10  C   UNL     1       5.289   1.350   0.910  1.00  0.00     0.000 A 
ATOM     11  C   UNL     1       6.085  -0.826   1.457  1.00  0.00     0.000 A 
ATOM     12  C   UNL     1       5.427   0.330   1.817  1.00  0.00     0.000 A 
ENDBRANCH   6   7
ENDBRANCH   1   6
TORSDOF 4
ENDMDL
