@<TRIPOS>MOLECULE
/home/cewinharhar/GITHUB/reincatalyze/data/processed/docking_pred/2023-May-05-1615_maxeplen10_maxtrainstep1000_seadep16_gamma099_lrac9e-4_lrcr1e-3/67ebe37560d6b2ff0daae954040d2bc7ae74be81_ligand_2.pdbqt
 12 12 0 0 0
SMALL
GASTEIGER

@<TRIPOS>ATOM
      1  C          8.1750   -6.0850   11.4810 C.3     1  UNL1        0.1270
      2  C          8.0810   -4.6080   11.4060 C.2     1  UNL1        0.3030
      3  O          8.4420   -3.8830   12.3660 O.2     1  UNL1       -0.2520
      4  O          7.5890   -3.9840   10.2700 O.3     1  UNL1       -0.4810
      5  H          8.1490   -3.9900    9.4140 H       1  UNL1        0.2960
      6  C          8.8070   -6.5810   10.2170 C.3     1  UNL1        0.0470
      7  C         10.1140   -7.2080   10.4110 C.2     1  UNL1       -0.0470
      8  C         11.2570   -6.4450   10.4780 C.2     1  UNL1        0.0040
      9  C         10.1910   -8.5760   10.5310 C.2     1  UNL1        0.0040
     10  C         12.4700   -7.1110   10.6660 C.2     1  UNL1        0.0000
     11  C         11.3910   -9.2320   10.7170 C.2     1  UNL1        0.0000
     12  C         12.5410   -8.4760   10.7840 C.2     1  UNL1        0.0000
@<TRIPOS>BOND
     1     5     4    1
     2     6     7    1
     3     6     1    1
     4     4     2    1
     5     7     8    2
     6     7     9    1
     7     8    10    1
     8     9    11    2
     9    10    12    2
    10    11    12    1
    11     2     1    1
    12     2     3    2
