@<TRIPOS>MOLECULE
/home/cewinharhar/GITHUB/reincatalyze/data/processed/docking_pred/2023-May-05-1615_maxeplen10_maxtrainstep1000_seadep16_gamma099_lrac9e-4_lrcr1e-3/67ebe37560d6b2ff0daae954040d2bc7ae74be81_ligand_2.pdbqt
 12 12 0 0 0
SMALL
GASTEIGER

@<TRIPOS>ATOM
      1  C          5.0240    1.7790    0.6550 C.3     1  UNL1        0.1270
      2  C          4.5670    1.1180    1.9000 C.2     1  UNL1        0.3030
      3  O          3.4420    1.3730    2.3970 O.2     1  UNL1       -0.2520
      4  O          5.3720    0.1980    2.5520 O.3     1  UNL1       -0.4810
      5  H          5.6390    0.3670    3.5260 H       1  UNL1        0.2960
      6  C          6.5210    1.8440    0.6780 C.3     1  UNL1        0.0470
      7  C          7.1660    1.0600   -0.3730 C.2     1  UNL1       -0.0470
      8  C          8.4980    1.2380   -0.6660 C.2     1  UNL1        0.0040
      9  C          6.4250    0.1350   -1.0720 C.2     1  UNL1        0.0040
     10  C          9.0490    0.4530   -1.6820 C.2     1  UNL1        0.0000
     11  C          6.9710   -0.6400   -2.0760 C.2     1  UNL1        0.0000
     12  C          8.3050   -0.4670   -2.3760 C.2     1  UNL1        0.0000
@<TRIPOS>BOND
     1    12    11    2
     2    12    10    1
     3    11     9    1
     4    10     8    2
     5     9     7    2
     6     8     7    1
     7     7     6    1
     8     1     6    1
     9     1     2    1
    10     2     3    2
    11     2     4    1
    12     4     5    1
