@<TRIPOS>MOLECULE
/home/cewinharhar/GITHUB/reincatalyze/data/processed/docking_pred/2023-May-05-1615_maxeplen10_maxtrainstep1000_seadep16_gamma099_lrac9e-4_lrcr1e-3/67ebe37560d6b2ff0daae954040d2bc7ae74be81_ligand_2.pdbqt
 12 12 0 0 0
SMALL
GASTEIGER

@<TRIPOS>ATOM
      1  C          8.4380   -0.6340   -2.1480 C.3     1  UNL1        0.1270
      2  C          8.4770   -1.9060   -2.9080 C.2     1  UNL1        0.3030
      3  O          9.5540   -2.5280   -3.0810 O.2     1  UNL1       -0.2520
      4  O          7.3220   -2.4450   -3.4510 O.3     1  UNL1       -0.4810
      5  H          6.4960   -1.8500   -3.5630 H       1  UNL1        0.2960
      6  C          7.0240   -0.1400   -2.1310 C.3     1  UNL1        0.0470
      7  C          6.4790    0.0580   -0.7890 C.2     1  UNL1       -0.0470
      8  C          5.8400    1.2300   -0.4560 C.2     1  UNL1        0.0040
      9  C          6.6110   -0.9440    0.1430 C.2     1  UNL1        0.0040
     10  C          5.3430    1.3490    0.8440 C.2     1  UNL1        0.0000
     11  C          6.1200   -0.8240    1.4280 C.2     1  UNL1        0.0000
     12  C          5.4780    0.3460    1.7710 C.2     1  UNL1        0.0000
@<TRIPOS>BOND
     1     5     4    1
     2     4     2    1
     3     3     2    2
     4     2     1    1
     5     1     6    1
     6     6     7    1
     7     7     8    2
     8     7     9    1
     9     8    10    1
    10     9    11    2
    11    10    12    2
    12    11    12    1
