MODEL 1
REMARK VINA RESULT:      -7.4      0.000      0.000
REMARK SMILES O=C(O)CCc1ccccc1
REMARK SMILES IDX 4 1 2 2 1 3 3 4 5 6 6 7 7 8 11 9 8 10 10 11 9 12
REMARK H PARENT 3 5
REMARK Flexibility Score: inf
ROOT
ATOM      1  C   UNL     1       8.438  -0.634  -2.148  1.00  0.00     0.127 C 
ENDROOT
BRANCH   1   2
ATOM      2  C   UNL     1       8.477  -1.906  -2.908  1.00  0.00     0.303 C 
ATOM      3  O   UNL     1       9.554  -2.528  -3.081  1.00  0.00    -0.252 OA
BRANCH   2   4
ATOM      4  O   UNL     1       7.322  -2.445  -3.451  1.00  0.00    -0.481 OA
ATOM      5  H   UNL     1       6.496  -1.850  -3.563  1.00  0.00     0.296 HD
ENDBRANCH   2   4
ENDBRANCH   1   2
BRANCH   1   6
ATOM      6  C   UNL     1       7.024  -0.140  -2.131  1.00  0.00     0.047 C 
BRANCH   6   7
ATOM      7  C   UNL     1       6.479   0.058  -0.789  1.00  0.00    -0.047 A 
ATOM      8  C   UNL     1       5.840   1.230  -0.456  1.00  0.00     0.004 A 
ATOM      9  C   UNL     1       6.611  -0.944   0.143  1.00  0.00     0.004 A 
ATOM     10  C   UNL     1       5.343   1.349   0.844  1.00  0.00     0.000 A 
ATOM     11  C   UNL     1       6.120  -0.824   1.428  1.00  0.00     0.000 A 
ATOM     12  C   UNL     1       5.478   0.346   1.771  1.00  0.00     0.000 A 
ENDBRANCH   6   7
ENDBRANCH   1   6
TORSDOF 4
ENDMDL
