@<TRIPOS>MOLECULE
/home/cewinharhar/GITHUB/reincatalyze/data/processed/docking_pred/2023-May-05-1615_maxeplen10_maxtrainstep1000_seadep16_gamma099_lrac9e-4_lrcr1e-3/69e2ce579100b0ee4b56c8bb4a95d1562fd611af_ligand_2.pdbqt
 12 12 0 0 0
SMALL
GASTEIGER

@<TRIPOS>ATOM
      1  C          8.4310   -0.6500   -2.1240 C.3     1  UNL1        0.1270
      2  C          8.4680   -1.9060   -2.9100 C.2     1  UNL1        0.3030
      3  O          9.5450   -2.5240   -3.0990 O.2     1  UNL1       -0.2520
      4  O          7.3110   -2.4350   -3.4600 O.3     1  UNL1       -0.4810
      5  H          7.1940   -2.4330   -4.4770 H       1  UNL1        0.2960
      6  C          7.0220   -0.1400   -2.1190 C.3     1  UNL1        0.0470
      7  C          6.4640    0.0510   -0.7820 C.2     1  UNL1       -0.0470
      8  C          5.8230    1.2220   -0.4480 C.2     1  UNL1        0.0040
      9  C          6.5830   -0.9570    0.1460 C.2     1  UNL1        0.0040
     10  C          5.3130    1.3350    0.8480 C.2     1  UNL1        0.0000
     11  C          6.0790   -0.8440    1.4260 C.2     1  UNL1        0.0000
     12  C          5.4360    0.3260    1.7690 C.2     1  UNL1        0.0000
@<TRIPOS>BOND
     1     5     4    1
     2     4     2    1
     3     3     2    2
     4     2     1    1
     5     1     6    1
     6     6     7    1
     7     7     8    2
     8     7     9    1
     9     8    10    1
    10     9    11    2
    11    10    12    2
    12    11    12    1
