MODEL 1
REMARK VINA RESULT:      -7.1      0.000      0.000
REMARK SMILES O=C(O)CCc1ccccc1
REMARK SMILES IDX 4 1 2 2 1 3 3 4 5 6 6 7 7 8 11 9 8 10 10 11 9 12
REMARK H PARENT 3 5
REMARK Flexibility Score: inf
ROOT
ATOM      1  C   UNL     1       8.431  -0.650  -2.124  1.00  0.00     0.127 C 
ENDROOT
BRANCH   1   2
ATOM      2  C   UNL     1       8.468  -1.906  -2.910  1.00  0.00     0.303 C 
ATOM      3  O   UNL     1       9.545  -2.524  -3.099  1.00  0.00    -0.252 OA
BRANCH   2   4
ATOM      4  O   UNL     1       7.311  -2.435  -3.460  1.00  0.00    -0.481 OA
ATOM      5  H   UNL     1       7.194  -2.433  -4.477  1.00  0.00     0.296 HD
ENDBRANCH   2   4
ENDBRANCH   1   2
BRANCH   1   6
ATOM      6  C   UNL     1       7.022  -0.140  -2.119  1.00  0.00     0.047 C 
BRANCH   6   7
ATOM      7  C   UNL     1       6.464   0.051  -0.782  1.00  0.00    -0.047 A 
ATOM      8  C   UNL     1       5.823   1.222  -0.448  1.00  0.00     0.004 A 
ATOM      9  C   UNL     1       6.583  -0.957   0.146  1.00  0.00     0.004 A 
ATOM     10  C   UNL     1       5.313   1.335   0.848  1.00  0.00     0.000 A 
ATOM     11  C   UNL     1       6.079  -0.844   1.426  1.00  0.00     0.000 A 
ATOM     12  C   UNL     1       5.436   0.326   1.769  1.00  0.00     0.000 A 
ENDBRANCH   6   7
ENDBRANCH   1   6
TORSDOF 4
ENDMDL
MODEL 2
REMARK VINA RESULT:      -6.8      1.378      1.964
REMARK SMILES O=C(O)CCc1ccccc1
REMARK SMILES IDX 4 1 2 2 1 3 3 4 5 6 6 7 7 8 11 9 8 10 10 11 9 12
REMARK H PARENT 3 5
REMARK Flexibility Score: inf
ROOT
ATOM      1  C   UNL     1       8.301  -0.522  -2.283  1.00  0.00     0.127 C 
ENDROOT
BRANCH   1   2
ATOM      2  C   UNL     1       8.397  -1.846  -2.942  1.00  0.00     0.303 C 
ATOM      3  O   UNL     1       9.501  -2.432  -3.067  1.00  0.00    -0.252 OA
BRANCH   2   4
ATOM      4  O   UNL     1       7.268  -2.475  -3.440  1.00  0.00    -0.481 OA
ATOM      5  H   UNL     1       6.718  -3.080  -2.823  1.00  0.00     0.296 HD
ENDBRANCH   2   4
ENDBRANCH   1   2
BRANCH   1   6
ATOM      6  C   UNL     1       7.028  -0.482  -1.493  1.00  0.00     0.047 C 
BRANCH   6   7
ATOM      7  C   UNL     1       6.840   0.753  -0.732  1.00  0.00    -0.047 A 
ATOM      8  C   UNL     1       7.905   1.367  -0.114  1.00  0.00     0.004 A 
ATOM      9  C   UNL     1       5.581   1.299  -0.640  1.00  0.00     0.004 A 
ATOM     10  C   UNL     1       7.652   2.544   0.594  1.00  0.00     0.000 A 
ATOM     11  C   UNL     1       5.333   2.462   0.061  1.00  0.00     0.000 A 
ATOM     12  C   UNL     1       6.394   3.084   0.684  1.00  0.00     0.000 A 
ENDBRANCH   6   7
ENDBRANCH   1   6
TORSDOF 4
ENDMDL
