@<TRIPOS>MOLECULE
/home/cewinharhar/GITHUB/reincatalyze/data/processed/docking_pred/2023-May-05-1615_maxeplen10_maxtrainstep1000_seadep16_gamma099_lrac9e-4_lrcr1e-3/6b061a7890d75c8b26c884693b3b8f9ee5a9c423_ligand_2.pdbqt
 12 12 0 0 0
SMALL
GASTEIGER

@<TRIPOS>ATOM
      1  C          7.2420   -1.2160   -2.1800 C.3     1  UNL1        0.1270
      2  C          8.6790   -1.2900   -2.5340 C.2     1  UNL1        0.3030
      3  O          9.4960   -0.4300   -2.1210 O.2     1  UNL1       -0.2520
      4  O          9.1610   -2.3140   -3.3340 O.3     1  UNL1       -0.4810
      5  H          8.9670   -3.2850   -3.0750 H       1  UNL1        0.2960
      6  C          7.1200   -1.2970   -0.6880 C.3     1  UNL1        0.0470
      7  C          6.3660   -0.1950   -0.0930 C.2     1  UNL1       -0.0470
      8  C          5.9340   -0.2620    1.2120 C.2     1  UNL1        0.0040
      9  C          6.0930    0.9190   -0.8520 C.2     1  UNL1        0.0040
     10  C          5.2210    0.8280    1.7150 C.2     1  UNL1        0.0000
     11  C          5.3870    1.9960   -0.3530 C.2     1  UNL1        0.0000
     12  C          4.9500    1.9360    0.9530 C.2     1  UNL1        0.0000
@<TRIPOS>BOND
     1     4     5    1
     2     4     2    1
     3     2     1    1
     4     2     3    2
     5     1     6    1
     6     9    11    1
     7     9     7    2
     8     6     7    1
     9    11    12    2
    10     7     8    1
    11    12    10    1
    12     8    10    2
