@<TRIPOS>MOLECULE
/home/cewinharhar/GITHUB/reincatalyze/data/processed/docking_pred/2023-May-05-1615_maxeplen10_maxtrainstep1000_seadep16_gamma099_lrac9e-4_lrcr1e-3/6ceeb54199aca0c96a32aff90fdf9e1d9b8e1f8c_ligand_2.pdbqt
 12 12 0 0 0
SMALL
GASTEIGER

@<TRIPOS>ATOM
      1  C          7.2030   -0.4800    0.5180 C.3     1  UNL1        0.1270
      2  C          6.9220   -0.7310   -0.9150 C.2     1  UNL1        0.3030
      3  O          6.5260    0.1890   -1.6720 O.2     1  UNL1       -0.2520
      4  O          7.0900   -1.9940   -1.4600 O.3     1  UNL1       -0.4810
      5  H          7.1930   -2.7990   -0.8370 H       1  UNL1        0.2960
      6  C          8.6150   -0.8920    0.8010 C.3     1  UNL1        0.0470
      7  C          9.3760    0.0860    1.5770 C.2     1  UNL1       -0.0470
      8  C          8.7370    1.1100    2.2370 C.2     1  UNL1        0.0040
      9  C         10.7450   -0.0300    1.6450 C.2     1  UNL1        0.0040
     10  C          9.5270    2.0070    2.9600 C.2     1  UNL1        0.0000
     11  C         11.5240    0.8580    2.3600 C.2     1  UNL1        0.0000
     12  C         10.8920    1.8880    3.0230 C.2     1  UNL1        0.0000
@<TRIPOS>BOND
     1     3     2    2
     2     4     2    1
     3     4     5    1
     4     2     1    1
     5     1     6    1
     6     6     7    1
     7     7     9    2
     8     7     8    1
     9     9    11    1
    10     8    10    2
    11    11    12    2
    12    10    12    1
