@<TRIPOS>MOLECULE
/home/cewinharhar/GITHUB/reincatalyze/data/processed/docking_pred/2023-May-05-1615_maxeplen10_maxtrainstep1000_seadep16_gamma099_lrac9e-4_lrcr1e-3/6ceeb54199aca0c96a32aff90fdf9e1d9b8e1f8c_ligand_2.pdbqt
 12 12 0 0 0
SMALL
GASTEIGER

@<TRIPOS>ATOM
      1  C          6.7840   -0.3640    2.1880 C.3     1  UNL1        0.1270
      2  C          5.5740    0.3000    1.6480 C.2     1  UNL1        0.3030
      3  O          5.5120    0.6630    0.4470 O.2     1  UNL1       -0.2520
      4  O          4.4740    0.5380    2.4560 O.3     1  UNL1       -0.4810
      5  H          3.9850   -0.2530    2.8830 H       1  UNL1        0.2960
      6  C          7.8950   -0.1950    1.1970 C.3     1  UNL1        0.0470
      7  C          9.1020    0.4140    1.7560 C.2     1  UNL1       -0.0470
      8  C          9.0230    1.5440    2.5360 C.2     1  UNL1        0.0040
      9  C         10.3250   -0.1590    1.4940 C.2     1  UNL1        0.0040
     10  C         10.2160    2.0700    3.0360 C.2     1  UNL1        0.0000
     11  C         11.5030    0.3620    1.9900 C.2     1  UNL1        0.0000
     12  C         11.4330    1.4950    2.7710 C.2     1  UNL1        0.0000
@<TRIPOS>BOND
     1     3     2    2
     2     6     7    1
     3     6     1    1
     4     9     7    2
     5     9    11    1
     6     2     1    1
     7     2     4    1
     8     7     8    1
     9    11    12    2
    10     4     5    1
    11     8    10    2
    12    12    10    1
