@<TRIPOS>MOLECULE
/home/cewinharhar/GITHUB/reincatalyze/data/processed/docking_pred/2023-May-05-1615_maxeplen10_maxtrainstep1000_seadep16_gamma099_lrac9e-4_lrcr1e-3/6ceeb54199aca0c96a32aff90fdf9e1d9b8e1f8c_ligand_2.pdbqt
 12 12 0 0 0
SMALL
GASTEIGER

@<TRIPOS>ATOM
      1  C          8.2120   -0.9240    0.3880 C.3     1  UNL1        0.1270
      2  C          7.8590   -2.2800    0.8690 C.2     1  UNL1        0.3030
      3  O          8.6390   -3.2510    0.7090 O.2     1  UNL1       -0.2520
      4  O          6.6540   -2.5150    1.5120 O.3     1  UNL1       -0.4810
      5  H          6.4900   -3.4240    1.9530 H       1  UNL1        0.2960
      6  C          8.1110    0.0260    1.5420 C.3     1  UNL1        0.0470
      7  C          9.3980    0.5480    1.9980 C.2     1  UNL1       -0.0470
      8  C          9.4590    1.6380    2.8350 C.2     1  UNL1        0.0040
      9  C         10.5570   -0.0670    1.5810 C.2     1  UNL1        0.0040
     10  C         10.7230    2.0810    3.2310 C.2     1  UNL1        0.0000
     11  C         11.8050    0.3730    1.9730 C.2     1  UNL1        0.0000
     12  C         11.8750    1.4650    2.8110 C.2     1  UNL1        0.0000
@<TRIPOS>BOND
     1     1     2    1
     2     1     6    1
     3     3     2    2
     4     2     4    1
     5     4     5    1
     6     6     7    1
     7     9    11    1
     8     9     7    2
     9    11    12    2
    10     7     8    1
    11    12    10    1
    12     8    10    2
