MODEL 1
REMARK VINA RESULT:      -6.6      0.000      0.000
REMARK SMILES O=C(O)CCc1ccccc1
REMARK SMILES IDX 4 1 2 2 1 3 3 4 5 6 6 7 7 8 11 9 8 10 10 11 9 12
REMARK H PARENT 3 5
REMARK Flexibility Score: inf
ROOT
ATOM      1  C   UNL     1       7.736  -0.390   1.187  1.00  0.00     0.127 C 
ENDROOT
BRANCH   1   2
ATOM      2  C   UNL     1       6.619  -1.100   1.852  1.00  0.00     0.303 C 
ATOM      3  O   UNL     1       5.788  -0.484   2.565  1.00  0.00    -0.252 OA
BRANCH   2   4
ATOM      4  O   UNL     1       6.460  -2.469   1.706  1.00  0.00    -0.481 OA
ATOM      5  H   UNL     1       6.064  -2.837   0.836  1.00  0.00     0.296 HD
ENDBRANCH   2   4
ENDBRANCH   1   2
BRANCH   1   6
ATOM      6  C   UNL     1       8.136   0.770   2.047  1.00  0.00     0.047 C 
BRANCH   6   7
ATOM      7  C   UNL     1       9.574   0.863   2.288  1.00  0.00    -0.047 A 
ATOM      8  C   UNL     1      10.452   0.024   1.642  1.00  0.00     0.004 A 
ATOM      9  C   UNL     1      10.047   1.806   3.171  1.00  0.00     0.004 A 
ATOM     10  C   UNL     1      11.813   0.171   1.919  1.00  0.00     0.000 A 
ATOM     11  C   UNL     1      11.393   1.950   3.445  1.00  0.00     0.000 A 
ATOM     12  C   UNL     1      12.279   1.112   2.802  1.00  0.00     0.000 A 
ENDBRANCH   6   7
ENDBRANCH   1   6
TORSDOF 4
ENDMDL
MODEL 2
REMARK VINA RESULT:      -6.5      1.099      2.097
REMARK SMILES O=C(O)CCc1ccccc1
REMARK SMILES IDX 4 1 2 2 1 3 3 4 5 6 6 7 7 8 11 9 8 10 10 11 9 12
REMARK H PARENT 3 5
REMARK Flexibility Score: inf
ROOT
ATOM      1  C   UNL     1       8.212  -0.924   0.388  1.00  0.00     0.127 C 
ENDROOT
BRANCH   1   2
ATOM      2  C   UNL     1       7.859  -2.280   0.869  1.00  0.00     0.303 C 
ATOM      3  O   UNL     1       8.639  -3.251   0.709  1.00  0.00    -0.252 OA
BRANCH   2   4
ATOM      4  O   UNL     1       6.654  -2.515   1.512  1.00  0.00    -0.481 OA
ATOM      5  H   UNL     1       6.490  -3.424   1.953  1.00  0.00     0.296 HD
ENDBRANCH   2   4
ENDBRANCH   1   2
BRANCH   1   6
ATOM      6  C   UNL     1       8.111   0.026   1.542  1.00  0.00     0.047 C 
BRANCH   6   7
ATOM      7  C   UNL     1       9.398   0.548   1.998  1.00  0.00    -0.047 A 
ATOM      8  C   UNL     1       9.459   1.638   2.835  1.00  0.00     0.004 A 
ATOM      9  C   UNL     1      10.557  -0.067   1.581  1.00  0.00     0.004 A 
ATOM     10  C   UNL     1      10.723   2.081   3.231  1.00  0.00     0.000 A 
ATOM     11  C   UNL     1      11.805   0.373   1.973  1.00  0.00     0.000 A 
ATOM     12  C   UNL     1      11.875   1.465   2.811  1.00  0.00     0.000 A 
ENDBRANCH   6   7
ENDBRANCH   1   6
TORSDOF 4
ENDMDL
MODEL 3
REMARK VINA RESULT:      -6.5      1.332      2.167
REMARK SMILES O=C(O)CCc1ccccc1
REMARK SMILES IDX 4 1 2 2 1 3 3 4 5 6 6 7 7 8 11 9 8 10 10 11 9 12
REMARK H PARENT 3 5
REMARK Flexibility Score: inf
ROOT
ATOM      1  C   UNL     1       6.784  -0.364   2.188  1.00  0.00     0.127 C 
ENDROOT
BRANCH   1   2
ATOM      2  C   UNL     1       5.574   0.300   1.648  1.00  0.00     0.303 C 
ATOM      3  O   UNL     1       5.512   0.663   0.447  1.00  0.00    -0.252 OA
BRANCH   2   4
ATOM      4  O   UNL     1       4.474   0.538   2.456  1.00  0.00    -0.481 OA
ATOM      5  H   UNL     1       3.985  -0.253   2.883  1.00  0.00     0.296 HD
ENDBRANCH   2   4
ENDBRANCH   1   2
BRANCH   1   6
ATOM      6  C   UNL     1       7.895  -0.195   1.197  1.00  0.00     0.047 C 
BRANCH   6   7
ATOM      7  C   UNL     1       9.102   0.414   1.756  1.00  0.00    -0.047 A 
ATOM      8  C   UNL     1       9.023   1.544   2.536  1.00  0.00     0.004 A 
ATOM      9  C   UNL     1      10.325  -0.159   1.494  1.00  0.00     0.004 A 
ATOM     10  C   UNL     1      10.216   2.070   3.036  1.00  0.00     0.000 A 
ATOM     11  C   UNL     1      11.503   0.362   1.990  1.00  0.00     0.000 A 
ATOM     12  C   UNL     1      11.433   1.495   2.771  1.00  0.00     0.000 A 
ENDBRANCH   6   7
ENDBRANCH   1   6
TORSDOF 4
ENDMDL
MODEL 4
REMARK VINA RESULT:      -6.1      1.895      2.508
REMARK SMILES O=C(O)CCc1ccccc1
REMARK SMILES IDX 4 1 2 2 1 3 3 4 5 6 6 7 7 8 11 9 8 10 10 11 9 12
REMARK H PARENT 3 5
REMARK Flexibility Score: inf
ROOT
ATOM      1  C   UNL     1       7.203  -0.480   0.518  1.00  0.00     0.127 C 
ENDROOT
BRANCH   1   2
ATOM      2  C   UNL     1       6.922  -0.731  -0.915  1.00  0.00     0.303 C 
ATOM      3  O   UNL     1       6.526   0.189  -1.672  1.00  0.00    -0.252 OA
BRANCH   2   4
ATOM      4  O   UNL     1       7.090  -1.994  -1.460  1.00  0.00    -0.481 OA
ATOM      5  H   UNL     1       7.193  -2.799  -0.837  1.00  0.00     0.296 HD
ENDBRANCH   2   4
ENDBRANCH   1   2
BRANCH   1   6
ATOM      6  C   UNL     1       8.615  -0.892   0.801  1.00  0.00     0.047 C 
BRANCH   6   7
ATOM      7  C   UNL     1       9.376   0.086   1.577  1.00  0.00    -0.047 A 
ATOM      8  C   UNL     1       8.737   1.110   2.237  1.00  0.00     0.004 A 
ATOM      9  C   UNL     1      10.745  -0.030   1.645  1.00  0.00     0.004 A 
ATOM     10  C   UNL     1       9.527   2.007   2.960  1.00  0.00     0.000 A 
ATOM     11  C   UNL     1      11.524   0.858   2.360  1.00  0.00     0.000 A 
ATOM     12  C   UNL     1      10.892   1.888   3.023  1.00  0.00     0.000 A 
ENDBRANCH   6   7
ENDBRANCH   1   6
TORSDOF 4
ENDMDL
