@<TRIPOS>MOLECULE
/home/cewinharhar/GITHUB/reincatalyze/data/processed/docking_pred/2023-May-05-1615_maxeplen10_maxtrainstep1000_seadep16_gamma099_lrac9e-4_lrcr1e-3/6ceeb54199aca0c96a32aff90fdf9e1d9b8e1f8c_ligand_2.pdbqt
 12 12 0 0 0
SMALL
GASTEIGER

@<TRIPOS>ATOM
      1  C          7.7360   -0.3900    1.1870 C.3     1  UNL1        0.1270
      2  C          6.6190   -1.1000    1.8520 C.2     1  UNL1        0.3030
      3  O          5.7880   -0.4840    2.5650 O.2     1  UNL1       -0.2520
      4  O          6.4600   -2.4690    1.7060 O.3     1  UNL1       -0.4810
      5  H          6.0640   -2.8370    0.8360 H       1  UNL1        0.2960
      6  C          8.1360    0.7700    2.0470 C.3     1  UNL1        0.0470
      7  C          9.5740    0.8630    2.2880 C.2     1  UNL1       -0.0470
      8  C         10.4520    0.0240    1.6420 C.2     1  UNL1        0.0040
      9  C         10.0470    1.8060    3.1710 C.2     1  UNL1        0.0040
     10  C         11.8130    0.1710    1.9190 C.2     1  UNL1        0.0000
     11  C         11.3930    1.9500    3.4450 C.2     1  UNL1        0.0000
     12  C         12.2790    1.1120    2.8020 C.2     1  UNL1        0.0000
@<TRIPOS>BOND
     1     5     4    1
     2     1     2    1
     3     1     6    1
     4     8    10    1
     5     8     7    2
     6     4     2    1
     7     2     3    2
     8    10    12    2
     9     6     7    1
    10     7     9    1
    11    12    11    1
    12     9    11    2
