MODEL 1
REMARK VINA RESULT:      -7.3      0.000      0.000
REMARK SMILES O=C(O)CCc1ccccc1
REMARK SMILES IDX 4 1 2 2 1 3 3 4 5 6 6 7 7 8 11 9 8 10 10 11 9 12
REMARK H PARENT 3 5
REMARK Flexibility Score: inf
ROOT
ATOM      1  C   UNL     1       8.401  -0.652  -2.081  1.00  0.00     0.127 C 
ENDROOT
BRANCH   1   2
ATOM      2  C   UNL     1       8.372  -1.901  -2.879  1.00  0.00     0.303 C 
ATOM      3  O   UNL     1       7.286  -2.411  -3.249  1.00  0.00    -0.252 OA
BRANCH   2   4
ATOM      4  O   UNL     1       9.547  -2.542  -3.238  1.00  0.00    -0.481 OA
ATOM      5  H   UNL     1       9.980  -3.198  -2.582  1.00  0.00     0.296 HD
ENDBRANCH   2   4
ENDBRANCH   1   2
BRANCH   1   6
ATOM      6  C   UNL     1       7.022  -0.066  -2.073  1.00  0.00     0.047 C 
BRANCH   6   7
ATOM      7  C   UNL     1       6.455   0.101  -0.736  1.00  0.00    -0.047 A 
ATOM      8  C   UNL     1       5.801   1.261  -0.390  1.00  0.00     0.004 A 
ATOM      9  C   UNL     1       6.580  -0.919   0.178  1.00  0.00     0.004 A 
ATOM     10  C   UNL     1       5.284   1.351   0.904  1.00  0.00     0.000 A 
ATOM     11  C   UNL     1       6.068  -0.828   1.457  1.00  0.00     0.000 A 
ATOM     12  C   UNL     1       5.412   0.330   1.813  1.00  0.00     0.000 A 
ENDBRANCH   6   7
ENDBRANCH   1   6
TORSDOF 4
ENDMDL
MODEL 2
REMARK VINA RESULT:      -4.6      3.229      5.038
REMARK SMILES O=C(O)CCc1ccccc1
REMARK SMILES IDX 4 1 2 2 1 3 3 4 5 6 6 7 7 8 11 9 8 10 10 11 9 12
REMARK H PARENT 3 5
REMARK Flexibility Score: inf
ROOT
ATOM      1  C   UNL     1       5.619  -0.765   0.865  1.00  0.00     0.127 C 
ENDROOT
BRANCH   1   2
ATOM      2  C   UNL     1       5.778   0.089   2.066  1.00  0.00     0.303 C 
ATOM      3  O   UNL     1       5.352   1.271   2.085  1.00  0.00    -0.252 OA
BRANCH   2   4
ATOM      4  O   UNL     1       6.402  -0.395   3.204  1.00  0.00    -0.481 OA
ATOM      5  H   UNL     1       5.895  -1.037   3.819  1.00  0.00     0.296 HD
ENDBRANCH   2   4
ENDBRANCH   1   2
BRANCH   1   6
ATOM      6  C   UNL     1       6.921  -1.460   0.606  1.00  0.00     0.047 C 
BRANCH   6   7
ATOM      7  C   UNL     1       7.449  -1.251  -0.741  1.00  0.00    -0.047 A 
ATOM      8  C   UNL     1       7.978  -2.298  -1.459  1.00  0.00     0.004 A 
ATOM      9  C   UNL     1       7.410   0.011  -1.289  1.00  0.00     0.004 A 
ATOM     10  C   UNL     1       8.464  -2.025  -2.740  1.00  0.00     0.000 A 
ATOM     11  C   UNL     1       7.890   0.278  -2.555  1.00  0.00     0.000 A 
ATOM     12  C   UNL     1       8.423  -0.765  -3.281  1.00  0.00     0.000 A 
ENDBRANCH   6   7
ENDBRANCH   1   6
TORSDOF 4
ENDMDL
