@<TRIPOS>MOLECULE
/home/cewinharhar/GITHUB/reincatalyze/data/processed/docking_pred/2023-May-05-1615_maxeplen10_maxtrainstep1000_seadep16_gamma099_lrac9e-4_lrcr1e-3/6d158fe290fd5017d73aec191e5eef2bb245b649_ligand_2.pdbqt
 12 12 0 0 0
SMALL
GASTEIGER

@<TRIPOS>ATOM
      1  C          5.6190   -0.7650    0.8650 C.3     1  UNL1        0.1270
      2  C          5.7780    0.0890    2.0660 C.2     1  UNL1        0.3030
      3  O          5.3520    1.2710    2.0850 O.2     1  UNL1       -0.2520
      4  O          6.4020   -0.3950    3.2040 O.3     1  UNL1       -0.4810
      5  H          5.8950   -1.0370    3.8190 H       1  UNL1        0.2960
      6  C          6.9210   -1.4600    0.6060 C.3     1  UNL1        0.0470
      7  C          7.4490   -1.2510   -0.7410 C.2     1  UNL1       -0.0470
      8  C          7.9780   -2.2980   -1.4590 C.2     1  UNL1        0.0040
      9  C          7.4100    0.0110   -1.2890 C.2     1  UNL1        0.0040
     10  C          8.4640   -2.0250   -2.7400 C.2     1  UNL1        0.0000
     11  C          7.8900    0.2780   -2.5550 C.2     1  UNL1        0.0000
     12  C          8.4230   -0.7650   -3.2810 C.2     1  UNL1        0.0000
@<TRIPOS>BOND
     1    12    10    2
     2    12    11    1
     3    10     8    1
     4    11     9    2
     5     8     7    2
     6     9     7    1
     7     7     6    1
     8     6     1    1
     9     1     2    1
    10     2     3    2
    11     2     4    1
    12     4     5    1
