MODEL 1
REMARK VINA RESULT:      -7.0      0.000      0.000
REMARK SMILES O=C(O)CCc1ccccc1
REMARK SMILES IDX 4 1 2 2 1 3 3 4 5 6 6 7 7 8 11 9 8 10 10 11 9 12
REMARK H PARENT 3 5
REMARK Flexibility Score: inf
ROOT
ATOM      1  C   UNL     1       8.403  -0.664  -2.068  1.00  0.00     0.127 C 
ENDROOT
BRANCH   1   2
ATOM      2  C   UNL     1       8.371  -1.905  -2.878  1.00  0.00     0.303 C 
ATOM      3  O   UNL     1       7.284  -2.411  -3.251  1.00  0.00    -0.252 OA
BRANCH   2   4
ATOM      4  O   UNL     1       9.545  -2.543  -3.245  1.00  0.00    -0.481 OA
ATOM      5  H   UNL     1       9.696  -3.516  -2.964  1.00  0.00     0.296 HD
ENDBRANCH   2   4
ENDBRANCH   1   2
BRANCH   1   6
ATOM      6  C   UNL     1       7.028  -0.069  -2.066  1.00  0.00     0.047 C 
BRANCH   6   7
ATOM      7  C   UNL     1       6.452   0.094  -0.732  1.00  0.00    -0.047 A 
ATOM      8  C   UNL     1       5.799   1.254  -0.385  1.00  0.00     0.004 A 
ATOM      9  C   UNL     1       6.569  -0.930   0.179  1.00  0.00     0.004 A 
ATOM     10  C   UNL     1       5.273   1.340   0.907  1.00  0.00     0.000 A 
ATOM     11  C   UNL     1       6.049  -0.843   1.455  1.00  0.00     0.000 A 
ATOM     12  C   UNL     1       5.393   0.315   1.811  1.00  0.00     0.000 A 
ENDBRANCH   6   7
ENDBRANCH   1   6
TORSDOF 4
ENDMDL
MODEL 2
REMARK VINA RESULT:      -6.8      1.408      2.200
REMARK SMILES O=C(O)CCc1ccccc1
REMARK SMILES IDX 4 1 2 2 1 3 3 4 5 6 6 7 7 8 11 9 8 10 10 11 9 12
REMARK H PARENT 3 5
REMARK Flexibility Score: inf
ROOT
ATOM      1  C   UNL     1       8.273  -0.499  -2.322  1.00  0.00     0.127 C 
ENDROOT
BRANCH   1   2
ATOM      2  C   UNL     1       8.384  -1.833  -2.958  1.00  0.00     0.303 C 
ATOM      3  O   UNL     1       9.494  -2.409  -3.071  1.00  0.00    -0.252 OA
BRANCH   2   4
ATOM      4  O   UNL     1       7.262  -2.482  -3.447  1.00  0.00    -0.481 OA
ATOM      5  H   UNL     1       6.974  -3.370  -3.027  1.00  0.00     0.296 HD
ENDBRANCH   2   4
ENDBRANCH   1   2
BRANCH   1   6
ATOM      6  C   UNL     1       7.015  -0.468  -1.508  1.00  0.00     0.047 C 
BRANCH   6   7
ATOM      7  C   UNL     1       6.836   0.761  -0.737  1.00  0.00    -0.047 A 
ATOM      8  C   UNL     1       7.902   1.354  -0.102  1.00  0.00     0.004 A 
ATOM      9  C   UNL     1       5.584   1.323  -0.652  1.00  0.00     0.004 A 
ATOM     10  C   UNL     1       7.658   2.527   0.616  1.00  0.00     0.000 A 
ATOM     11  C   UNL     1       5.344   2.483   0.058  1.00  0.00     0.000 A 
ATOM     12  C   UNL     1       6.406   3.083   0.698  1.00  0.00     0.000 A 
ENDBRANCH   6   7
ENDBRANCH   1   6
TORSDOF 4
ENDMDL
