@<TRIPOS>MOLECULE
/home/cewinharhar/GITHUB/reincatalyze/data/processed/docking_pred/2023-May-05-1615_maxeplen10_maxtrainstep1000_seadep16_gamma099_lrac9e-4_lrcr1e-3/6dc168e099aae66a1c19408847f7f9495b2b5216_ligand_2.pdbqt
 12 12 0 0 0
SMALL
GASTEIGER

@<TRIPOS>ATOM
      1  C          8.2730   -0.4990   -2.3220 C.3     1  UNL1        0.1270
      2  C          8.3840   -1.8330   -2.9580 C.2     1  UNL1        0.3030
      3  O          9.4940   -2.4090   -3.0710 O.2     1  UNL1       -0.2520
      4  O          7.2620   -2.4820   -3.4470 O.3     1  UNL1       -0.4810
      5  H          6.9740   -3.3700   -3.0270 H       1  UNL1        0.2960
      6  C          7.0150   -0.4680   -1.5080 C.3     1  UNL1        0.0470
      7  C          6.8360    0.7610   -0.7370 C.2     1  UNL1       -0.0470
      8  C          7.9020    1.3540   -0.1020 C.2     1  UNL1        0.0040
      9  C          5.5840    1.3230   -0.6520 C.2     1  UNL1        0.0040
     10  C          7.6580    2.5270    0.6160 C.2     1  UNL1        0.0000
     11  C          5.3440    2.4830    0.0580 C.2     1  UNL1        0.0000
     12  C          6.4060    3.0830    0.6980 C.2     1  UNL1        0.0000
@<TRIPOS>BOND
     1     4     5    1
     2     4     2    1
     3     3     2    2
     4     2     1    1
     5     1     6    1
     6     6     7    1
     7     7     9    2
     8     7     8    1
     9     9    11    1
    10     8    10    2
    11    11    12    2
    12    10    12    1
