@<TRIPOS>MOLECULE
/home/cewinharhar/GITHUB/reincatalyze/data/processed/docking_pred/2023-May-05-1615_maxeplen10_maxtrainstep1000_seadep16_gamma099_lrac9e-4_lrcr1e-3/6dc168e099aae66a1c19408847f7f9495b2b5216_ligand_2.pdbqt
 12 12 0 0 0
SMALL
GASTEIGER

@<TRIPOS>ATOM
      1  C          8.4030   -0.6640   -2.0680 C.3     1  UNL1        0.1270
      2  C          8.3710   -1.9050   -2.8780 C.2     1  UNL1        0.3030
      3  O          7.2840   -2.4110   -3.2510 O.2     1  UNL1       -0.2520
      4  O          9.5450   -2.5430   -3.2450 O.3     1  UNL1       -0.4810
      5  H          9.6960   -3.5160   -2.9640 H       1  UNL1        0.2960
      6  C          7.0280   -0.0690   -2.0660 C.3     1  UNL1        0.0470
      7  C          6.4520    0.0940   -0.7320 C.2     1  UNL1       -0.0470
      8  C          5.7990    1.2540   -0.3850 C.2     1  UNL1        0.0040
      9  C          6.5690   -0.9300    0.1790 C.2     1  UNL1        0.0040
     10  C          5.2730    1.3400    0.9070 C.2     1  UNL1        0.0000
     11  C          6.0490   -0.8430    1.4550 C.2     1  UNL1        0.0000
     12  C          5.3930    0.3150    1.8110 C.2     1  UNL1        0.0000
@<TRIPOS>BOND
     1     3     2    2
     2     4     5    1
     3     4     2    1
     4     2     1    1
     5     1     6    1
     6     6     7    1
     7     7     8    2
     8     7     9    1
     9     8    10    1
    10     9    11    2
    11    10    12    2
    12    11    12    1
