MODEL 1
REMARK VINA RESULT:      -7.3      0.000      0.000
REMARK SMILES O=C(O)CCc1ccccc1
REMARK SMILES IDX 4 1 2 2 1 3 3 4 5 6 6 7 7 8 11 9 8 10 10 11 9 12
REMARK H PARENT 3 5
REMARK Flexibility Score: inf
ROOT
ATOM      1  C   UNL     1       8.400  -0.642  -2.094  1.00  0.00     0.127 C 
ENDROOT
BRANCH   1   2
ATOM      2  C   UNL     1       8.370  -1.897  -2.880  1.00  0.00     0.303 C 
ATOM      3  O   UNL     1       7.284  -2.408  -3.250  1.00  0.00    -0.252 OA
BRANCH   2   4
ATOM      4  O   UNL     1       9.545  -2.545  -3.229  1.00  0.00    -0.481 OA
ATOM      5  H   UNL     1       9.608  -3.561  -3.122  1.00  0.00     0.296 HD
ENDBRANCH   2   4
ENDBRANCH   1   2
BRANCH   1   6
ATOM      6  C   UNL     1       7.019  -0.061  -2.081  1.00  0.00     0.047 C 
BRANCH   6   7
ATOM      7  C   UNL     1       6.456   0.104  -0.742  1.00  0.00    -0.047 A 
ATOM      8  C   UNL     1       5.799   1.261  -0.393  1.00  0.00     0.004 A 
ATOM      9  C   UNL     1       6.588  -0.915   0.173  1.00  0.00     0.004 A 
ATOM     10  C   UNL     1       5.285   1.350   0.903  1.00  0.00     0.000 A 
ATOM     11  C   UNL     1       6.080  -0.826   1.454  1.00  0.00     0.000 A 
ATOM     12  C   UNL     1       5.421   0.331   1.811  1.00  0.00     0.000 A 
ENDBRANCH   6   7
ENDBRANCH   1   6
TORSDOF 4
ENDMDL
MODEL 2
REMARK VINA RESULT:      -7.0      1.022      1.949
REMARK SMILES O=C(O)CCc1ccccc1
REMARK SMILES IDX 4 1 2 2 1 3 3 4 5 6 6 7 7 8 11 9 8 10 10 11 9 12
REMARK H PARENT 3 5
REMARK Flexibility Score: inf
ROOT
ATOM      1  C   UNL     1       7.280  -1.283  -2.156  1.00  0.00     0.127 C 
ENDROOT
BRANCH   1   2
ATOM      2  C   UNL     1       8.720  -1.344  -2.501  1.00  0.00     0.303 C 
ATOM      3  O   UNL     1       9.528  -0.480  -2.077  1.00  0.00    -0.252 OA
BRANCH   2   4
ATOM      4  O   UNL     1       9.216  -2.359  -3.304  1.00  0.00    -0.481 OA
ATOM      5  H   UNL     1       9.659  -2.121  -4.196  1.00  0.00     0.296 HD
ENDBRANCH   2   4
ENDBRANCH   1   2
BRANCH   1   6
ATOM      6  C   UNL     1       7.149  -1.375  -0.666  1.00  0.00     0.047 C 
BRANCH   6   7
ATOM      7  C   UNL     1       6.390  -0.278  -0.068  1.00  0.00    -0.047 A 
ATOM      8  C   UNL     1       5.929  -0.365   1.225  1.00  0.00     0.004 A 
ATOM      9  C   UNL     1       6.141   0.851  -0.813  1.00  0.00     0.004 A 
ATOM     10  C   UNL     1       5.212   0.721   1.733  1.00  0.00     0.000 A 
ATOM     11  C   UNL     1       5.431   1.924  -0.310  1.00  0.00     0.000 A 
ATOM     12  C   UNL     1       4.965   1.844   0.984  1.00  0.00     0.000 A 
ENDBRANCH   6   7
ENDBRANCH   1   6
TORSDOF 4
ENDMDL
