@<TRIPOS>MOLECULE
/home/cewinharhar/GITHUB/reincatalyze/data/processed/docking_pred/2023-May-05-1615_maxeplen10_maxtrainstep1000_seadep16_gamma099_lrac9e-4_lrcr1e-3/6e01533e6265e20f53eb8495178921d7241890ed_ligand_2.pdbqt
 12 12 0 0 0
SMALL
GASTEIGER

@<TRIPOS>ATOM
      1  C          7.2800   -1.2830   -2.1560 C.3     1  UNL1        0.1270
      2  C          8.7200   -1.3440   -2.5010 C.2     1  UNL1        0.3030
      3  O          9.5280   -0.4800   -2.0770 O.2     1  UNL1       -0.2520
      4  O          9.2160   -2.3590   -3.3040 O.3     1  UNL1       -0.4810
      5  H          9.6590   -2.1210   -4.1960 H       1  UNL1        0.2960
      6  C          7.1490   -1.3750   -0.6660 C.3     1  UNL1        0.0470
      7  C          6.3900   -0.2780   -0.0680 C.2     1  UNL1       -0.0470
      8  C          5.9290   -0.3650    1.2250 C.2     1  UNL1        0.0040
      9  C          6.1410    0.8510   -0.8130 C.2     1  UNL1        0.0040
     10  C          5.2120    0.7210    1.7330 C.2     1  UNL1        0.0000
     11  C          5.4310    1.9240   -0.3100 C.2     1  UNL1        0.0000
     12  C          4.9650    1.8440    0.9840 C.2     1  UNL1        0.0000
@<TRIPOS>BOND
     1     5     4    1
     2     4     2    1
     3     2     1    1
     4     2     3    2
     5     1     6    1
     6     9    11    1
     7     9     7    2
     8     6     7    1
     9    11    12    2
    10     7     8    1
    11    12    10    1
    12     8    10    2
