@<TRIPOS>MOLECULE
/home/cewinharhar/GITHUB/reincatalyze/data/processed/docking_pred/2023-May-05-1615_maxeplen10_maxtrainstep1000_seadep16_gamma099_lrac9e-4_lrcr1e-3/6e6a373552f8835a6ba7a6c6fa001d8bbefa4498_ligand_2.pdbqt
 12 12 0 0 0
SMALL
GASTEIGER

@<TRIPOS>ATOM
      1  C          5.5220    1.3990   -0.2670 C.3     1  UNL1        0.1270
      2  C          5.3360    1.7570    1.1590 C.2     1  UNL1        0.3030
      3  O          5.6100    2.9080    1.5820 O.2     1  UNL1       -0.2520
      4  O          4.8550    0.8280    2.0680 O.3     1  UNL1       -0.4810
      5  H          3.8470    0.6610    2.1270 H       1  UNL1        0.2960
      6  C          6.3610    0.1590   -0.3350 C.3     1  UNL1        0.0470
      7  C          7.5440    0.2880   -1.1850 C.2     1  UNL1       -0.0470
      8  C          7.4950   -0.0570   -2.5150 C.2     1  UNL1        0.0040
      9  C          8.7130    0.7640   -0.6390 C.2     1  UNL1        0.0040
     10  C          8.6620    0.0930   -3.2680 C.2     1  UNL1        0.0000
     11  C          9.8670    0.9120   -1.3840 C.2     1  UNL1        0.0000
     12  C          9.8260    0.5670   -2.7180 C.2     1  UNL1        0.0000
@<TRIPOS>BOND
     1    10    12    2
     2    10     8    1
     3    12    11    1
     4     8     7    2
     5    11     9    2
     6     7     9    1
     7     7     6    1
     8     6     1    1
     9     1     2    1
    10     2     3    2
    11     2     4    1
    12     4     5    1
