@<TRIPOS>MOLECULE
/home/cewinharhar/GITHUB/reincatalyze/data/processed/docking_pred/2023-May-05-1615_maxeplen10_maxtrainstep1000_seadep16_gamma099_lrac9e-4_lrcr1e-3/6e6a373552f8835a6ba7a6c6fa001d8bbefa4498_ligand_2.pdbqt
 12 12 0 0 0
SMALL
GASTEIGER

@<TRIPOS>ATOM
      1  C          8.6810   -0.1990   -3.2050 C.3     1  UNL1        0.1270
      2  C          8.6790   -1.6800   -3.2480 C.2     1  UNL1        0.3030
      3  O          9.7520   -2.3330   -3.2450 O.2     1  UNL1       -0.2520
      4  O          7.4890   -2.3870   -3.2930 O.3     1  UNL1       -0.4810
      5  H          7.1310   -2.8210   -2.4370 H       1  UNL1        0.2960
      6  C          9.1580    0.2320   -1.8510 C.3     1  UNL1        0.0470
      7  C          8.1460    0.1240   -0.8020 C.2     1  UNL1       -0.0470
      8  C          8.4000   -0.5860    0.3490 C.2     1  UNL1        0.0040
      9  C          6.9310    0.7440   -0.9750 C.2     1  UNL1        0.0040
     10  C          7.3880   -0.6470    1.3090 C.2     1  UNL1        0.0000
     11  C          5.9310    0.6820   -0.0250 C.2     1  UNL1        0.0000
     12  C          6.1760   -0.0280    1.1310 C.2     1  UNL1        0.0000
@<TRIPOS>BOND
     1     4     2    1
     2     4     5    1
     3     2     3    2
     4     2     1    1
     5     1     6    1
     6     6     7    1
     7     9     7    2
     8     9    11    1
     9     7     8    1
    10    11    12    2
    11     8    10    2
    12    12    10    1
