@<TRIPOS>MOLECULE
/home/cewinharhar/GITHUB/reincatalyze/data/processed/docking_pred/2023-May-05-1615_maxeplen10_maxtrainstep1000_seadep16_gamma099_lrac9e-4_lrcr1e-3/72c4800fcc396c08a923544a0defa9269110c5e0_ligand_2.pdbqt
 12 12 0 0 0
SMALL
GASTEIGER

@<TRIPOS>ATOM
      1  C          8.3990   -0.6480   -2.0860 C.3     1  UNL1        0.1270
      2  C          8.3720   -1.8970   -2.8840 C.2     1  UNL1        0.3030
      3  O          7.2860   -2.4120   -3.2490 O.2     1  UNL1       -0.2520
      4  O          9.5480   -2.5320   -3.2480 O.3     1  UNL1       -0.4810
      5  H         10.1100   -2.1450   -4.0110 H       1  UNL1        0.2960
      6  C          7.0190   -0.0640   -2.0780 C.3     1  UNL1        0.0470
      7  C          6.4490    0.0970   -0.7420 C.2     1  UNL1       -0.0470
      8  C          5.7980    1.2560   -0.3900 C.2     1  UNL1        0.0040
      9  C          6.5680   -0.9300    0.1670 C.2     1  UNL1        0.0040
     10  C          5.2770    1.3400    0.9040 C.2     1  UNL1        0.0000
     11  C          6.0530   -0.8450    1.4450 C.2     1  UNL1        0.0000
     12  C          5.4000    0.3140    1.8060 C.2     1  UNL1        0.0000
@<TRIPOS>BOND
     1     5     4    1
     2     3     2    2
     3     4     2    1
     4     2     1    1
     5     1     6    1
     6     6     7    1
     7     7     8    2
     8     7     9    1
     9     8    10    1
    10     9    11    2
    11    10    12    2
    12    11    12    1
