MODEL 1
REMARK VINA RESULT:      -7.0      0.000      0.000
REMARK SMILES O=C(O)CCc1ccccc1
REMARK SMILES IDX 4 1 2 2 1 3 3 4 5 6 6 7 7 8 11 9 8 10 10 11 9 12
REMARK H PARENT 3 5
REMARK Flexibility Score: inf
ROOT
ATOM      1  C   UNL     1       8.399  -0.648  -2.086  1.00  0.00     0.127 C 
ENDROOT
BRANCH   1   2
ATOM      2  C   UNL     1       8.372  -1.897  -2.884  1.00  0.00     0.303 C 
ATOM      3  O   UNL     1       7.286  -2.412  -3.249  1.00  0.00    -0.252 OA
BRANCH   2   4
ATOM      4  O   UNL     1       9.548  -2.532  -3.248  1.00  0.00    -0.481 OA
ATOM      5  H   UNL     1      10.110  -2.145  -4.011  1.00  0.00     0.296 HD
ENDBRANCH   2   4
ENDBRANCH   1   2
BRANCH   1   6
ATOM      6  C   UNL     1       7.019  -0.064  -2.078  1.00  0.00     0.047 C 
BRANCH   6   7
ATOM      7  C   UNL     1       6.449   0.097  -0.742  1.00  0.00    -0.047 A 
ATOM      8  C   UNL     1       5.798   1.256  -0.390  1.00  0.00     0.004 A 
ATOM      9  C   UNL     1       6.568  -0.930   0.167  1.00  0.00     0.004 A 
ATOM     10  C   UNL     1       5.277   1.340   0.904  1.00  0.00     0.000 A 
ATOM     11  C   UNL     1       6.053  -0.845   1.445  1.00  0.00     0.000 A 
ATOM     12  C   UNL     1       5.400   0.314   1.806  1.00  0.00     0.000 A 
ENDBRANCH   6   7
ENDBRANCH   1   6
TORSDOF 4
ENDMDL
MODEL 2
REMARK VINA RESULT:      -6.8      1.420      2.172
REMARK SMILES O=C(O)CCc1ccccc1
REMARK SMILES IDX 4 1 2 2 1 3 3 4 5 6 6 7 7 8 11 9 8 10 10 11 9 12
REMARK H PARENT 3 5
REMARK Flexibility Score: inf
ROOT
ATOM      1  C   UNL     1       8.353  -0.540  -2.273  1.00  0.00     0.127 C 
ENDROOT
BRANCH   1   2
ATOM      2  C   UNL     1       8.428  -1.864  -2.934  1.00  0.00     0.303 C 
ATOM      3  O   UNL     1       9.526  -2.457  -3.080  1.00  0.00    -0.252 OA
BRANCH   2   4
ATOM      4  O   UNL     1       7.286  -2.486  -3.412  1.00  0.00    -0.481 OA
ATOM      5  H   UNL     1       6.409  -2.389  -2.893  1.00  0.00     0.296 HD
ENDBRANCH   2   4
ENDBRANCH   1   2
BRANCH   1   6
ATOM      6  C   UNL     1       6.985  -0.388  -1.680  1.00  0.00     0.047 C 
BRANCH   6   7
ATOM      7  C   UNL     1       6.840   0.780  -0.812  1.00  0.00    -0.047 A 
ATOM      8  C   UNL     1       7.932   1.323  -0.176  1.00  0.00     0.004 A 
ATOM      9  C   UNL     1       5.594   1.336  -0.638  1.00  0.00     0.004 A 
ATOM     10  C   UNL     1       7.720   2.439   0.637  1.00  0.00     0.000 A 
ATOM     11  C   UNL     1       5.386   2.439   0.166  1.00  0.00     0.000 A 
ATOM     12  C   UNL     1       6.475   2.989   0.808  1.00  0.00     0.000 A 
ENDBRANCH   6   7
ENDBRANCH   1   6
TORSDOF 4
ENDMDL
