@<TRIPOS>MOLECULE
/home/cewinharhar/GITHUB/reincatalyze/data/processed/docking_pred/2023-May-05-1615_maxeplen10_maxtrainstep1000_seadep16_gamma099_lrac9e-4_lrcr1e-3/72c4800fcc396c08a923544a0defa9269110c5e0_ligand_2.pdbqt
 12 12 0 0 0
SMALL
GASTEIGER

@<TRIPOS>ATOM
      1  C          8.3530   -0.5400   -2.2730 C.3     1  UNL1        0.1270
      2  C          8.4280   -1.8640   -2.9340 C.2     1  UNL1        0.3030
      3  O          9.5260   -2.4570   -3.0800 O.2     1  UNL1       -0.2520
      4  O          7.2860   -2.4860   -3.4120 O.3     1  UNL1       -0.4810
      5  H          6.4090   -2.3890   -2.8930 H       1  UNL1        0.2960
      6  C          6.9850   -0.3880   -1.6800 C.3     1  UNL1        0.0470
      7  C          6.8400    0.7800   -0.8120 C.2     1  UNL1       -0.0470
      8  C          7.9320    1.3230   -0.1760 C.2     1  UNL1        0.0040
      9  C          5.5940    1.3360   -0.6380 C.2     1  UNL1        0.0040
     10  C          7.7200    2.4390    0.6370 C.2     1  UNL1        0.0000
     11  C          5.3860    2.4390    0.1660 C.2     1  UNL1        0.0000
     12  C          6.4750    2.9890    0.8080 C.2     1  UNL1        0.0000
@<TRIPOS>BOND
     1     4     2    1
     2     4     5    1
     3     3     2    2
     4     2     1    1
     5     1     6    1
     6     6     7    1
     7     7     9    2
     8     7     8    1
     9     9    11    1
    10     8    10    2
    11    11    12    2
    12    10    12    1
