@<TRIPOS>MOLECULE
/home/cewinharhar/GITHUB/reincatalyze/data/processed/docking_pred/2023-May-05-1615_maxeplen10_maxtrainstep1000_seadep16_gamma099_lrac9e-4_lrcr1e-3/73f03501d88ed0f960f592fe5f6124e73644cb01_ligand_2.pdbqt
 12 12 0 0 0
SMALL
GASTEIGER

@<TRIPOS>ATOM
      1  C          8.4050   -0.6660   -2.0650 C.3     1  UNL1        0.1270
      2  C          8.3750   -1.9070   -2.8740 C.2     1  UNL1        0.3030
      3  O          7.2890   -2.4120   -3.2510 O.2     1  UNL1       -0.2520
      4  O          9.5490   -2.5460   -3.2380 O.3     1  UNL1       -0.4810
      5  H          9.6330   -2.9440   -4.1780 H       1  UNL1        0.2960
      6  C          7.0300   -0.0710   -2.0630 C.3     1  UNL1        0.0470
      7  C          6.4570    0.0980   -0.7290 C.2     1  UNL1       -0.0470
      8  C          5.8040    1.2580   -0.3860 C.2     1  UNL1        0.0040
      9  C          6.5750   -0.9230    0.1860 C.2     1  UNL1        0.0040
     10  C          5.2800    1.3500    0.9060 C.2     1  UNL1        0.0000
     11  C          6.0570   -0.8300    1.4630 C.2     1  UNL1        0.0000
     12  C          5.4020    0.3300    1.8150 C.2     1  UNL1        0.0000
@<TRIPOS>BOND
     1     5     4    1
     2     3     2    2
     3     4     2    1
     4     2     1    1
     5     1     6    1
     6     6     7    1
     7     7     8    2
     8     7     9    1
     9     8    10    1
    10     9    11    2
    11    10    12    2
    12    11    12    1
