@<TRIPOS>MOLECULE
/home/cewinharhar/GITHUB/reincatalyze/data/processed/docking_pred/2023-May-05-1615_maxeplen10_maxtrainstep1000_seadep16_gamma099_lrac9e-4_lrcr1e-3/7473f82790d6809f011fa27bf7bcba9a4b9bdb46_ligand_2.pdbqt
 12 12 0 0 0
SMALL
GASTEIGER

@<TRIPOS>ATOM
      1  C          8.4040   -0.6650   -2.0620 C.3     1  UNL1        0.1270
      2  C          8.3740   -1.9040   -2.8750 C.2     1  UNL1        0.3030
      3  O          7.2870   -2.4120   -3.2460 O.2     1  UNL1       -0.2520
      4  O          9.5480   -2.5380   -3.2470 O.3     1  UNL1       -0.4810
      5  H         10.3360   -2.5570   -2.5930 H       1  UNL1        0.2960
      6  C          7.0300   -0.0680   -2.0630 C.3     1  UNL1        0.0470
      7  C          6.4550    0.1020   -0.7290 C.2     1  UNL1       -0.0470
      8  C          5.8030    1.2640   -0.3880 C.2     1  UNL1        0.0040
      9  C          6.5710   -0.9180    0.1870 C.2     1  UNL1        0.0040
     10  C          5.2780    1.3570    0.9030 C.2     1  UNL1        0.0000
     11  C          6.0520   -0.8230    1.4630 C.2     1  UNL1        0.0000
     12  C          5.3970    0.3380    1.8130 C.2     1  UNL1        0.0000
@<TRIPOS>BOND
     1     4     2    1
     2     4     5    1
     3     3     2    2
     4     2     1    1
     5     6     1    1
     6     6     7    1
     7     7     8    2
     8     7     9    1
     9     8    10    1
    10     9    11    2
    11    10    12    2
    12    11    12    1
