@<TRIPOS>MOLECULE
/home/cewinharhar/GITHUB/reincatalyze/data/processed/docking_pred/2023-May-05-1615_maxeplen10_maxtrainstep1000_seadep16_gamma099_lrac9e-4_lrcr1e-3/76d14433275938f70f74ce69856b36729c59e426_ligand_2.pdbqt
 12 12 0 0 0
SMALL
GASTEIGER

@<TRIPOS>ATOM
      1  C          7.2750   -1.3040   -2.1300 C.3     1  UNL1        0.1270
      2  C          8.7090   -1.3410   -2.5020 C.2     1  UNL1        0.3030
      3  O          9.5130   -0.4730   -2.0820 O.2     1  UNL1       -0.2520
      4  O          9.2030   -2.3380   -3.3280 O.3     1  UNL1       -0.4810
      5  H         10.1810   -2.6240   -3.2380 H       1  UNL1        0.2960
      6  C          7.1750   -1.3690   -0.6360 C.3     1  UNL1        0.0470
      7  C          6.3960   -0.2830   -0.0450 C.2     1  UNL1       -0.0470
      8  C          5.9300   -0.3740    1.2470 C.2     1  UNL1        0.0040
      9  C          6.1320    0.8400   -0.7950 C.2     1  UNL1        0.0040
     10  C          5.1930    0.7020    1.7470 C.2     1  UNL1        0.0000
     11  C          5.4030    1.9020   -0.2980 C.2     1  UNL1        0.0000
     12  C          4.9320    1.8190    0.9940 C.2     1  UNL1        0.0000
@<TRIPOS>BOND
     1     4     5    1
     2     4     2    1
     3     2     1    1
     4     2     3    2
     5     1     6    1
     6     9    11    1
     7     9     7    2
     8     6     7    1
     9    11    12    2
    10     7     8    1
    11    12    10    1
    12     8    10    2
