@<TRIPOS>MOLECULE
/home/cewinharhar/GITHUB/reincatalyze/data/processed/docking_pred/2023-May-05-1615_maxeplen10_maxtrainstep1000_seadep16_gamma099_lrac9e-4_lrcr1e-3/76d14433275938f70f74ce69856b36729c59e426_ligand_2.pdbqt
 12 12 0 0 0
SMALL
GASTEIGER

@<TRIPOS>ATOM
      1  C          8.4060   -0.6650   -2.0650 C.3     1  UNL1        0.1270
      2  C          8.3730   -1.9070   -2.8720 C.2     1  UNL1        0.3030
      3  O          7.2860   -2.4080   -3.2520 O.2     1  UNL1       -0.2520
      4  O          9.5460   -2.5530   -3.2300 O.3     1  UNL1       -0.4810
      5  H          9.6640   -3.5430   -2.9980 H       1  UNL1        0.2960
      6  C          7.0310   -0.0680   -2.0630 C.3     1  UNL1        0.0470
      7  C          6.4600    0.1030   -0.7290 C.2     1  UNL1       -0.0470
      8  C          5.8050    1.2640   -0.3880 C.2     1  UNL1        0.0040
      9  C          6.5810   -0.9140    0.1890 C.2     1  UNL1        0.0040
     10  C          5.2830    1.3580    0.9040 C.2     1  UNL1        0.0000
     11  C          6.0650   -0.8190    1.4660 C.2     1  UNL1        0.0000
     12  C          5.4080    0.3410    1.8160 C.2     1  UNL1        0.0000
@<TRIPOS>BOND
     1     3     2    2
     2     4     5    1
     3     4     2    1
     4     2     1    1
     5     1     6    1
     6     6     7    1
     7     7     8    2
     8     7     9    1
     9     8    10    1
    10     9    11    2
    11    10    12    2
    12    11    12    1
