MODEL 1
REMARK VINA RESULT:      -7.2      0.000      0.000
REMARK SMILES O=C(O)CCc1ccccc1
REMARK SMILES IDX 4 1 2 2 1 3 3 4 5 6 6 7 7 8 11 9 8 10 10 11 9 12
REMARK H PARENT 3 5
REMARK Flexibility Score: inf
ROOT
ATOM      1  C   UNL     1       8.406  -0.665  -2.065  1.00  0.00     0.127 C 
ENDROOT
BRANCH   1   2
ATOM      2  C   UNL     1       8.373  -1.907  -2.872  1.00  0.00     0.303 C 
ATOM      3  O   UNL     1       7.286  -2.408  -3.252  1.00  0.00    -0.252 OA
BRANCH   2   4
ATOM      4  O   UNL     1       9.546  -2.553  -3.230  1.00  0.00    -0.481 OA
ATOM      5  H   UNL     1       9.664  -3.543  -2.998  1.00  0.00     0.296 HD
ENDBRANCH   2   4
ENDBRANCH   1   2
BRANCH   1   6
ATOM      6  C   UNL     1       7.031  -0.068  -2.063  1.00  0.00     0.047 C 
BRANCH   6   7
ATOM      7  C   UNL     1       6.460   0.103  -0.729  1.00  0.00    -0.047 A 
ATOM      8  C   UNL     1       5.805   1.264  -0.388  1.00  0.00     0.004 A 
ATOM      9  C   UNL     1       6.581  -0.914   0.189  1.00  0.00     0.004 A 
ATOM     10  C   UNL     1       5.283   1.358   0.904  1.00  0.00     0.000 A 
ATOM     11  C   UNL     1       6.065  -0.819   1.466  1.00  0.00     0.000 A 
ATOM     12  C   UNL     1       5.408   0.341   1.816  1.00  0.00     0.000 A 
ENDBRANCH   6   7
ENDBRANCH   1   6
TORSDOF 4
ENDMDL
