MODEL 1
REMARK VINA RESULT:      -7.0      0.000      0.000
REMARK SMILES O=C(O)CCc1ccccc1
REMARK SMILES IDX 4 1 2 2 1 3 3 4 5 6 6 7 7 8 11 9 8 10 10 11 9 12
REMARK H PARENT 3 5
REMARK Flexibility Score: inf
ROOT
ATOM      1  C   UNL     1       8.405  -0.651  -2.076  1.00  0.00     0.127 C 
ENDROOT
BRANCH   1   2
ATOM      2  C   UNL     1       8.378  -1.896  -2.879  1.00  0.00     0.303 C 
ATOM      3  O   UNL     1       7.293  -2.414  -3.241  1.00  0.00    -0.252 OA
BRANCH   2   4
ATOM      4  O   UNL     1       9.555  -2.525  -3.255  1.00  0.00    -0.481 OA
ATOM      5  H   UNL     1       9.536  -3.211  -4.014  1.00  0.00     0.296 HD
ENDBRANCH   2   4
ENDBRANCH   1   2
BRANCH   1   6
ATOM      6  C   UNL     1       7.028  -0.061  -2.075  1.00  0.00     0.047 C 
BRANCH   6   7
ATOM      7  C   UNL     1       6.453   0.105  -0.741  1.00  0.00    -0.047 A 
ATOM      8  C   UNL     1       5.799   1.265  -0.397  1.00  0.00     0.004 A 
ATOM      9  C   UNL     1       6.572  -0.916   0.174  1.00  0.00     0.004 A 
ATOM     10  C   UNL     1       5.274   1.355   0.895  1.00  0.00     0.000 A 
ATOM     11  C   UNL     1       6.053  -0.825   1.450  1.00  0.00     0.000 A 
ATOM     12  C   UNL     1       5.397   0.334   1.803  1.00  0.00     0.000 A 
ENDBRANCH   6   7
ENDBRANCH   1   6
TORSDOF 4
ENDMDL
MODEL 2
REMARK VINA RESULT:      -6.8      1.409      2.182
REMARK SMILES O=C(O)CCc1ccccc1
REMARK SMILES IDX 4 1 2 2 1 3 3 4 5 6 6 7 7 8 11 9 8 10 10 11 9 12
REMARK H PARENT 3 5
REMARK Flexibility Score: inf
ROOT
ATOM      1  C   UNL     1       8.323  -0.532  -2.282  1.00  0.00     0.127 C 
ENDROOT
BRANCH   1   2
ATOM      2  C   UNL     1       8.415  -1.856  -2.940  1.00  0.00     0.303 C 
ATOM      3  O   UNL     1       9.518  -2.441  -3.076  1.00  0.00    -0.252 OA
BRANCH   2   4
ATOM      4  O   UNL     1       7.281  -2.487  -3.426  1.00  0.00    -0.481 OA
ATOM      5  H   UNL     1       6.518  -2.713  -2.781  1.00  0.00     0.296 HD
ENDBRANCH   2   4
ENDBRANCH   1   2
BRANCH   1   6
ATOM      6  C   UNL     1       7.000  -0.443  -1.585  1.00  0.00     0.047 C 
BRANCH   6   7
ATOM      7  C   UNL     1       6.834   0.764  -0.776  1.00  0.00    -0.047 A 
ATOM      8  C   UNL     1       7.909   1.334  -0.135  1.00  0.00     0.004 A 
ATOM      9  C   UNL     1       5.585   1.329  -0.662  1.00  0.00     0.004 A 
ATOM     10  C   UNL     1       7.678   2.487   0.620  1.00  0.00     0.000 A 
ATOM     11  C   UNL     1       5.358   2.468   0.084  1.00  0.00     0.000 A 
ATOM     12  C   UNL     1       6.429   3.046   0.730  1.00  0.00     0.000 A 
ENDBRANCH   6   7
ENDBRANCH   1   6
TORSDOF 4
ENDMDL
