@<TRIPOS>MOLECULE
/home/cewinharhar/GITHUB/reincatalyze/data/processed/docking_pred/2023-May-05-1615_maxeplen10_maxtrainstep1000_seadep16_gamma099_lrac9e-4_lrcr1e-3/777751631f294be45381376aa4be6161cfc72981_ligand_2.pdbqt
 12 12 0 0 0
SMALL
GASTEIGER

@<TRIPOS>ATOM
      1  C          8.3230   -0.5320   -2.2820 C.3     1  UNL1        0.1270
      2  C          8.4150   -1.8560   -2.9400 C.2     1  UNL1        0.3030
      3  O          9.5180   -2.4410   -3.0760 O.2     1  UNL1       -0.2520
      4  O          7.2810   -2.4870   -3.4260 O.3     1  UNL1       -0.4810
      5  H          6.5180   -2.7130   -2.7810 H       1  UNL1        0.2960
      6  C          7.0000   -0.4430   -1.5850 C.3     1  UNL1        0.0470
      7  C          6.8340    0.7640   -0.7760 C.2     1  UNL1       -0.0470
      8  C          7.9090    1.3340   -0.1350 C.2     1  UNL1        0.0040
      9  C          5.5850    1.3290   -0.6620 C.2     1  UNL1        0.0040
     10  C          7.6780    2.4870    0.6200 C.2     1  UNL1        0.0000
     11  C          5.3580    2.4680    0.0840 C.2     1  UNL1        0.0000
     12  C          6.4290    3.0460    0.7300 C.2     1  UNL1        0.0000
@<TRIPOS>BOND
     1     4     2    1
     2     4     5    1
     3     3     2    2
     4     2     1    1
     5     1     6    1
     6     6     7    1
     7     7     9    2
     8     7     8    1
     9     9    11    1
    10     8    10    2
    11    11    12    2
    12    10    12    1
