MODEL 1
REMARK VINA RESULT:      -7.2      0.000      0.000
REMARK SMILES O=C(O)CCc1ccccc1
REMARK SMILES IDX 4 1 2 2 1 3 3 4 5 6 6 7 7 8 11 9 8 10 10 11 9 12
REMARK H PARENT 3 5
REMARK Flexibility Score: inf
ROOT
ATOM      1  C   UNL     1       8.551  -0.591  -2.281  1.00  0.00     0.127 C 
ENDROOT
BRANCH   1   2
ATOM      2  C   UNL     1       8.543  -1.913  -2.951  1.00  0.00     0.303 C 
ATOM      3  O   UNL     1       9.604  -2.564  -3.118  1.00  0.00    -0.252 OA
BRANCH   2   4
ATOM      4  O   UNL     1       7.361  -2.467  -3.415  1.00  0.00    -0.481 OA
ATOM      5  H   UNL     1       6.559  -1.857  -3.596  1.00  0.00     0.296 HD
ENDBRANCH   2   4
ENDBRANCH   1   2
BRANCH   1   6
ATOM      6  C   UNL     1       7.137  -0.105  -2.182  1.00  0.00     0.047 C 
BRANCH   6   7
ATOM      7  C   UNL     1       6.728   0.262  -0.827  1.00  0.00    -0.047 A 
ATOM      8  C   UNL     1       5.758   1.214  -0.619  1.00  0.00     0.004 A 
ATOM      9  C   UNL     1       7.325  -0.360   0.245  1.00  0.00     0.004 A 
ATOM     10  C   UNL     1       5.416   1.514   0.702  1.00  0.00     0.000 A 
ATOM     11  C   UNL     1       6.986  -0.063   1.550  1.00  0.00     0.000 A 
ATOM     12  C   UNL     1       6.016   0.891   1.768  1.00  0.00     0.000 A 
ENDBRANCH   6   7
ENDBRANCH   1   6
TORSDOF 4
ENDMDL
MODEL 2
REMARK VINA RESULT:      -6.9      3.325      5.109
REMARK SMILES O=C(O)CCc1ccccc1
REMARK SMILES IDX 4 1 2 2 1 3 3 4 5 6 6 7 7 8 11 9 8 10 10 11 9 12
REMARK H PARENT 3 5
REMARK Flexibility Score: inf
ROOT
ATOM      1  C   UNL     1       5.028   1.779   0.654  1.00  0.00     0.127 C 
ENDROOT
BRANCH   1   2
ATOM      2  C   UNL     1       4.572   1.119   1.900  1.00  0.00     0.303 C 
ATOM      3  O   UNL     1       3.447   1.374   2.397  1.00  0.00    -0.252 OA
BRANCH   2   4
ATOM      4  O   UNL     1       5.377   0.200   2.553  1.00  0.00    -0.481 OA
ATOM      5  H   UNL     1       5.357   0.153   3.575  1.00  0.00     0.296 HD
ENDBRANCH   2   4
ENDBRANCH   1   2
BRANCH   1   6
ATOM      6  C   UNL     1       6.525   1.843   0.676  1.00  0.00     0.047 C 
BRANCH   6   7
ATOM      7  C   UNL     1       7.169   1.058  -0.375  1.00  0.00    -0.047 A 
ATOM      8  C   UNL     1       8.501   1.236  -0.671  1.00  0.00     0.004 A 
ATOM      9  C   UNL     1       6.428   0.131  -1.070  1.00  0.00     0.004 A 
ATOM     10  C   UNL     1       9.051   0.451  -1.686  1.00  0.00     0.000 A 
ATOM     11  C   UNL     1       6.973  -0.645  -2.075  1.00  0.00     0.000 A 
ATOM     12  C   UNL     1       8.306  -0.471  -2.377  1.00  0.00     0.000 A 
ENDBRANCH   6   7
ENDBRANCH   1   6
TORSDOF 4
ENDMDL
