@<TRIPOS>MOLECULE
/home/cewinharhar/GITHUB/reincatalyze/data/processed/docking_pred/2023-May-05-1615_maxeplen10_maxtrainstep1000_seadep16_gamma099_lrac9e-4_lrcr1e-3/79094ef31ed65e340e791eab6f4e997ef8bc8970_ligand_2.pdbqt
 12 12 0 0 0
SMALL
GASTEIGER

@<TRIPOS>ATOM
      1  C          5.0280    1.7790    0.6540 C.3     1  UNL1        0.1270
      2  C          4.5720    1.1190    1.9000 C.2     1  UNL1        0.3030
      3  O          3.4470    1.3740    2.3970 O.2     1  UNL1       -0.2520
      4  O          5.3770    0.2000    2.5530 O.3     1  UNL1       -0.4810
      5  H          5.3570    0.1530    3.5750 H       1  UNL1        0.2960
      6  C          6.5250    1.8430    0.6760 C.3     1  UNL1        0.0470
      7  C          7.1690    1.0580   -0.3750 C.2     1  UNL1       -0.0470
      8  C          8.5010    1.2360   -0.6710 C.2     1  UNL1        0.0040
      9  C          6.4280    0.1310   -1.0700 C.2     1  UNL1        0.0040
     10  C          9.0510    0.4510   -1.6860 C.2     1  UNL1        0.0000
     11  C          6.9730   -0.6450   -2.0750 C.2     1  UNL1        0.0000
     12  C          8.3060   -0.4710   -2.3770 C.2     1  UNL1        0.0000
@<TRIPOS>BOND
     1    12    11    2
     2    12    10    1
     3    11     9    1
     4    10     8    2
     5     9     7    2
     6     8     7    1
     7     7     6    1
     8     1     6    1
     9     1     2    1
    10     2     3    2
    11     2     4    1
    12     4     5    1
