@<TRIPOS>MOLECULE
/home/cewinharhar/GITHUB/reincatalyze/data/processed/docking_pred/2023-May-05-1615_maxeplen10_maxtrainstep1000_seadep16_gamma099_lrac9e-4_lrcr1e-3/79094ef31ed65e340e791eab6f4e997ef8bc8970_ligand_2.pdbqt
 12 12 0 0 0
SMALL
GASTEIGER

@<TRIPOS>ATOM
      1  C          8.5510   -0.5910   -2.2810 C.3     1  UNL1        0.1270
      2  C          8.5430   -1.9130   -2.9510 C.2     1  UNL1        0.3030
      3  O          9.6040   -2.5640   -3.1180 O.2     1  UNL1       -0.2520
      4  O          7.3610   -2.4670   -3.4150 O.3     1  UNL1       -0.4810
      5  H          6.5590   -1.8570   -3.5960 H       1  UNL1        0.2960
      6  C          7.1370   -0.1050   -2.1820 C.3     1  UNL1        0.0470
      7  C          6.7280    0.2620   -0.8270 C.2     1  UNL1       -0.0470
      8  C          5.7580    1.2140   -0.6190 C.2     1  UNL1        0.0040
      9  C          7.3250   -0.3600    0.2450 C.2     1  UNL1        0.0040
     10  C          5.4160    1.5140    0.7020 C.2     1  UNL1        0.0000
     11  C          6.9860   -0.0630    1.5500 C.2     1  UNL1        0.0000
     12  C          6.0160    0.8910    1.7680 C.2     1  UNL1        0.0000
@<TRIPOS>BOND
     1     5     4    1
     2     4     2    1
     3     3     2    2
     4     2     1    1
     5     1     6    1
     6     6     7    1
     7     7     8    2
     8     7     9    1
     9     8    10    1
    10     9    11    2
    11    10    12    2
    12    11    12    1
