@<TRIPOS>MOLECULE
/home/cewinharhar/GITHUB/reincatalyze/data/processed/docking_pred/2023-May-05-1615_maxeplen10_maxtrainstep1000_seadep16_gamma099_lrac9e-4_lrcr1e-3/79495f175fd15f32955b26bb978cae7af324a937_ligand_2.pdbqt
 12 12 0 0 0
SMALL
GASTEIGER

@<TRIPOS>ATOM
      1  C          8.4070   -0.6550   -2.0770 C.3     1  UNL1        0.1270
      2  C          8.3760   -1.9010   -2.8790 C.2     1  UNL1        0.3030
      3  O          7.2890   -2.4150   -3.2420 O.2     1  UNL1       -0.2520
      4  O          9.5510   -2.5340   -3.2520 O.3     1  UNL1       -0.4810
      5  H          9.5310   -3.2210   -4.0100 H       1  UNL1        0.2960
      6  C          7.0290   -0.0650   -2.0720 C.3     1  UNL1        0.0470
      7  C          6.4590    0.1020   -0.7370 C.2     1  UNL1       -0.0470
      8  C          5.8050    1.2620   -0.3910 C.2     1  UNL1        0.0040
      9  C          6.5800   -0.9180    0.1780 C.2     1  UNL1        0.0040
     10  C          5.2840    1.3520    0.9010 C.2     1  UNL1        0.0000
     11  C          6.0640   -0.8270    1.4550 C.2     1  UNL1        0.0000
     12  C          5.4080    0.3320    1.8090 C.2     1  UNL1        0.0000
@<TRIPOS>BOND
     1     5     4    1
     2     4     2    1
     3     3     2    2
     4     2     1    1
     5     1     6    1
     6     6     7    1
     7     7     8    2
     8     7     9    1
     9     8    10    1
    10     9    11    2
    11    10    12    2
    12    11    12    1
