@<TRIPOS>MOLECULE
/home/cewinharhar/GITHUB/reincatalyze/data/processed/docking_pred/2023-May-05-1615_maxeplen10_maxtrainstep1000_seadep16_gamma099_lrac9e-4_lrcr1e-3/7ac8f9624e71b352d93dccd4dc48cb56e96c53c0_ligand_2.pdbqt
 12 12 0 0 0
SMALL
GASTEIGER

@<TRIPOS>ATOM
      1  C          8.4050   -0.6650   -2.0650 C.3     1  UNL1        0.1270
      2  C          8.3740   -1.9030   -2.8800 C.2     1  UNL1        0.3030
      3  O          7.2870   -2.4110   -3.2500 O.2     1  UNL1       -0.2520
      4  O          9.5480   -2.5340   -3.2570 O.3     1  UNL1       -0.4810
      5  H         10.3090   -2.6230   -2.5780 H       1  UNL1        0.2960
      6  C          7.0300   -0.0680   -2.0640 C.3     1  UNL1        0.0470
      7  C          6.4570    0.1000   -0.7290 C.2     1  UNL1       -0.0470
      8  C          5.8070    1.2630   -0.3850 C.2     1  UNL1        0.0040
      9  C          6.5710   -0.9210    0.1840 C.2     1  UNL1        0.0040
     10  C          5.2830    1.3540    0.9070 C.2     1  UNL1        0.0000
     11  C          6.0530   -0.8290    1.4610 C.2     1  UNL1        0.0000
     12  C          5.4010    0.3320    1.8140 C.2     1  UNL1        0.0000
@<TRIPOS>BOND
     1     4     2    1
     2     4     5    1
     3     3     2    2
     4     2     1    1
     5     1     6    1
     6     6     7    1
     7     7     8    2
     8     7     9    1
     9     8    10    1
    10     9    11    2
    11    10    12    2
    12    11    12    1
