@<TRIPOS>MOLECULE
/home/cewinharhar/GITHUB/reincatalyze/data/processed/docking_pred/2023-May-05-1615_maxeplen10_maxtrainstep1000_seadep16_gamma099_lrac9e-4_lrcr1e-3/7c86502248d8ce059d377094dc2c2500eee92fd7_ligand_2.pdbqt
 12 12 0 0 0
SMALL
GASTEIGER

@<TRIPOS>ATOM
      1  C          8.3980   -0.6500   -2.0830 C.3     1  UNL1        0.1270
      2  C          8.3690   -1.9010   -2.8770 C.2     1  UNL1        0.3030
      3  O          7.2830   -2.4070   -3.2540 O.2     1  UNL1       -0.2520
      4  O          9.5430   -2.5480   -3.2250 O.3     1  UNL1       -0.4810
      5  H          9.7660   -3.4490   -2.7940 H       1  UNL1        0.2960
      6  C          7.0180   -0.0660   -2.0730 C.3     1  UNL1        0.0470
      7  C          6.4540    0.1040   -0.7350 C.2     1  UNL1       -0.0470
      8  C          5.7970    1.2630   -0.3910 C.2     1  UNL1        0.0040
      9  C          6.5830   -0.9130    0.1820 C.2     1  UNL1        0.0040
     10  C          5.2830    1.3560    0.9040 C.2     1  UNL1        0.0000
     11  C          6.0740   -0.8190    1.4620 C.2     1  UNL1        0.0000
     12  C          5.4160    0.3390    1.8160 C.2     1  UNL1        0.0000
@<TRIPOS>BOND
     1     3     2    2
     2     4     2    1
     3     4     5    1
     4     2     1    1
     5     1     6    1
     6     6     7    1
     7     7     8    2
     8     7     9    1
     9     8    10    1
    10     9    11    2
    11    10    12    2
    12    11    12    1
