@<TRIPOS>MOLECULE
/home/cewinharhar/GITHUB/reincatalyze/data/processed/docking_pred/2023-May-05-1615_maxeplen10_maxtrainstep1000_seadep16_gamma099_lrac9e-4_lrcr1e-3/7ff2a118a63670e32b3229f93cb76c105bf9ebe4_ligand_2.pdbqt
 12 12 0 0 0
SMALL
GASTEIGER

@<TRIPOS>ATOM
      1  C          8.4720   -0.6610   -2.0770 C.3     1  UNL1        0.1270
      2  C          8.4820   -1.9050   -2.8830 C.2     1  UNL1        0.3030
      3  O          9.5480   -2.5320   -3.0990 O.2     1  UNL1       -0.2520
      4  O          7.3100   -2.4110   -3.4210 O.3     1  UNL1       -0.4810
      5  H          7.2220   -2.4970   -4.4380 H       1  UNL1        0.2960
      6  C          7.0810   -0.1050   -2.0870 C.3     1  UNL1        0.0470
      7  C          6.4960    0.0580   -0.7570 C.2     1  UNL1       -0.0470
      8  C          5.8530    1.2230   -0.4090 C.2     1  UNL1        0.0040
      9  C          6.5930   -0.9730    0.1490 C.2     1  UNL1        0.0040
     10  C          5.3170    1.3090    0.8780 C.2     1  UNL1        0.0000
     11  C          6.0630   -0.8860    1.4210 C.2     1  UNL1        0.0000
     12  C          5.4180    0.2780    1.7780 C.2     1  UNL1        0.0000
@<TRIPOS>BOND
     1     5     4    1
     2     4     2    1
     3     3     2    2
     4     2     1    1
     5     6     1    1
     6     6     7    1
     7     7     8    2
     8     7     9    1
     9     8    10    1
    10     9    11    2
    11    10    12    2
    12    11    12    1
