@<TRIPOS>MOLECULE
/home/cewinharhar/GITHUB/reincatalyze/data/processed/docking_pred/2023-May-05-1615_maxeplen10_maxtrainstep1000_seadep16_gamma099_lrac9e-4_lrcr1e-3/80b3dd8cd2b2e3944ffcf13b099740dfc166ef97_ligand_2.pdbqt
 12 12 0 0 0
SMALL
GASTEIGER

@<TRIPOS>ATOM
      1  C          5.0250    1.6530    0.6700 C.3     1  UNL1        0.1270
      2  C          4.5670    1.0000    1.9190 C.2     1  UNL1        0.3030
      3  O          5.2690    0.1320    2.4950 O.2     1  UNL1       -0.2520
      4  O          3.3470    1.3300    2.4860 O.3     1  UNL1       -0.4810
      5  H          2.7010    0.5820    2.7550 H       1  UNL1        0.2960
      6  C          6.5220    1.7190    0.6950 C.3     1  UNL1        0.0470
      7  C          7.1690    0.9560   -0.3700 C.2     1  UNL1       -0.0470
      8  C          8.4810    1.1930   -0.7090 C.2     1  UNL1        0.0040
      9  C          6.4500   -0.0110   -1.0350 C.2     1  UNL1        0.0040
     10  C          9.0350    0.4250   -1.7360 C.2     1  UNL1        0.0000
     11  C          6.9990   -0.7690   -2.0500 C.2     1  UNL1        0.0000
     12  C          8.3130   -0.5370   -2.3960 C.2     1  UNL1        0.0000
@<TRIPOS>BOND
     1    12    11    2
     2    12    10    1
     3    11     9    1
     4    10     8    2
     5     9     7    2
     6     8     7    1
     7     7     6    1
     8     1     6    1
     9     1     2    1
    10     2     4    1
    11     2     3    2
    12     4     5    1
