@<TRIPOS>MOLECULE
/home/cewinharhar/GITHUB/reincatalyze/data/processed/docking_pred/2023-May-05-1615_maxeplen10_maxtrainstep1000_seadep16_gamma099_lrac9e-4_lrcr1e-3/80b3dd8cd2b2e3944ffcf13b099740dfc166ef97_ligand_2.pdbqt
 12 12 0 0 0
SMALL
GASTEIGER

@<TRIPOS>ATOM
      1  C          8.4070   -0.6650   -2.0660 C.3     1  UNL1        0.1270
      2  C          8.3750   -1.9080   -2.8740 C.2     1  UNL1        0.3030
      3  O          7.2890   -2.4110   -3.2510 O.2     1  UNL1       -0.2520
      4  O          9.5490   -2.5500   -3.2350 O.3     1  UNL1       -0.4810
      5  H         10.1200   -2.1610   -3.9910 H       1  UNL1        0.2960
      6  C          7.0320   -0.0700   -2.0650 C.3     1  UNL1        0.0470
      7  C          6.4590    0.1000   -0.7310 C.2     1  UNL1       -0.0470
      8  C          5.8050    1.2610   -0.3880 C.2     1  UNL1        0.0040
      9  C          6.5790   -0.9190    0.1860 C.2     1  UNL1        0.0040
     10  C          5.2820    1.3540    0.9030 C.2     1  UNL1        0.0000
     11  C          6.0610   -0.8250    1.4630 C.2     1  UNL1        0.0000
     12  C          5.4050    0.3350    1.8140 C.2     1  UNL1        0.0000
@<TRIPOS>BOND
     1     5     4    1
     2     3     2    2
     3     4     2    1
     4     2     1    1
     5     1     6    1
     6     6     7    1
     7     7     8    2
     8     7     9    1
     9     8    10    1
    10     9    11    2
    11    10    12    2
    12    11    12    1
