@<TRIPOS>MOLECULE
/home/cewinharhar/GITHUB/reincatalyze/data/processed/docking_pred/2023-May-05-1615_maxeplen10_maxtrainstep1000_seadep16_gamma099_lrac9e-4_lrcr1e-3/80c9945afd0f5f9f0270d56cce32b054e5c09707_ligand_2.pdbqt
 12 12 0 0 0
SMALL
GASTEIGER

@<TRIPOS>ATOM
      1  C          8.3730   -0.4200   -2.1170 C.3     1  UNL1        0.1270
      2  C          8.4680   -1.7200   -2.8220 C.2     1  UNL1        0.3030
      3  O          9.5720   -2.2970   -2.9780 O.2     1  UNL1       -0.2520
      4  O          7.3350   -2.3350   -3.3320 O.3     1  UNL1       -0.4810
      5  H          6.6180   -2.6760   -2.6870 H       1  UNL1        0.2960
      6  C          6.9310   -0.0170   -2.0640 C.3     1  UNL1        0.0470
      7  C          6.4040    0.1290   -0.7080 C.2     1  UNL1       -0.0470
      8  C          5.7570    1.2810   -0.3250 C.2     1  UNL1        0.0040
      9  C          6.5610   -0.9040    0.1880 C.2     1  UNL1        0.0040
     10  C          5.2790    1.3500    0.9860 C.2     1  UNL1        0.0000
     11  C          6.0870   -0.8330    1.4830 C.2     1  UNL1        0.0000
     12  C          5.4380    0.3180    1.8750 C.2     1  UNL1        0.0000
@<TRIPOS>BOND
     1     4     2    1
     2     4     5    1
     3     3     2    2
     4     2     1    1
     5     1     6    1
     6     6     7    1
     7     7     8    2
     8     7     9    1
     9     8    10    1
    10     9    11    2
    11    10    12    2
    12    11    12    1
