@<TRIPOS>MOLECULE
/home/cewinharhar/GITHUB/reincatalyze/data/processed/docking_pred/2023-May-05-1615_maxeplen10_maxtrainstep1000_seadep16_gamma099_lrac9e-4_lrcr1e-3/80c9945afd0f5f9f0270d56cce32b054e5c09707_ligand_2.pdbqt
 12 12 0 0 0
SMALL
GASTEIGER

@<TRIPOS>ATOM
      1  C          5.4410    2.9030   -0.0010 C.3     1  UNL1        0.1270
      2  C          6.2270    3.8800    0.7890 C.2     1  UNL1        0.3030
      3  O          6.9060    4.7750    0.2280 O.2     1  UNL1       -0.2520
      4  O          6.2350    3.8310    2.1740 O.3     1  UNL1       -0.4810
      5  H          5.7440    3.0700    2.6510 H       1  UNL1        0.2960
      6  C          4.9280    1.8480    0.9310 C.3     1  UNL1        0.0470
      7  C          5.7110    0.6140    0.9220 C.2     1  UNL1       -0.0470
      8  C          6.3810    0.2150   -0.2120 C.2     1  UNL1        0.0040
      9  C          5.7740   -0.1500    2.0640 C.2     1  UNL1        0.0040
     10  C          7.1100   -0.9750   -0.1490 C.2     1  UNL1        0.0000
     11  C          6.4950   -1.3260    2.1250 C.2     1  UNL1        0.0000
     12  C          7.1690   -1.7330    0.9940 C.2     1  UNL1        0.0000
@<TRIPOS>BOND
     1     8    10    1
     2     8     7    2
     3    10    12    2
     4     1     2    1
     5     1     6    1
     6     3     2    2
     7     2     4    1
     8     7     6    1
     9     7     9    1
    10    12    11    1
    11     9    11    2
    12     4     5    1
