MODEL 1
REMARK VINA RESULT:      -6.7      0.000      0.000
REMARK SMILES O=C(O)CCc1ccccc1
REMARK SMILES IDX 4 1 2 2 1 3 3 4 5 6 6 7 7 8 11 9 8 10 10 11 9 12
REMARK H PARENT 3 5
REMARK Flexibility Score: inf
ROOT
ATOM      1  C   UNL     1       8.373  -0.420  -2.117  1.00  0.00     0.127 C 
ENDROOT
BRANCH   1   2
ATOM      2  C   UNL     1       8.468  -1.720  -2.822  1.00  0.00     0.303 C 
ATOM      3  O   UNL     1       9.572  -2.297  -2.978  1.00  0.00    -0.252 OA
BRANCH   2   4
ATOM      4  O   UNL     1       7.335  -2.335  -3.332  1.00  0.00    -0.481 OA
ATOM      5  H   UNL     1       6.618  -2.676  -2.687  1.00  0.00     0.296 HD
ENDBRANCH   2   4
ENDBRANCH   1   2
BRANCH   1   6
ATOM      6  C   UNL     1       6.931  -0.017  -2.064  1.00  0.00     0.047 C 
BRANCH   6   7
ATOM      7  C   UNL     1       6.404   0.129  -0.708  1.00  0.00    -0.047 A 
ATOM      8  C   UNL     1       5.757   1.281  -0.325  1.00  0.00     0.004 A 
ATOM      9  C   UNL     1       6.561  -0.904   0.188  1.00  0.00     0.004 A 
ATOM     10  C   UNL     1       5.279   1.350   0.986  1.00  0.00     0.000 A 
ATOM     11  C   UNL     1       6.087  -0.833   1.483  1.00  0.00     0.000 A 
ATOM     12  C   UNL     1       5.438   0.318   1.875  1.00  0.00     0.000 A 
ENDBRANCH   6   7
ENDBRANCH   1   6
TORSDOF 4
ENDMDL
MODEL 2
REMARK VINA RESULT:      -6.7      3.738      4.819
REMARK SMILES O=C(O)CCc1ccccc1
REMARK SMILES IDX 4 1 2 2 1 3 3 4 5 6 6 7 7 8 11 9 8 10 10 11 9 12
REMARK H PARENT 3 5
REMARK Flexibility Score: inf
ROOT
ATOM      1  C   UNL     1       5.441   2.903  -0.001  1.00  0.00     0.127 C 
ENDROOT
BRANCH   1   2
ATOM      2  C   UNL     1       6.227   3.880   0.789  1.00  0.00     0.303 C 
ATOM      3  O   UNL     1       6.906   4.775   0.228  1.00  0.00    -0.252 OA
BRANCH   2   4
ATOM      4  O   UNL     1       6.235   3.831   2.174  1.00  0.00    -0.481 OA
ATOM      5  H   UNL     1       5.744   3.070   2.651  1.00  0.00     0.296 HD
ENDBRANCH   2   4
ENDBRANCH   1   2
BRANCH   1   6
ATOM      6  C   UNL     1       4.928   1.848   0.931  1.00  0.00     0.047 C 
BRANCH   6   7
ATOM      7  C   UNL     1       5.711   0.614   0.922  1.00  0.00    -0.047 A 
ATOM      8  C   UNL     1       6.381   0.215  -0.212  1.00  0.00     0.004 A 
ATOM      9  C   UNL     1       5.774  -0.150   2.064  1.00  0.00     0.004 A 
ATOM     10  C   UNL     1       7.110  -0.975  -0.149  1.00  0.00     0.000 A 
ATOM     11  C   UNL     1       6.495  -1.326   2.125  1.00  0.00     0.000 A 
ATOM     12  C   UNL     1       7.169  -1.733   0.994  1.00  0.00     0.000 A 
ENDBRANCH   6   7
ENDBRANCH   1   6
TORSDOF 4
ENDMDL
