@<TRIPOS>MOLECULE
/home/cewinharhar/GITHUB/reincatalyze/data/processed/docking_pred/2023-May-05-1615_maxeplen10_maxtrainstep1000_seadep16_gamma099_lrac9e-4_lrcr1e-3/80ffcc0cdcaea1df7ad243f542ab1163fa4dc1ce_ligand_2.pdbqt
 12 12 0 0 0
SMALL
GASTEIGER

@<TRIPOS>ATOM
      1  C          7.9210   -1.2560    2.3850 C.3     1  UNL1        0.1270
      2  C          8.6940   -2.3120    1.6900 C.2     1  UNL1        0.3030
      3  O          9.9280   -2.4480    1.8800 O.2     1  UNL1       -0.2520
      4  O          8.0740   -3.1820    0.8070 O.3     1  UNL1       -0.4810
      5  H          8.4020   -3.2310   -0.1620 H       1  UNL1        0.2960
      6  C          6.5040   -1.3160    1.9020 C.3     1  UNL1        0.0470
      7  C          6.1140   -0.1860    1.0610 C.2     1  UNL1       -0.0470
      8  C          6.5270   -0.1080   -0.2490 C.2     1  UNL1        0.0040
      9  C          5.3230    0.8060    1.5930 C.2     1  UNL1        0.0040
     10  C          6.1160    0.9990   -0.9940 C.2     1  UNL1        0.0000
     11  C          4.9180    1.9010    0.8550 C.2     1  UNL1        0.0000
     12  C          5.3280    1.9860   -0.4570 C.2     1  UNL1        0.0000
@<TRIPOS>BOND
     1    10    12    2
     2    10     8    1
     3    12    11    1
     4     8     7    2
     5     5     4    1
     6     4     2    1
     7    11     9    2
     8     7     9    1
     9     7     6    1
    10     2     3    2
    11     2     1    1
    12     6     1    1
