@<TRIPOS>MOLECULE
/home/cewinharhar/GITHUB/reincatalyze/data/processed/docking_pred/2023-May-05-1615_maxeplen10_maxtrainstep1000_seadep16_gamma099_lrac9e-4_lrcr1e-3/80ffcc0cdcaea1df7ad243f542ab1163fa4dc1ce_ligand_2.pdbqt
 12 12 0 0 0
SMALL
GASTEIGER

@<TRIPOS>ATOM
      1  C          8.4040   -0.6630   -2.0680 C.3     1  UNL1        0.1270
      2  C          8.3740   -1.9050   -2.8760 C.2     1  UNL1        0.3030
      3  O          7.2870   -2.4110   -3.2510 O.2     1  UNL1       -0.2520
      4  O          9.5480   -2.5430   -3.2400 O.3     1  UNL1       -0.4810
      5  H         10.2270   -2.0480   -3.8250 H       1  UNL1        0.2960
      6  C          7.0280   -0.0700   -2.0660 C.3     1  UNL1        0.0470
      7  C          6.4560    0.1000   -0.7310 C.2     1  UNL1       -0.0470
      8  C          5.8030    1.2610   -0.3870 C.2     1  UNL1        0.0040
      9  C          6.5750   -0.9200    0.1850 C.2     1  UNL1        0.0040
     10  C          5.2810    1.3530    0.9050 C.2     1  UNL1        0.0000
     11  C          6.0580   -0.8280    1.4620 C.2     1  UNL1        0.0000
     12  C          5.4030    0.3330    1.8140 C.2     1  UNL1        0.0000
@<TRIPOS>BOND
     1     5     4    1
     2     3     2    2
     3     4     2    1
     4     2     1    1
     5     1     6    1
     6     6     7    1
     7     7     8    2
     8     7     9    1
     9     8    10    1
    10     9    11    2
    11    10    12    2
    12    11    12    1
