MODEL 1
REMARK VINA RESULT:      -7.0      0.000      0.000
REMARK SMILES O=C(O)CCc1ccccc1
REMARK SMILES IDX 4 1 2 2 1 3 3 4 5 6 6 7 7 8 11 9 8 10 10 11 9 12
REMARK H PARENT 3 5
REMARK Flexibility Score: inf
ROOT
ATOM      1  C   UNL     1       8.447  -0.679  -2.076  1.00  0.00     0.127 C 
ENDROOT
BRANCH   1   2
ATOM      2  C   UNL     1       8.460  -1.927  -2.876  1.00  0.00     0.303 C 
ATOM      3  O   UNL     1       9.523  -2.571  -3.059  1.00  0.00    -0.252 OA
BRANCH   2   4
ATOM      4  O   UNL     1       7.297  -2.418  -3.445  1.00  0.00    -0.481 OA
ATOM      5  H   UNL     1       7.303  -3.346  -3.877  1.00  0.00     0.296 HD
ENDBRANCH   2   4
ENDBRANCH   1   2
BRANCH   1   6
ATOM      6  C   UNL     1       7.048  -0.141  -2.067  1.00  0.00     0.047 C 
BRANCH   6   7
ATOM      7  C   UNL     1       6.476   0.005  -0.729  1.00  0.00    -0.047 A 
ATOM      8  C   UNL     1       6.590  -1.003   0.199  1.00  0.00     0.004 A 
ATOM      9  C   UNL     1       5.821   1.170  -0.403  1.00  0.00     0.004 A 
ATOM     10  C   UNL     1       6.021  -0.794   1.457  1.00  0.00     0.000 A 
ATOM     11  C   UNL     1       5.259   1.376   0.841  1.00  0.00     0.000 A 
ATOM     12  C   UNL     1       5.367   0.370   1.776  1.00  0.00     0.000 A 
ENDBRANCH   6   7
ENDBRANCH   1   6
TORSDOF 4
ENDMDL
MODEL 2
REMARK VINA RESULT:      -6.6      1.379      2.221
REMARK SMILES O=C(O)CCc1ccccc1
REMARK SMILES IDX 4 1 2 2 1 3 3 4 5 6 6 7 7 8 11 9 8 10 10 11 9 12
REMARK H PARENT 3 5
REMARK Flexibility Score: inf
ROOT
ATOM      1  C   UNL     1       8.271  -0.553  -2.174  1.00  0.00     0.127 C 
ENDROOT
BRANCH   1   2
ATOM      2  C   UNL     1       8.300  -1.831  -2.923  1.00  0.00     0.303 C 
ATOM      3  O   UNL     1       7.240  -2.389  -3.298  1.00  0.00    -0.252 OA
BRANCH   2   4
ATOM      4  O   UNL     1       9.503  -2.447  -3.230  1.00  0.00    -0.481 OA
ATOM      5  H   UNL     1      10.083  -2.065  -3.982  1.00  0.00     0.296 HD
ENDBRANCH   2   4
ENDBRANCH   1   2
BRANCH   1   6
ATOM      6  C   UNL     1       6.977  -0.476  -1.424  1.00  0.00     0.047 C 
BRANCH   6   7
ATOM      7  C   UNL     1       6.792   0.771  -0.682  1.00  0.00    -0.047 A 
ATOM      8  C   UNL     1       5.556   1.370  -0.611  1.00  0.00     0.004 A 
ATOM      9  C   UNL     1       7.872   1.342  -0.050  1.00  0.00     0.004 A 
ATOM     10  C   UNL     1       5.453   2.559   0.116  1.00  0.00     0.000 A 
ATOM     11  C   UNL     1       7.769   2.517   0.668  1.00  0.00     0.000 A 
ATOM     12  C   UNL     1       6.535   3.124   0.744  1.00  0.00     0.000 A 
ENDBRANCH   6   7
ENDBRANCH   1   6
TORSDOF 4
ENDMDL
