@<TRIPOS>MOLECULE
/home/cewinharhar/GITHUB/reincatalyze/data/processed/docking_pred/2023-May-05-1615_maxeplen10_maxtrainstep1000_seadep16_gamma099_lrac9e-4_lrcr1e-3/81487a167534eaf1a49a57d95a0bec7d9495d7bd_ligand_2.pdbqt
 12 12 0 0 0
SMALL
GASTEIGER

@<TRIPOS>ATOM
      1  C          8.2710   -0.5530   -2.1740 C.3     1  UNL1        0.1270
      2  C          8.3000   -1.8310   -2.9230 C.2     1  UNL1        0.3030
      3  O          7.2400   -2.3890   -3.2980 O.2     1  UNL1       -0.2520
      4  O          9.5030   -2.4470   -3.2300 O.3     1  UNL1       -0.4810
      5  H         10.0830   -2.0650   -3.9820 H       1  UNL1        0.2960
      6  C          6.9770   -0.4760   -1.4240 C.3     1  UNL1        0.0470
      7  C          6.7920    0.7710   -0.6820 C.2     1  UNL1       -0.0470
      8  C          5.5560    1.3700   -0.6110 C.2     1  UNL1        0.0040
      9  C          7.8720    1.3420   -0.0500 C.2     1  UNL1        0.0040
     10  C          5.4530    2.5590    0.1160 C.2     1  UNL1        0.0000
     11  C          7.7690    2.5170    0.6680 C.2     1  UNL1        0.0000
     12  C          6.5350    3.1240    0.7440 C.2     1  UNL1        0.0000
@<TRIPOS>BOND
     1     5     4    1
     2     3     2    2
     3     4     2    1
     4     2     1    1
     5     1     6    1
     6     6     7    1
     7     7     8    2
     8     7     9    1
     9     8    10    1
    10     9    11    2
    11    10    12    2
    12    11    12    1
