@<TRIPOS>MOLECULE
/home/cewinharhar/GITHUB/reincatalyze/data/processed/docking_pred/2023-May-05-1615_maxeplen10_maxtrainstep1000_seadep16_gamma099_lrac9e-4_lrcr1e-3/81487a167534eaf1a49a57d95a0bec7d9495d7bd_ligand_2.pdbqt
 12 12 0 0 0
SMALL
GASTEIGER

@<TRIPOS>ATOM
      1  C          8.4470   -0.6790   -2.0760 C.3     1  UNL1        0.1270
      2  C          8.4600   -1.9270   -2.8760 C.2     1  UNL1        0.3030
      3  O          9.5230   -2.5710   -3.0590 O.2     1  UNL1       -0.2520
      4  O          7.2970   -2.4180   -3.4450 O.3     1  UNL1       -0.4810
      5  H          7.3030   -3.3460   -3.8770 H       1  UNL1        0.2960
      6  C          7.0480   -0.1410   -2.0670 C.3     1  UNL1        0.0470
      7  C          6.4760    0.0050   -0.7290 C.2     1  UNL1       -0.0470
      8  C          6.5900   -1.0030    0.1990 C.2     1  UNL1        0.0040
      9  C          5.8210    1.1700   -0.4030 C.2     1  UNL1        0.0040
     10  C          6.0210   -0.7940    1.4570 C.2     1  UNL1        0.0000
     11  C          5.2590    1.3760    0.8410 C.2     1  UNL1        0.0000
     12  C          5.3670    0.3700    1.7760 C.2     1  UNL1        0.0000
@<TRIPOS>BOND
     1     5     4    1
     2     4     2    1
     3     3     2    2
     4     2     1    1
     5     1     6    1
     6     6     7    1
     7     7     9    2
     8     7     8    1
     9     9    11    1
    10     8    10    2
    11    11    12    2
    12    10    12    1
