@<TRIPOS>MOLECULE
/home/cewinharhar/GITHUB/reincatalyze/data/processed/docking_pred/2023-May-05-1615_maxeplen10_maxtrainstep1000_seadep16_gamma099_lrac9e-4_lrcr1e-3/82066193004a6cdbe54a2a950d109d8cafa96b54_ligand_2.pdbqt
 12 12 0 0 0
SMALL
GASTEIGER

@<TRIPOS>ATOM
      1  C          8.1730   -1.0760    0.0490 C.3     1  UNL1        0.1270
      2  C          7.9050   -2.3450    0.7670 C.2     1  UNL1        0.3030
      3  O          8.7200   -3.2990    0.7280 O.2     1  UNL1       -0.2520
      4  O          6.7430   -2.5120    1.5020 O.3     1  UNL1       -0.4810
      5  H          6.6910   -2.1300    2.4510 H       1  UNL1        0.2960
      6  C          6.8700   -0.5340   -0.4520 C.3     1  UNL1        0.0470
      7  C          6.6360    0.8670   -0.1060 C.2     1  UNL1       -0.0470
      8  C          5.4120    1.4520   -0.3310 C.2     1  UNL1        0.0040
      9  C          7.6580    1.6000    0.4530 C.2     1  UNL1        0.0040
     10  C          5.2590    2.7940    0.0260 C.2     1  UNL1        0.0000
     11  C          7.5050    2.9260    0.8050 C.2     1  UNL1        0.0000
     12  C          6.2820    3.5210    0.5820 C.2     1  UNL1        0.0000
@<TRIPOS>BOND
     1     6     7    1
     2     6     1    1
     3     8     7    2
     4     8    10    1
     5     7     9    1
     6    10    12    2
     7     1     2    1
     8     9    11    2
     9    12    11    1
    10     3     2    2
    11     2     4    1
    12     4     5    1
