@<TRIPOS>MOLECULE
/home/cewinharhar/GITHUB/reincatalyze/data/processed/docking_pred/2023-May-05-1615_maxeplen10_maxtrainstep1000_seadep16_gamma099_lrac9e-4_lrcr1e-3/82066193004a6cdbe54a2a950d109d8cafa96b54_ligand_2.pdbqt
 12 12 0 0 0
SMALL
GASTEIGER

@<TRIPOS>ATOM
      1  C          7.6920   -0.4330    1.0260 C.3     1  UNL1        0.1270
      2  C          6.7130   -1.1970    1.8330 C.2     1  UNL1        0.3030
      3  O          6.0410   -0.6420    2.7380 O.2     1  UNL1       -0.2520
      4  O          6.5110   -2.5490    1.6110 O.3     1  UNL1       -0.4810
      5  H          6.1690   -2.8620    0.6980 H       1  UNL1        0.2960
      6  C          8.0240    0.8310    1.7600 C.3     1  UNL1        0.0470
      7  C          9.4310    0.9440    2.1420 C.2     1  UNL1       -0.0470
      8  C          9.8370    1.8850    3.0590 C.2     1  UNL1        0.0040
      9  C         10.3510    0.0950    1.5730 C.2     1  UNL1        0.0040
     10  C         11.1960    1.9360    3.3770 C.2     1  UNL1        0.0000
     11  C         11.6950    0.1470    1.8880 C.2     1  UNL1        0.0000
     12  C         12.1100    1.0870    2.8060 C.2     1  UNL1        0.0000
@<TRIPOS>BOND
     1     5     4    1
     2     1     6    1
     3     1     2    1
     4     9    11    1
     5     9     7    2
     6     4     2    1
     7     6     7    1
     8     2     3    2
     9    11    12    2
    10     7     8    1
    11    12    10    1
    12     8    10    2
