@<TRIPOS>MOLECULE
/home/cewinharhar/GITHUB/reincatalyze/data/processed/docking_pred/2023-May-05-1615_maxeplen10_maxtrainstep1000_seadep16_gamma099_lrac9e-4_lrcr1e-3/82066193004a6cdbe54a2a950d109d8cafa96b54_ligand_2.pdbqt
 12 12 0 0 0
SMALL
GASTEIGER

@<TRIPOS>ATOM
      1  C          9.9790    1.7710    1.3260 C.3     1  UNL1        0.1270
      2  C         10.7690    0.6880    0.6950 C.2     1  UNL1        0.3030
      3  O         11.2990   -0.2180    1.3840 O.2     1  UNL1       -0.2520
      4  O         10.9440    0.6450   -0.6790 O.3     1  UNL1       -0.4810
      5  H         11.8550    0.8910   -1.0760 H       1  UNL1        0.2960
      6  C          8.7090    1.1800    1.8570 C.3     1  UNL1        0.0470
      7  C          7.5090    1.6100    1.1420 C.2     1  UNL1       -0.0470
      8  C          6.7510    0.7060    0.4340 C.2     1  UNL1        0.0040
      9  C          7.1400    2.9340    1.1840 C.2     1  UNL1        0.0040
     10  C          5.6160    1.1860   -0.2250 C.2     1  UNL1        0.0000
     11  C          6.0190    3.4080    0.5320 C.2     1  UNL1        0.0000
     12  C          5.2540    2.5090   -0.1800 C.2     1  UNL1        0.0000
@<TRIPOS>BOND
     1     5     4    1
     2     4     2    1
     3    10    12    2
     4    10     8    1
     5    12    11    1
     6     8     7    2
     7    11     9    2
     8     2     1    1
     9     2     3    2
    10     7     9    1
    11     7     6    1
    12     1     6    1
