@<TRIPOS>MOLECULE
/home/cewinharhar/GITHUB/reincatalyze/data/processed/docking_pred/2023-May-05-1615_maxeplen10_maxtrainstep1000_seadep16_gamma099_lrac9e-4_lrcr1e-3/82066193004a6cdbe54a2a950d109d8cafa96b54_ligand_2.pdbqt
 12 12 0 0 0
SMALL
GASTEIGER

@<TRIPOS>ATOM
      1  C          8.4010   -0.6500   -2.0840 C.3     1  UNL1        0.1270
      2  C          8.3710   -1.9010   -2.8780 C.2     1  UNL1        0.3030
      3  O          7.2850   -2.4090   -3.2510 O.2     1  UNL1       -0.2520
      4  O          9.5450   -2.5460   -3.2300 O.3     1  UNL1       -0.4810
      5  H         10.2280   -2.0590   -3.8180 H       1  UNL1        0.2960
      6  C          7.0220   -0.0650   -2.0750 C.3     1  UNL1        0.0470
      7  C          6.4560    0.1030   -0.7370 C.2     1  UNL1       -0.0470
      8  C          5.8000    1.2620   -0.3920 C.2     1  UNL1        0.0040
      9  C          6.5840   -0.9150    0.1790 C.2     1  UNL1        0.0040
     10  C          5.2840    1.3530    0.9030 C.2     1  UNL1        0.0000
     11  C          6.0730   -0.8230    1.4580 C.2     1  UNL1        0.0000
     12  C          5.4150    0.3350    1.8130 C.2     1  UNL1        0.0000
@<TRIPOS>BOND
     1     5     4    1
     2     3     2    2
     3     4     2    1
     4     2     1    1
     5     1     6    1
     6     6     7    1
     7     7     8    2
     8     7     9    1
     9     8    10    1
    10     9    11    2
    11    10    12    2
    12    11    12    1
