@<TRIPOS>MOLECULE
/home/cewinharhar/GITHUB/reincatalyze/data/processed/docking_pred/2023-May-05-1615_maxeplen10_maxtrainstep1000_seadep16_gamma099_lrac9e-4_lrcr1e-3/82066193004a6cdbe54a2a950d109d8cafa96b54_ligand_2.pdbqt
 12 12 0 0 0
SMALL
GASTEIGER

@<TRIPOS>ATOM
      1  C          7.2940   -0.4550   -2.1980 C.3     1  UNL1        0.1270
      2  C          8.7160   -0.8620   -2.2830 C.2     1  UNL1        0.3030
      3  O          9.6290   -0.1420   -1.8080 O.2     1  UNL1       -0.2520
      4  O          9.0790   -2.0540   -2.8900 O.3     1  UNL1       -0.4810
      5  H          8.6200   -2.3310   -3.7620 H       1  UNL1        0.2960
      6  C          6.9060   -0.3950   -0.7520 C.3     1  UNL1        0.0470
      7  C          6.6670    0.9590   -0.2570 C.2     1  UNL1       -0.0470
      8  C          7.6610    1.6590    0.3870 C.2     1  UNL1        0.0040
      9  C          5.4310    1.5340   -0.4430 C.2     1  UNL1        0.0040
     10  C          7.3620    2.9480    0.8330 C.2     1  UNL1        0.0000
     11  C          5.1370    2.8080   -0.0010 C.2     1  UNL1        0.0000
     12  C          6.1270    3.5160    0.6450 C.2     1  UNL1        0.0000
@<TRIPOS>BOND
     1     5     4    1
     2     4     2    1
     3     2     1    1
     4     2     3    2
     5     1     6    1
     6     6     7    1
     7     9     7    2
     8     9    11    1
     9     7     8    1
    10    11    12    2
    11     8    10    2
    12    12    10    1
