@<TRIPOS>MOLECULE
/home/cewinharhar/GITHUB/reincatalyze/data/processed/docking_pred/2023-May-05-1615_maxeplen10_maxtrainstep1000_seadep16_gamma099_lrac9e-4_lrcr1e-3/84f6a015bafc2578e701aafee66be27aa4cb1192_ligand_2.pdbqt
 12 12 0 0 0
SMALL
GASTEIGER

@<TRIPOS>ATOM
      1  C          8.4260   -0.6520   -2.1190 C.3     1  UNL1        0.1270
      2  C          8.4680   -1.9080   -2.9040 C.2     1  UNL1        0.3030
      3  O          9.5480   -2.5200   -3.0960 O.2     1  UNL1       -0.2520
      4  O          7.3120   -2.4430   -3.4490 O.3     1  UNL1       -0.4810
      5  H          7.0510   -3.4070   -3.2220 H       1  UNL1        0.2960
      6  C          7.0160   -0.1450   -2.1160 C.3     1  UNL1        0.0470
      7  C          6.4580    0.0510   -0.7790 C.2     1  UNL1       -0.0470
      8  C          5.8150    1.2220   -0.4510 C.2     1  UNL1        0.0040
      9  C          6.5790   -0.9530    0.1530 C.2     1  UNL1        0.0040
     10  C          5.3050    1.3410    0.8440 C.2     1  UNL1        0.0000
     11  C          6.0750   -0.8340    1.4330 C.2     1  UNL1        0.0000
     12  C          5.4300    0.3360    1.7710 C.2     1  UNL1        0.0000
@<TRIPOS>BOND
     1     4     5    1
     2     4     2    1
     3     3     2    2
     4     2     1    1
     5     1     6    1
     6     6     7    1
     7     7     8    2
     8     7     9    1
     9     8    10    1
    10     9    11    2
    11    10    12    2
    12    11    12    1
