MODEL 1
REMARK VINA RESULT:      -7.1      0.000      0.000
REMARK SMILES O=C(O)CCc1ccccc1
REMARK SMILES IDX 4 1 2 2 1 3 3 4 5 6 6 7 7 8 11 9 8 10 10 11 9 12
REMARK H PARENT 3 5
REMARK Flexibility Score: inf
ROOT
ATOM      1  C   UNL     1       8.426  -0.652  -2.119  1.00  0.00     0.127 C 
ENDROOT
BRANCH   1   2
ATOM      2  C   UNL     1       8.468  -1.908  -2.904  1.00  0.00     0.303 C 
ATOM      3  O   UNL     1       9.548  -2.520  -3.096  1.00  0.00    -0.252 OA
BRANCH   2   4
ATOM      4  O   UNL     1       7.312  -2.443  -3.449  1.00  0.00    -0.481 OA
ATOM      5  H   UNL     1       7.051  -3.407  -3.222  1.00  0.00     0.296 HD
ENDBRANCH   2   4
ENDBRANCH   1   2
BRANCH   1   6
ATOM      6  C   UNL     1       7.016  -0.145  -2.116  1.00  0.00     0.047 C 
BRANCH   6   7
ATOM      7  C   UNL     1       6.458   0.051  -0.779  1.00  0.00    -0.047 A 
ATOM      8  C   UNL     1       5.815   1.222  -0.451  1.00  0.00     0.004 A 
ATOM      9  C   UNL     1       6.579  -0.953   0.153  1.00  0.00     0.004 A 
ATOM     10  C   UNL     1       5.305   1.341   0.844  1.00  0.00     0.000 A 
ATOM     11  C   UNL     1       6.075  -0.834   1.433  1.00  0.00     0.000 A 
ATOM     12  C   UNL     1       5.430   0.336   1.771  1.00  0.00     0.000 A 
ENDBRANCH   6   7
ENDBRANCH   1   6
TORSDOF 4
ENDMDL
MODEL 2
REMARK VINA RESULT:      -6.7      1.380      2.208
REMARK SMILES O=C(O)CCc1ccccc1
REMARK SMILES IDX 4 1 2 2 1 3 3 4 5 6 6 7 7 8 11 9 8 10 10 11 9 12
REMARK H PARENT 3 5
REMARK Flexibility Score: inf
ROOT
ATOM      1  C   UNL     1       8.285  -0.555  -2.173  1.00  0.00     0.127 C 
ENDROOT
BRANCH   1   2
ATOM      2  C   UNL     1       8.309  -1.836  -2.917  1.00  0.00     0.303 C 
ATOM      3  O   UNL     1       7.247  -2.393  -3.289  1.00  0.00    -0.252 OA
BRANCH   2   4
ATOM      4  O   UNL     1       9.510  -2.456  -3.224  1.00  0.00    -0.481 OA
ATOM      5  H   UNL     1       9.697  -3.393  -2.857  1.00  0.00     0.296 HD
ENDBRANCH   2   4
ENDBRANCH   1   2
BRANCH   1   6
ATOM      6  C   UNL     1       6.982  -0.461  -1.440  1.00  0.00     0.047 C 
BRANCH   6   7
ATOM      7  C   UNL     1       6.810   0.783  -0.690  1.00  0.00    -0.047 A 
ATOM      8  C   UNL     1       7.877   1.373  -0.052  1.00  0.00     0.004 A 
ATOM      9  C   UNL     1       5.565   1.363  -0.630  1.00  0.00     0.004 A 
ATOM     10  C   UNL     1       7.639   2.560   0.645  1.00  0.00     0.000 A 
ATOM     11  C   UNL     1       5.332   2.537   0.060  1.00  0.00     0.000 A 
ATOM     12  C   UNL     1       6.394   3.134   0.702  1.00  0.00     0.000 A 
ENDBRANCH   6   7
ENDBRANCH   1   6
TORSDOF 4
ENDMDL
