@<TRIPOS>MOLECULE
/home/cewinharhar/GITHUB/reincatalyze/data/processed/docking_pred/2023-May-05-1615_maxeplen10_maxtrainstep1000_seadep16_gamma099_lrac9e-4_lrcr1e-3/84f6a015bafc2578e701aafee66be27aa4cb1192_ligand_2.pdbqt
 12 12 0 0 0
SMALL
GASTEIGER

@<TRIPOS>ATOM
      1  C          8.2850   -0.5550   -2.1730 C.3     1  UNL1        0.1270
      2  C          8.3090   -1.8360   -2.9170 C.2     1  UNL1        0.3030
      3  O          7.2470   -2.3930   -3.2890 O.2     1  UNL1       -0.2520
      4  O          9.5100   -2.4560   -3.2240 O.3     1  UNL1       -0.4810
      5  H          9.6970   -3.3930   -2.8570 H       1  UNL1        0.2960
      6  C          6.9820   -0.4610   -1.4400 C.3     1  UNL1        0.0470
      7  C          6.8100    0.7830   -0.6900 C.2     1  UNL1       -0.0470
      8  C          7.8770    1.3730   -0.0520 C.2     1  UNL1        0.0040
      9  C          5.5650    1.3630   -0.6300 C.2     1  UNL1        0.0040
     10  C          7.6390    2.5600    0.6450 C.2     1  UNL1        0.0000
     11  C          5.3320    2.5370    0.0600 C.2     1  UNL1        0.0000
     12  C          6.3940    3.1340    0.7020 C.2     1  UNL1        0.0000
@<TRIPOS>BOND
     1     3     2    2
     2     4     2    1
     3     4     5    1
     4     2     1    1
     5     1     6    1
     6     6     7    1
     7     7     9    2
     8     7     8    1
     9     9    11    1
    10     8    10    2
    11    11    12    2
    12    10    12    1
