@<TRIPOS>MOLECULE
/home/cewinharhar/GITHUB/reincatalyze/data/processed/docking_pred/2023-May-05-1615_maxeplen10_maxtrainstep1000_seadep16_gamma099_lrac9e-4_lrcr1e-3/8651a6b7cbc4b018fd9bb7015a505d05e6fdae34_ligand_2.pdbqt
 12 12 0 0 0
SMALL
GASTEIGER

@<TRIPOS>ATOM
      1  C          8.4090   -0.6610   -2.0650 C.3     1  UNL1        0.1270
      2  C          8.3770   -1.9000   -2.8770 C.2     1  UNL1        0.3030
      3  O          7.2900   -2.4120   -3.2410 O.2     1  UNL1       -0.2520
      4  O          9.5520   -2.5290   -3.2580 O.3     1  UNL1       -0.4810
      5  H          9.9150   -2.3810   -4.2040 H       1  UNL1        0.2960
      6  C          7.0360   -0.0620   -2.0660 C.3     1  UNL1        0.0470
      7  C          6.4610    0.1110   -0.7330 C.2     1  UNL1       -0.0470
      8  C          5.8070    1.2730   -0.3940 C.2     1  UNL1        0.0040
      9  C          6.5770   -0.9070    0.1850 C.2     1  UNL1        0.0040
     10  C          5.2820    1.3680    0.8960 C.2     1  UNL1        0.0000
     11  C          6.0580   -0.8110    1.4600 C.2     1  UNL1        0.0000
     12  C          5.4020    0.3500    1.8080 C.2     1  UNL1        0.0000
@<TRIPOS>BOND
     1     5     4    1
     2     4     2    1
     3     3     2    2
     4     2     1    1
     5     6     1    1
     6     6     7    1
     7     7     8    2
     8     7     9    1
     9     8    10    1
    10     9    11    2
    11    10    12    2
    12    11    12    1
