@<TRIPOS>MOLECULE
/home/cewinharhar/GITHUB/reincatalyze/data/processed/docking_pred/2023-May-05-1615_maxeplen10_maxtrainstep1000_seadep16_gamma099_lrac9e-4_lrcr1e-3/86abca178b5bca4973d3a72a1df8ea50f2d75826_ligand_2.pdbqt
 12 12 0 0 0
SMALL
GASTEIGER

@<TRIPOS>ATOM
      1  C          8.4030   -0.6340   -2.0700 C.3     1  UNL1        0.1270
      2  C          8.4050   -1.8570   -2.9060 C.2     1  UNL1        0.3030
      3  O          7.3350   -2.4430   -3.2040 O.2     1  UNL1       -0.2520
      4  O          9.5920   -2.3900   -3.3830 O.3     1  UNL1       -0.4810
      5  H          9.5720   -3.0070   -4.1990 H       1  UNL1        0.2960
      6  C          7.0170   -0.0660   -2.0700 C.3     1  UNL1        0.0470
      7  C          6.4470    0.1120   -0.7360 C.2     1  UNL1       -0.0470
      8  C          5.7980    1.2760   -0.3970 C.2     1  UNL1        0.0040
      9  C          6.5640   -0.9040    0.1850 C.2     1  UNL1        0.0040
     10  C          5.2770    1.3760    0.8950 C.2     1  UNL1        0.0000
     11  C          6.0490   -0.8040    1.4620 C.2     1  UNL1        0.0000
     12  C          5.3980    0.3600    1.8090 C.2     1  UNL1        0.0000
@<TRIPOS>BOND
     1     5     4    1
     2     4     2    1
     3     3     2    2
     4     2     1    1
     5     1     6    1
     6     6     7    1
     7     7     8    2
     8     7     9    1
     9     8    10    1
    10     9    11    2
    11    10    12    2
    12    11    12    1
