MODEL 1
REMARK VINA RESULT:      -7.0      0.000      0.000
REMARK SMILES O=C(O)CCc1ccccc1
REMARK SMILES IDX 4 1 2 2 1 3 3 4 5 6 6 7 7 8 11 9 8 10 10 11 9 12
REMARK H PARENT 3 5
REMARK Flexibility Score: inf
ROOT
ATOM      1  C   UNL     1       8.403  -0.634  -2.070  1.00  0.00     0.127 C 
ENDROOT
BRANCH   1   2
ATOM      2  C   UNL     1       8.405  -1.857  -2.906  1.00  0.00     0.303 C 
ATOM      3  O   UNL     1       7.335  -2.443  -3.204  1.00  0.00    -0.252 OA
BRANCH   2   4
ATOM      4  O   UNL     1       9.592  -2.390  -3.383  1.00  0.00    -0.481 OA
ATOM      5  H   UNL     1       9.572  -3.007  -4.199  1.00  0.00     0.296 HD
ENDBRANCH   2   4
ENDBRANCH   1   2
BRANCH   1   6
ATOM      6  C   UNL     1       7.017  -0.066  -2.070  1.00  0.00     0.047 C 
BRANCH   6   7
ATOM      7  C   UNL     1       6.447   0.112  -0.736  1.00  0.00    -0.047 A 
ATOM      8  C   UNL     1       5.798   1.276  -0.397  1.00  0.00     0.004 A 
ATOM      9  C   UNL     1       6.564  -0.904   0.185  1.00  0.00     0.004 A 
ATOM     10  C   UNL     1       5.277   1.376   0.895  1.00  0.00     0.000 A 
ATOM     11  C   UNL     1       6.049  -0.804   1.462  1.00  0.00     0.000 A 
ATOM     12  C   UNL     1       5.398   0.360   1.809  1.00  0.00     0.000 A 
ENDBRANCH   6   7
ENDBRANCH   1   6
TORSDOF 4
ENDMDL
MODEL 2
REMARK VINA RESULT:      -6.7      3.312      5.129
REMARK SMILES O=C(O)CCc1ccccc1
REMARK SMILES IDX 4 1 2 2 1 3 3 4 5 6 6 7 7 8 11 9 8 10 10 11 9 12
REMARK H PARENT 3 5
REMARK Flexibility Score: inf
ROOT
ATOM      1  C   UNL     1       5.534   1.403  -0.270  1.00  0.00     0.127 C 
ENDROOT
BRANCH   1   2
ATOM      2  C   UNL     1       5.356   1.734   1.164  1.00  0.00     0.303 C 
ATOM      3  O   UNL     1       5.641   2.874   1.608  1.00  0.00    -0.252 OA
BRANCH   2   4
ATOM      4  O   UNL     1       4.871   0.791   2.056  1.00  0.00    -0.481 OA
ATOM      5  H   UNL     1       4.884   0.997   3.058  1.00  0.00     0.296 HD
ENDBRANCH   2   4
ENDBRANCH   1   2
BRANCH   1   6
ATOM      6  C   UNL     1       6.355   0.153  -0.366  1.00  0.00     0.047 C 
BRANCH   6   7
ATOM      7  C   UNL     1       7.546   0.288  -1.203  1.00  0.00    -0.047 A 
ATOM      8  C   UNL     1       7.511  -0.051  -2.536  1.00  0.00     0.004 A 
ATOM      9  C   UNL     1       8.710   0.762  -0.644  1.00  0.00     0.004 A 
ATOM     10  C   UNL     1       8.685   0.104  -3.275  1.00  0.00     0.000 A 
ATOM     11  C   UNL     1       9.871   0.914  -1.376  1.00  0.00     0.000 A 
ATOM     12  C   UNL     1       9.844   0.576  -2.712  1.00  0.00     0.000 A 
ENDBRANCH   6   7
ENDBRANCH   1   6
TORSDOF 4
ENDMDL
