@<TRIPOS>MOLECULE
/home/cewinharhar/GITHUB/reincatalyze/data/processed/docking_pred/2023-May-05-1615_maxeplen10_maxtrainstep1000_seadep16_gamma099_lrac9e-4_lrcr1e-3/86abca178b5bca4973d3a72a1df8ea50f2d75826_ligand_2.pdbqt
 12 12 0 0 0
SMALL
GASTEIGER

@<TRIPOS>ATOM
      1  C          5.5340    1.4030   -0.2700 C.3     1  UNL1        0.1270
      2  C          5.3560    1.7340    1.1640 C.2     1  UNL1        0.3030
      3  O          5.6410    2.8740    1.6080 O.2     1  UNL1       -0.2520
      4  O          4.8710    0.7910    2.0560 O.3     1  UNL1       -0.4810
      5  H          4.8840    0.9970    3.0580 H       1  UNL1        0.2960
      6  C          6.3550    0.1530   -0.3660 C.3     1  UNL1        0.0470
      7  C          7.5460    0.2880   -1.2030 C.2     1  UNL1       -0.0470
      8  C          7.5110   -0.0510   -2.5360 C.2     1  UNL1        0.0040
      9  C          8.7100    0.7620   -0.6440 C.2     1  UNL1        0.0040
     10  C          8.6850    0.1040   -3.2750 C.2     1  UNL1        0.0000
     11  C          9.8710    0.9140   -1.3760 C.2     1  UNL1        0.0000
     12  C          9.8440    0.5760   -2.7120 C.2     1  UNL1        0.0000
@<TRIPOS>BOND
     1    10    12    2
     2    10     8    1
     3    12    11    1
     4     8     7    2
     5    11     9    2
     6     7     9    1
     7     7     6    1
     8     6     1    1
     9     1     2    1
    10     2     3    2
    11     2     4    1
    12     4     5    1
