@<TRIPOS>MOLECULE
/home/cewinharhar/GITHUB/reincatalyze/data/processed/docking_pred/2023-May-05-1615_maxeplen10_maxtrainstep1000_seadep16_gamma099_lrac9e-4_lrcr1e-3/87c24324279ed01ab1d4888e5c128f335f215516_ligand_2.pdbqt
 12 12 0 0 0
SMALL
GASTEIGER

@<TRIPOS>ATOM
      1  C          6.0940    1.4350    1.2220 C.3     1  UNL1        0.1270
      2  C          5.2440    0.5250    2.0260 C.2     1  UNL1        0.3030
      3  O          5.6480   -0.6160    2.3610 O.2     1  UNL1       -0.2520
      4  O          3.9760    0.9100    2.4310 O.3     1  UNL1       -0.4810
      5  H          3.7560    1.9070    2.5080 H       1  UNL1        0.2960
      6  C          5.7970    1.1990   -0.2270 C.3     1  UNL1        0.0470
      7  C          6.8880    0.5590   -0.9610 C.2     1  UNL1       -0.0470
      8  C          8.1720    1.0460   -0.8780 C.2     1  UNL1        0.0040
      9  C          6.6180   -0.5430   -1.7390 C.2     1  UNL1        0.0040
     10  C          9.1640    0.3840   -1.6050 C.2     1  UNL1        0.0000
     11  C          7.6000   -1.1960   -2.4570 C.2     1  UNL1        0.0000
     12  C          8.8890   -0.7140   -2.3800 C.2     1  UNL1        0.0000
@<TRIPOS>BOND
     1    11    12    2
     2    11     9    1
     3    12    10    1
     4     9     7    2
     5    10     8    2
     6     7     8    1
     7     7     6    1
     8     6     1    1
     9     1     2    1
    10     2     3    2
    11     2     4    1
    12     4     5    1
