@<TRIPOS>MOLECULE
/home/cewinharhar/GITHUB/reincatalyze/data/processed/docking_pred/2023-May-05-1615_maxeplen10_maxtrainstep1000_seadep16_gamma099_lrac9e-4_lrcr1e-3/87c24324279ed01ab1d4888e5c128f335f215516_ligand_2.pdbqt
 12 12 0 0 0
SMALL
GASTEIGER

@<TRIPOS>ATOM
      1  C          8.4390   -0.5920   -2.1780 C.3     1  UNL1        0.1270
      2  C          8.4750   -1.8740   -2.9210 C.2     1  UNL1        0.3030
      3  O          9.5560   -2.4840   -3.1140 O.2     1  UNL1       -0.2520
      4  O          7.3130   -2.4350   -3.4250 O.3     1  UNL1       -0.4810
      5  H          7.0410   -3.3760   -3.1270 H       1  UNL1        0.2960
      6  C          7.0100   -0.1590   -2.0570 C.3     1  UNL1        0.0470
      7  C          6.5180   -0.1090   -0.6810 C.2     1  UNL1       -0.0470
      8  C          5.8630    1.0050   -0.2080 C.2     1  UNL1        0.0040
      9  C          6.7150   -1.1930    0.1420 C.2     1  UNL1        0.0040
     10  C          5.4200    0.9830    1.1160 C.2     1  UNL1        0.0000
     11  C          6.2770   -1.2130    1.4520 C.2     1  UNL1        0.0000
     12  C          5.6200   -0.1010    1.9330 C.2     1  UNL1        0.0000
@<TRIPOS>BOND
     1     4     5    1
     2     4     2    1
     3     3     2    2
     4     2     1    1
     5     1     6    1
     6     6     7    1
     7     7     8    2
     8     7     9    1
     9     8    10    1
    10     9    11    2
    11    10    12    2
    12    11    12    1
