MODEL 1
REMARK VINA RESULT:      -7.3      0.000      0.000
REMARK SMILES O=C(O)CCc1ccccc1
REMARK SMILES IDX 4 1 2 2 1 3 3 4 5 6 6 7 7 8 11 9 8 10 10 11 9 12
REMARK H PARENT 3 5
REMARK Flexibility Score: inf
ROOT
ATOM      1  C   UNL     1       8.439  -0.592  -2.178  1.00  0.00     0.127 C 
ENDROOT
BRANCH   1   2
ATOM      2  C   UNL     1       8.475  -1.874  -2.921  1.00  0.00     0.303 C 
ATOM      3  O   UNL     1       9.556  -2.484  -3.114  1.00  0.00    -0.252 OA
BRANCH   2   4
ATOM      4  O   UNL     1       7.313  -2.435  -3.425  1.00  0.00    -0.481 OA
ATOM      5  H   UNL     1       7.041  -3.376  -3.127  1.00  0.00     0.296 HD
ENDBRANCH   2   4
ENDBRANCH   1   2
BRANCH   1   6
ATOM      6  C   UNL     1       7.010  -0.159  -2.057  1.00  0.00     0.047 C 
BRANCH   6   7
ATOM      7  C   UNL     1       6.518  -0.109  -0.681  1.00  0.00    -0.047 A 
ATOM      8  C   UNL     1       5.863   1.005  -0.208  1.00  0.00     0.004 A 
ATOM      9  C   UNL     1       6.715  -1.193   0.142  1.00  0.00     0.004 A 
ATOM     10  C   UNL     1       5.420   0.983   1.116  1.00  0.00     0.000 A 
ATOM     11  C   UNL     1       6.277  -1.213   1.452  1.00  0.00     0.000 A 
ATOM     12  C   UNL     1       5.620  -0.101   1.933  1.00  0.00     0.000 A 
ENDBRANCH   6   7
ENDBRANCH   1   6
TORSDOF 4
ENDMDL
MODEL 2
REMARK VINA RESULT:      -6.5      3.101      4.793
REMARK SMILES O=C(O)CCc1ccccc1
REMARK SMILES IDX 4 1 2 2 1 3 3 4 5 6 6 7 7 8 11 9 8 10 10 11 9 12
REMARK H PARENT 3 5
REMARK Flexibility Score: inf
ROOT
ATOM      1  C   UNL     1       6.094   1.435   1.222  1.00  0.00     0.127 C 
ENDROOT
BRANCH   1   2
ATOM      2  C   UNL     1       5.244   0.525   2.026  1.00  0.00     0.303 C 
ATOM      3  O   UNL     1       5.648  -0.616   2.361  1.00  0.00    -0.252 OA
BRANCH   2   4
ATOM      4  O   UNL     1       3.976   0.910   2.431  1.00  0.00    -0.481 OA
ATOM      5  H   UNL     1       3.756   1.907   2.508  1.00  0.00     0.296 HD
ENDBRANCH   2   4
ENDBRANCH   1   2
BRANCH   1   6
ATOM      6  C   UNL     1       5.797   1.199  -0.227  1.00  0.00     0.047 C 
BRANCH   6   7
ATOM      7  C   UNL     1       6.888   0.559  -0.961  1.00  0.00    -0.047 A 
ATOM      8  C   UNL     1       8.172   1.046  -0.878  1.00  0.00     0.004 A 
ATOM      9  C   UNL     1       6.618  -0.543  -1.739  1.00  0.00     0.004 A 
ATOM     10  C   UNL     1       9.164   0.384  -1.605  1.00  0.00     0.000 A 
ATOM     11  C   UNL     1       7.600  -1.196  -2.457  1.00  0.00     0.000 A 
ATOM     12  C   UNL     1       8.889  -0.714  -2.380  1.00  0.00     0.000 A 
ENDBRANCH   6   7
ENDBRANCH   1   6
TORSDOF 4
ENDMDL
