@<TRIPOS>MOLECULE
/home/cewinharhar/GITHUB/reincatalyze/data/processed/docking_pred/2023-May-05-1615_maxeplen10_maxtrainstep1000_seadep16_gamma099_lrac9e-4_lrcr1e-3/895ea28dab147140afd805a2e235fc395d2e1c3a_ligand_2.pdbqt
 12 12 0 0 0
SMALL
GASTEIGER

@<TRIPOS>ATOM
      1  C          8.4660   -0.6320   -2.1300 C.3     1  UNL1        0.1270
      2  C          8.4900   -1.9040   -2.8890 C.2     1  UNL1        0.3030
      3  O          9.5630   -2.5300   -3.0770 O.2     1  UNL1       -0.2520
      4  O          7.3250   -2.4400   -3.4140 O.3     1  UNL1       -0.4810
      5  H          6.8360   -3.1770   -2.8990 H       1  UNL1        0.2960
      6  C          7.0580   -0.1190   -2.1150 C.3     1  UNL1        0.0470
      7  C          6.4930    0.0260   -0.7750 C.2     1  UNL1       -0.0470
      8  C          6.6130   -0.9830    0.1530 C.2     1  UNL1        0.0040
      9  C          5.8380    1.1900   -0.4450 C.2     1  UNL1        0.0040
     10  C          6.0500   -0.7740    1.4140 C.2     1  UNL1        0.0000
     11  C          5.2810    1.3940    0.8020 C.2     1  UNL1        0.0000
     12  C          5.3960    0.3880    1.7360 C.2     1  UNL1        0.0000
@<TRIPOS>BOND
     1     4     5    1
     2     4     2    1
     3     3     2    2
     4     2     1    1
     5     1     6    1
     6     6     7    1
     7     7     9    2
     8     7     8    1
     9     9    11    1
    10     8    10    2
    11    11    12    2
    12    10    12    1
