MODEL 1
REMARK VINA RESULT:      -7.1      0.000      0.000
REMARK SMILES O=C(O)CCc1ccccc1
REMARK SMILES IDX 4 1 2 2 1 3 3 4 5 6 6 7 7 8 11 9 8 10 10 11 9 12
REMARK H PARENT 3 5
REMARK Flexibility Score: inf
ROOT
ATOM      1  C   UNL     1       8.466  -0.632  -2.130  1.00  0.00     0.127 C 
ENDROOT
BRANCH   1   2
ATOM      2  C   UNL     1       8.490  -1.904  -2.889  1.00  0.00     0.303 C 
ATOM      3  O   UNL     1       9.563  -2.530  -3.077  1.00  0.00    -0.252 OA
BRANCH   2   4
ATOM      4  O   UNL     1       7.325  -2.440  -3.414  1.00  0.00    -0.481 OA
ATOM      5  H   UNL     1       6.836  -3.177  -2.899  1.00  0.00     0.296 HD
ENDBRANCH   2   4
ENDBRANCH   1   2
BRANCH   1   6
ATOM      6  C   UNL     1       7.058  -0.119  -2.115  1.00  0.00     0.047 C 
BRANCH   6   7
ATOM      7  C   UNL     1       6.493   0.026  -0.775  1.00  0.00    -0.047 A 
ATOM      8  C   UNL     1       6.613  -0.983   0.153  1.00  0.00     0.004 A 
ATOM      9  C   UNL     1       5.838   1.190  -0.445  1.00  0.00     0.004 A 
ATOM     10  C   UNL     1       6.050  -0.774   1.414  1.00  0.00     0.000 A 
ATOM     11  C   UNL     1       5.281   1.394   0.802  1.00  0.00     0.000 A 
ATOM     12  C   UNL     1       5.396   0.388   1.736  1.00  0.00     0.000 A 
ENDBRANCH   6   7
ENDBRANCH   1   6
TORSDOF 4
ENDMDL
MODEL 2
REMARK VINA RESULT:      -6.6      1.374      2.179
REMARK SMILES O=C(O)CCc1ccccc1
REMARK SMILES IDX 4 1 2 2 1 3 3 4 5 6 6 7 7 8 11 9 8 10 10 11 9 12
REMARK H PARENT 3 5
REMARK Flexibility Score: inf
ROOT
ATOM      1  C   UNL     1       8.322  -0.609  -2.134  1.00  0.00     0.127 C 
ENDROOT
BRANCH   1   2
ATOM      2  C   UNL     1       8.341  -1.872  -2.908  1.00  0.00     0.303 C 
ATOM      3  O   UNL     1       7.276  -2.421  -3.284  1.00  0.00    -0.252 OA
BRANCH   2   4
ATOM      4  O   UNL     1       9.539  -2.484  -3.239  1.00  0.00    -0.481 OA
ATOM      5  H   UNL     1       9.660  -3.483  -3.052  1.00  0.00     0.296 HD
ENDBRANCH   2   4
ENDBRANCH   1   2
BRANCH   1   6
ATOM      6  C   UNL     1       6.930  -0.388  -1.626  1.00  0.00     0.047 C 
BRANCH   6   7
ATOM      7  C   UNL     1       6.786   0.794  -0.779  1.00  0.00    -0.047 A 
ATOM      8  C   UNL     1       5.557   1.386  -0.600  1.00  0.00     0.004 A 
ATOM      9  C   UNL     1       7.898   1.313  -0.156  1.00  0.00     0.004 A 
ATOM     10  C   UNL     1       5.494   2.512   0.224  1.00  0.00     0.000 A 
ATOM     11  C   UNL     1       7.833   2.427   0.658  1.00  0.00     0.000 A 
ATOM     12  C   UNL     1       6.606   3.026   0.842  1.00  0.00     0.000 A 
ENDBRANCH   6   7
ENDBRANCH   1   6
TORSDOF 4
ENDMDL
