@<TRIPOS>MOLECULE
/home/cewinharhar/GITHUB/reincatalyze/data/processed/docking_pred/2023-May-05-1615_maxeplen10_maxtrainstep1000_seadep16_gamma099_lrac9e-4_lrcr1e-3/895ea28dab147140afd805a2e235fc395d2e1c3a_ligand_2.pdbqt
 12 12 0 0 0
SMALL
GASTEIGER

@<TRIPOS>ATOM
      1  C          8.3220   -0.6090   -2.1340 C.3     1  UNL1        0.1270
      2  C          8.3410   -1.8720   -2.9080 C.2     1  UNL1        0.3030
      3  O          7.2760   -2.4210   -3.2840 O.2     1  UNL1       -0.2520
      4  O          9.5390   -2.4840   -3.2390 O.3     1  UNL1       -0.4810
      5  H          9.6600   -3.4830   -3.0520 H       1  UNL1        0.2960
      6  C          6.9300   -0.3880   -1.6260 C.3     1  UNL1        0.0470
      7  C          6.7860    0.7940   -0.7790 C.2     1  UNL1       -0.0470
      8  C          5.5570    1.3860   -0.6000 C.2     1  UNL1        0.0040
      9  C          7.8980    1.3130   -0.1560 C.2     1  UNL1        0.0040
     10  C          5.4940    2.5120    0.2240 C.2     1  UNL1        0.0000
     11  C          7.8330    2.4270    0.6580 C.2     1  UNL1        0.0000
     12  C          6.6060    3.0260    0.8420 C.2     1  UNL1        0.0000
@<TRIPOS>BOND
     1     3     2    2
     2     4     5    1
     3     4     2    1
     4     2     1    1
     5     1     6    1
     6     6     7    1
     7     7     8    2
     8     7     9    1
     9     8    10    1
    10     9    11    2
    11    10    12    2
    12    11    12    1
