@<TRIPOS>MOLECULE
/home/cewinharhar/GITHUB/reincatalyze/data/processed/docking_pred/2023-May-05-1615_maxeplen10_maxtrainstep1000_seadep16_gamma099_lrac9e-4_lrcr1e-3/8a11bcf53d23875e79cb17a52aa7b3de0dc85e7d_ligand_2.pdbqt
 12 12 0 0 0
SMALL
GASTEIGER

@<TRIPOS>ATOM
      1  C          8.4060   -0.6550   -2.0770 C.3     1  UNL1        0.1270
      2  C          8.3740   -1.9000   -2.8800 C.2     1  UNL1        0.3030
      3  O          7.2870   -2.4120   -3.2440 O.2     1  UNL1       -0.2520
      4  O          9.5480   -2.5360   -3.2510 O.3     1  UNL1       -0.4810
      5  H         10.0340   -2.2340   -4.1000 H       1  UNL1        0.2960
      6  C          7.0300   -0.0630   -2.0720 C.3     1  UNL1        0.0470
      7  C          6.4590    0.1020   -0.7360 C.2     1  UNL1       -0.0470
      8  C          5.8040    1.2610   -0.3890 C.2     1  UNL1        0.0040
      9  C          6.5800   -0.9200    0.1760 C.2     1  UNL1        0.0040
     10  C          5.2820    1.3490    0.9030 C.2     1  UNL1        0.0000
     11  C          6.0630   -0.8320    1.4540 C.2     1  UNL1        0.0000
     12  C          5.4070    0.3270    1.8100 C.2     1  UNL1        0.0000
@<TRIPOS>BOND
     1     5     4    1
     2     4     2    1
     3     3     2    2
     4     2     1    1
     5     1     6    1
     6     6     7    1
     7     7     8    2
     8     7     9    1
     9     8    10    1
    10     9    11    2
    11    10    12    2
    12    11    12    1
