@<TRIPOS>MOLECULE
/home/cewinharhar/GITHUB/reincatalyze/data/processed/docking_pred/2023-May-05-1615_maxeplen10_maxtrainstep1000_seadep16_gamma099_lrac9e-4_lrcr1e-3/8c75984685002de52dc1feb6518b36ce8b766619_ligand_2.pdbqt
 12 12 0 0 0
SMALL
GASTEIGER

@<TRIPOS>ATOM
      1  C          6.2440    3.6210    0.1910 C.3     1  UNL1        0.1270
      2  C          6.6660    3.9460    1.5740 C.2     1  UNL1        0.3030
      3  O          5.9830    4.7090    2.3000 O.2     1  UNL1       -0.2520
      4  O          7.8300    3.4130    2.1050 O.3     1  UNL1       -0.4810
      5  H          8.5570    4.0450    2.4520 H       1  UNL1        0.2960
      6  C          5.1370    2.6140    0.2600 C.3     1  UNL1        0.0470
      7  C          5.5940    1.2420    0.4720 C.2     1  UNL1       -0.0470
      8  C          6.2740    0.5670   -0.5150 C.2     1  UNL1        0.0040
      9  C          5.3390    0.6280    1.6760 C.2     1  UNL1        0.0040
     10  C          6.6810   -0.7410   -0.2430 C.2     1  UNL1        0.0000
     11  C          5.7420   -0.6660    1.9430 C.2     1  UNL1        0.0000
     12  C          6.4230   -1.3490    0.9590 C.2     1  UNL1        0.0000
@<TRIPOS>BOND
     1     8    10    1
     2     8     7    2
     3    10    12    2
     4     1     6    1
     5     1     2    1
     6     6     7    1
     7     7     9    1
     8    12    11    1
     9     2     4    1
    10     2     3    2
    11     9    11    2
    12     4     5    1
