@<TRIPOS>MOLECULE
/home/cewinharhar/GITHUB/reincatalyze/data/processed/docking_pred/2023-May-05-1615_maxeplen10_maxtrainstep1000_seadep16_gamma099_lrac9e-4_lrcr1e-3/8c75984685002de52dc1feb6518b36ce8b766619_ligand_2.pdbqt
 12 12 0 0 0
SMALL
GASTEIGER

@<TRIPOS>ATOM
      1  C          9.9500    1.7770    1.3110 C.3     1  UNL1        0.1270
      2  C         10.7820    0.7130    0.7020 C.2     1  UNL1        0.3030
      3  O         11.3390   -0.1630    1.4090 O.2     1  UNL1       -0.2520
      4  O         10.9680    0.6550   -0.6700 O.3     1  UNL1       -0.4810
      5  H         11.8730    0.9270   -1.0650 H       1  UNL1        0.2960
      6  C          8.6820    1.1550    1.8100 C.3     1  UNL1        0.0470
      7  C          7.4790    1.6230    1.1230 C.2     1  UNL1       -0.0470
      8  C          6.6630    0.7400    0.4540 C.2     1  UNL1        0.0040
      9  C          7.1680    2.9630    1.1520 C.2     1  UNL1        0.0040
     10  C          5.5310    1.2570   -0.1800 C.2     1  UNL1        0.0000
     11  C          6.0480    3.4720    0.5240 C.2     1  UNL1        0.0000
     12  C          5.2260    2.5940   -0.1480 C.2     1  UNL1        0.0000
@<TRIPOS>BOND
     1     5     4    1
     2     4     2    1
     3    10    12    2
     4    10     8    1
     5    12    11    1
     6     8     7    2
     7    11     9    2
     8     2     1    1
     9     2     3    2
    10     7     9    1
    11     7     6    1
    12     1     6    1
