MODEL 1
REMARK VINA RESULT:      -7.0      0.000      0.000
REMARK SMILES O=C(O)CCc1ccccc1
REMARK SMILES IDX 4 1 2 2 1 3 3 4 5 6 6 7 7 8 11 9 8 10 10 11 9 12
REMARK H PARENT 3 5
REMARK Flexibility Score: inf
ROOT
ATOM      1  C   UNL     1       8.405  -0.660  -2.073  1.00  0.00     0.127 C 
ENDROOT
BRANCH   1   2
ATOM      2  C   UNL     1       8.373  -1.903  -2.879  1.00  0.00     0.303 C 
ATOM      3  O   UNL     1       7.285  -2.410  -3.250  1.00  0.00    -0.252 OA
BRANCH   2   4
ATOM      4  O   UNL     1       9.546  -2.543  -3.245  1.00  0.00    -0.481 OA
ATOM      5  H   UNL     1      10.303  -2.630  -2.562  1.00  0.00     0.296 HD
ENDBRANCH   2   4
ENDBRANCH   1   2
BRANCH   1   6
ATOM      6  C   UNL     1       7.030  -0.065  -2.070  1.00  0.00     0.047 C 
BRANCH   6   7
ATOM      7  C   UNL     1       6.455   0.096  -0.736  1.00  0.00    -0.047 A 
ATOM      8  C   UNL     1       5.799   1.254  -0.387  1.00  0.00     0.004 A 
ATOM      9  C   UNL     1       6.574  -0.928   0.175  1.00  0.00     0.004 A 
ATOM     10  C   UNL     1       5.274   1.338   0.904  1.00  0.00     0.000 A 
ATOM     11  C   UNL     1       6.055  -0.843   1.451  1.00  0.00     0.000 A 
ATOM     12  C   UNL     1       5.397   0.313   1.808  1.00  0.00     0.000 A 
ENDBRANCH   6   7
ENDBRANCH   1   6
TORSDOF 4
ENDMDL
MODEL 2
REMARK VINA RESULT:      -6.8      1.412      2.192
REMARK SMILES O=C(O)CCc1ccccc1
REMARK SMILES IDX 4 1 2 2 1 3 3 4 5 6 6 7 7 8 11 9 8 10 10 11 9 12
REMARK H PARENT 3 5
REMARK Flexibility Score: inf
ROOT
ATOM      1  C   UNL     1       8.307  -0.516  -2.299  1.00  0.00     0.127 C 
ENDROOT
BRANCH   1   2
ATOM      2  C   UNL     1       8.406  -1.845  -2.947  1.00  0.00     0.303 C 
ATOM      3  O   UNL     1       9.513  -2.426  -3.073  1.00  0.00    -0.252 OA
BRANCH   2   4
ATOM      4  O   UNL     1       7.277  -2.485  -3.433  1.00  0.00    -0.481 OA
ATOM      5  H   UNL     1       6.780  -2.083  -4.233  1.00  0.00     0.296 HD
ENDBRANCH   2   4
ENDBRANCH   1   2
BRANCH   1   6
ATOM      6  C   UNL     1       7.004  -0.448  -1.562  1.00  0.00     0.047 C 
BRANCH   6   7
ATOM      7  C   UNL     1       6.835   0.764  -0.763  1.00  0.00    -0.047 A 
ATOM      8  C   UNL     1       7.908   1.339  -0.122  1.00  0.00     0.004 A 
ATOM      9  C   UNL     1       5.586   1.330  -0.657  1.00  0.00     0.004 A 
ATOM     10  C   UNL     1       7.674   2.497   0.623  1.00  0.00     0.000 A 
ATOM     11  C   UNL     1       5.356   2.474   0.080  1.00  0.00     0.000 A 
ATOM     12  C   UNL     1       6.425   3.056   0.726  1.00  0.00     0.000 A 
ENDBRANCH   6   7
ENDBRANCH   1   6
TORSDOF 4
ENDMDL
