@<TRIPOS>MOLECULE
/home/cewinharhar/GITHUB/reincatalyze/data/processed/docking_pred/2023-May-05-1615_maxeplen10_maxtrainstep1000_seadep16_gamma099_lrac9e-4_lrcr1e-3/8c75984685002de52dc1feb6518b36ce8b766619_ligand_2.pdbqt
 12 12 0 0 0
SMALL
GASTEIGER

@<TRIPOS>ATOM
      1  C          8.1700   -1.1080    0.0000 C.3     1  UNL1        0.1270
      2  C          7.9140   -2.3620    0.7480 C.2     1  UNL1        0.3030
      3  O          8.7370   -3.3100    0.7280 O.2     1  UNL1       -0.2520
      4  O          6.7560   -2.5210    1.4910 O.3     1  UNL1       -0.4810
      5  H          6.6690   -2.0420    2.3910 H       1  UNL1        0.2960
      6  C          6.8530   -0.5480   -0.4440 C.3     1  UNL1        0.0470
      7  C          6.6540    0.8560   -0.0900 C.2     1  UNL1       -0.0470
      8  C          7.6730    1.5920    0.4690 C.2     1  UNL1        0.0040
      9  C          5.4300    1.4400   -0.3230 C.2     1  UNL1        0.0040
     10  C          7.4120    2.9280    0.7810 C.2     1  UNL1        0.0000
     11  C          5.1740    2.7610   -0.0140 C.2     1  UNL1        0.0000
     12  C          6.1890    3.5050    0.5470 C.2     1  UNL1        0.0000
@<TRIPOS>BOND
     1     6     7    1
     2     6     1    1
     3     9     7    2
     4     9    11    1
     5     7     8    1
     6    11    12    2
     7     1     2    1
     8     8    10    2
     9    12    10    1
    10     3     2    2
    11     2     4    1
    12     4     5    1
