@<TRIPOS>MOLECULE
/home/cewinharhar/GITHUB/reincatalyze/data/processed/docking_pred/2023-May-05-1615_maxeplen10_maxtrainstep1000_seadep16_gamma099_lrac9e-4_lrcr1e-3/8c75984685002de52dc1feb6518b36ce8b766619_ligand_2.pdbqt
 12 12 0 0 0
SMALL
GASTEIGER

@<TRIPOS>ATOM
      1  C          8.3070   -0.5160   -2.2990 C.3     1  UNL1        0.1270
      2  C          8.4060   -1.8450   -2.9470 C.2     1  UNL1        0.3030
      3  O          9.5130   -2.4260   -3.0730 O.2     1  UNL1       -0.2520
      4  O          7.2770   -2.4850   -3.4330 O.3     1  UNL1       -0.4810
      5  H          6.7800   -2.0830   -4.2330 H       1  UNL1        0.2960
      6  C          7.0040   -0.4480   -1.5620 C.3     1  UNL1        0.0470
      7  C          6.8350    0.7640   -0.7630 C.2     1  UNL1       -0.0470
      8  C          7.9080    1.3390   -0.1220 C.2     1  UNL1        0.0040
      9  C          5.5860    1.3300   -0.6570 C.2     1  UNL1        0.0040
     10  C          7.6740    2.4970    0.6230 C.2     1  UNL1        0.0000
     11  C          5.3560    2.4740    0.0800 C.2     1  UNL1        0.0000
     12  C          6.4250    3.0560    0.7260 C.2     1  UNL1        0.0000
@<TRIPOS>BOND
     1     5     4    1
     2     4     2    1
     3     3     2    2
     4     2     1    1
     5     1     6    1
     6     6     7    1
     7     7     9    2
     8     7     8    1
     9     9    11    1
    10     8    10    2
    11    11    12    2
    12    10    12    1
