MODEL 1
REMARK VINA RESULT:      -7.1      0.000      0.000
REMARK SMILES O=C(O)CCc1ccccc1
REMARK SMILES IDX 4 1 2 2 1 3 3 4 5 6 6 7 7 8 11 9 8 10 10 11 9 12
REMARK H PARENT 3 5
REMARK Flexibility Score: inf
ROOT
ATOM      1  C   UNL     1       8.463  -0.663  -2.074  1.00  0.00     0.127 C 
ENDROOT
BRANCH   1   2
ATOM      2  C   UNL     1       8.474  -1.908  -2.877  1.00  0.00     0.303 C 
ATOM      3  O   UNL     1       9.542  -2.531  -3.097  1.00  0.00    -0.252 OA
BRANCH   2   4
ATOM      4  O   UNL     1       7.302  -2.421  -3.409  1.00  0.00    -0.481 OA
ATOM      5  H   UNL     1       6.814  -3.173  -2.915  1.00  0.00     0.296 HD
ENDBRANCH   2   4
ENDBRANCH   1   2
BRANCH   1   6
ATOM      6  C   UNL     1       7.071  -0.109  -2.084  1.00  0.00     0.047 C 
BRANCH   6   7
ATOM      7  C   UNL     1       6.489   0.058  -0.753  1.00  0.00    -0.047 A 
ATOM      8  C   UNL     1       5.844   1.224  -0.409  1.00  0.00     0.004 A 
ATOM      9  C   UNL     1       6.590  -0.967   0.158  1.00  0.00     0.004 A 
ATOM     10  C   UNL     1       5.311   1.314   0.879  1.00  0.00     0.000 A 
ATOM     11  C   UNL     1       6.063  -0.876   1.431  1.00  0.00     0.000 A 
ATOM     12  C   UNL     1       5.416   0.288   1.783  1.00  0.00     0.000 A 
ENDBRANCH   6   7
ENDBRANCH   1   6
TORSDOF 4
ENDMDL
MODEL 2
REMARK VINA RESULT:      -6.6      1.403      2.215
REMARK SMILES O=C(O)CCc1ccccc1
REMARK SMILES IDX 4 1 2 2 1 3 3 4 5 6 6 7 7 8 11 9 8 10 10 11 9 12
REMARK H PARENT 3 5
REMARK Flexibility Score: inf
ROOT
ATOM      1  C   UNL     1       8.321  -0.598  -2.122  1.00  0.00     0.127 C 
ENDROOT
BRANCH   1   2
ATOM      2  C   UNL     1       8.330  -1.859  -2.901  1.00  0.00     0.303 C 
ATOM      3  O   UNL     1       7.260  -2.400  -3.276  1.00  0.00    -0.252 OA
BRANCH   2   4
ATOM      4  O   UNL     1       9.523  -2.478  -3.236  1.00  0.00    -0.481 OA
ATOM      5  H   UNL     1       9.709  -3.426  -2.897  1.00  0.00     0.296 HD
ENDBRANCH   2   4
ENDBRANCH   1   2
BRANCH   1   6
ATOM      6  C   UNL     1       6.964  -0.433  -1.509  1.00  0.00     0.047 C 
BRANCH   6   7
ATOM      7  C   UNL     1       6.808   0.794  -0.730  1.00  0.00    -0.047 A 
ATOM      8  C   UNL     1       7.889   1.372  -0.106  1.00  0.00     0.004 A 
ATOM      9  C   UNL     1       5.564   1.372  -0.628  1.00  0.00     0.004 A 
ATOM     10  C   UNL     1       7.667   2.545   0.620  1.00  0.00     0.000 A 
ATOM     11  C   UNL     1       5.346   2.530   0.091  1.00  0.00     0.000 A 
ATOM     12  C   UNL     1       6.424   3.115   0.720  1.00  0.00     0.000 A 
ENDBRANCH   6   7
ENDBRANCH   1   6
TORSDOF 4
ENDMDL
