@<TRIPOS>MOLECULE
/home/cewinharhar/GITHUB/reincatalyze/data/processed/docking_pred/2023-May-05-1615_maxeplen10_maxtrainstep1000_seadep16_gamma099_lrac9e-4_lrcr1e-3/8f258178c278a1f8efc989ef7d8625b520fa90c8_ligand_2.pdbqt
 12 12 0 0 0
SMALL
GASTEIGER

@<TRIPOS>ATOM
      1  C          8.3210   -0.5980   -2.1220 C.3     1  UNL1        0.1270
      2  C          8.3300   -1.8590   -2.9010 C.2     1  UNL1        0.3030
      3  O          7.2600   -2.4000   -3.2760 O.2     1  UNL1       -0.2520
      4  O          9.5230   -2.4780   -3.2360 O.3     1  UNL1       -0.4810
      5  H          9.7090   -3.4260   -2.8970 H       1  UNL1        0.2960
      6  C          6.9640   -0.4330   -1.5090 C.3     1  UNL1        0.0470
      7  C          6.8080    0.7940   -0.7300 C.2     1  UNL1       -0.0470
      8  C          7.8890    1.3720   -0.1060 C.2     1  UNL1        0.0040
      9  C          5.5640    1.3720   -0.6280 C.2     1  UNL1        0.0040
     10  C          7.6670    2.5450    0.6200 C.2     1  UNL1        0.0000
     11  C          5.3460    2.5300    0.0910 C.2     1  UNL1        0.0000
     12  C          6.4240    3.1150    0.7200 C.2     1  UNL1        0.0000
@<TRIPOS>BOND
     1     3     2    2
     2     4     2    1
     3     4     5    1
     4     2     1    1
     5     1     6    1
     6     6     7    1
     7     7     9    2
     8     7     8    1
     9     9    11    1
    10     8    10    2
    11    11    12    2
    12    10    12    1
