@<TRIPOS>MOLECULE
/home/cewinharhar/GITHUB/reincatalyze/data/processed/docking_pred/2023-May-05-1615_maxeplen10_maxtrainstep1000_seadep16_gamma099_lrac9e-4_lrcr1e-3/8f3f3cc121b2e0b9b67c9595347d7d2b0dd21437_ligand_2.pdbqt
 12 12 0 0 0
SMALL
GASTEIGER

@<TRIPOS>ATOM
      1  C          8.4060   -0.6570   -2.0750 C.3     1  UNL1        0.1270
      2  C          8.3760   -1.9030   -2.8780 C.2     1  UNL1        0.3030
      3  O          7.2890   -2.4130   -3.2470 O.2     1  UNL1       -0.2520
      4  O          9.5500   -2.5410   -3.2430 O.3     1  UNL1       -0.4810
      5  H         10.4340   -2.2420   -2.8230 H       1  UNL1        0.2960
      6  C          7.0290   -0.0660   -2.0710 C.3     1  UNL1        0.0470
      7  C          6.4580    0.1010   -0.7360 C.2     1  UNL1       -0.0470
      8  C          5.8040    1.2610   -0.3910 C.2     1  UNL1        0.0040
      9  C          6.5790   -0.9200    0.1790 C.2     1  UNL1        0.0040
     10  C          5.2830    1.3510    0.9020 C.2     1  UNL1        0.0000
     11  C          6.0630   -0.8290    1.4560 C.2     1  UNL1        0.0000
     12  C          5.4070    0.3300    1.8100 C.2     1  UNL1        0.0000
@<TRIPOS>BOND
     1     3     2    2
     2     4     2    1
     3     4     5    1
     4     2     1    1
     5     1     6    1
     6     6     7    1
     7     7     8    2
     8     7     9    1
     9     8    10    1
    10     9    11    2
    11    10    12    2
    12    11    12    1
