@<TRIPOS>MOLECULE
/home/cewinharhar/GITHUB/reincatalyze/data/processed/docking_pred/2023-May-05-1615_maxeplen10_maxtrainstep1000_seadep16_gamma099_lrac9e-4_lrcr1e-3/8f3f3cc121b2e0b9b67c9595347d7d2b0dd21437_ligand_2.pdbqt
 12 12 0 0 0
SMALL
GASTEIGER

@<TRIPOS>ATOM
      1  C          8.3240   -0.5880   -2.1520 C.3     1  UNL1        0.1270
      2  C          8.3380   -1.8620   -2.9090 C.2     1  UNL1        0.3030
      3  O          7.2700   -2.4120   -3.2770 O.2     1  UNL1       -0.2520
      4  O          9.5340   -2.4820   -3.2340 O.3     1  UNL1       -0.4810
      5  H         10.3880   -1.9210   -3.2960 H       1  UNL1        0.2960
      6  C          6.9430   -0.3760   -1.6120 C.3     1  UNL1        0.0470
      7  C          6.8070    0.8160   -0.7780 C.2     1  UNL1       -0.0470
      8  C          7.8990    1.3580   -0.1410 C.2     1  UNL1        0.0040
      9  C          5.5680    1.3980   -0.6340 C.2     1  UNL1        0.0040
     10  C          7.6960    2.4980    0.6390 C.2     1  UNL1        0.0000
     11  C          5.3690    2.5250    0.1380 C.2     1  UNL1        0.0000
     12  C          6.4580    3.0730    0.7790 C.2     1  UNL1        0.0000
@<TRIPOS>BOND
     1     5     4    1
     2     3     2    2
     3     4     2    1
     4     2     1    1
     5     1     6    1
     6     6     7    1
     7     7     9    2
     8     7     8    1
     9     9    11    1
    10     8    10    2
    11    11    12    2
    12    10    12    1
