MODEL 1
REMARK VINA RESULT:      -7.3      0.000      0.000
REMARK SMILES O=C(O)CCc1ccccc1
REMARK SMILES IDX 4 1 2 2 1 3 3 4 5 6 6 7 7 8 11 9 8 10 10 11 9 12
REMARK H PARENT 3 5
REMARK Flexibility Score: inf
ROOT
ATOM      1  C   UNL     1       8.406  -0.657  -2.075  1.00  0.00     0.127 C 
ENDROOT
BRANCH   1   2
ATOM      2  C   UNL     1       8.376  -1.903  -2.878  1.00  0.00     0.303 C 
ATOM      3  O   UNL     1       7.289  -2.413  -3.247  1.00  0.00    -0.252 OA
BRANCH   2   4
ATOM      4  O   UNL     1       9.550  -2.541  -3.243  1.00  0.00    -0.481 OA
ATOM      5  H   UNL     1      10.434  -2.242  -2.823  1.00  0.00     0.296 HD
ENDBRANCH   2   4
ENDBRANCH   1   2
BRANCH   1   6
ATOM      6  C   UNL     1       7.029  -0.066  -2.071  1.00  0.00     0.047 C 
BRANCH   6   7
ATOM      7  C   UNL     1       6.458   0.101  -0.736  1.00  0.00    -0.047 A 
ATOM      8  C   UNL     1       5.804   1.261  -0.391  1.00  0.00     0.004 A 
ATOM      9  C   UNL     1       6.579  -0.920   0.179  1.00  0.00     0.004 A 
ATOM     10  C   UNL     1       5.283   1.351   0.902  1.00  0.00     0.000 A 
ATOM     11  C   UNL     1       6.063  -0.829   1.456  1.00  0.00     0.000 A 
ATOM     12  C   UNL     1       5.407   0.330   1.810  1.00  0.00     0.000 A 
ENDBRANCH   6   7
ENDBRANCH   1   6
TORSDOF 4
ENDMDL
