@<TRIPOS>MOLECULE
/home/cewinharhar/GITHUB/reincatalyze/data/processed/docking_pred/2023-May-05-1615_maxeplen10_maxtrainstep1000_seadep16_gamma099_lrac9e-4_lrcr1e-3/8f7c925e970cb887b69f6e81c5db99fda922d0ae_ligand_2.pdbqt
 12 12 0 0 0
SMALL
GASTEIGER

@<TRIPOS>ATOM
      1  C          8.2670   -0.4950   -2.3230 C.3     1  UNL1        0.1270
      2  C          8.3810   -1.8300   -2.9560 C.2     1  UNL1        0.3030
      3  O          9.4920   -2.4050   -3.0660 O.2     1  UNL1       -0.2520
      4  O          7.2610   -2.4820   -3.4470 O.3     1  UNL1       -0.4810
      5  H          7.3720   -3.3880   -3.9100 H       1  UNL1        0.2960
      6  C          7.0310   -0.4800   -1.4770 C.3     1  UNL1        0.0470
      7  C          6.8420    0.7580   -0.7220 C.2     1  UNL1       -0.0470
      8  C          7.9010    1.3590   -0.0820 C.2     1  UNL1        0.0040
      9  C          5.5890    1.3210   -0.6570 C.2     1  UNL1        0.0040
     10  C          7.6480    2.5400    0.6200 C.2     1  UNL1        0.0000
     11  C          5.3410    2.4880    0.0380 C.2     1  UNL1        0.0000
     12  C          6.3960    3.0960    0.6820 C.2     1  UNL1        0.0000
@<TRIPOS>BOND
     1     5     4    1
     2     4     2    1
     3     3     2    2
     4     2     1    1
     5     1     6    1
     6     6     7    1
     7     7     9    2
     8     7     8    1
     9     9    11    1
    10     8    10    2
    11    11    12    2
    12    10    12    1
