@<TRIPOS>MOLECULE
/home/cewinharhar/GITHUB/reincatalyze/data/processed/docking_pred/2023-May-05-1615_maxeplen10_maxtrainstep1000_seadep16_gamma099_lrac9e-4_lrcr1e-3/8f7e92428ebbeefdf44ae8ea1c0956f20f305f25_ligand_2.pdbqt
 12 12 0 0 0
SMALL
GASTEIGER

@<TRIPOS>ATOM
      1  C          7.2650   -1.2880   -2.1690 C.3     1  UNL1        0.1270
      2  C          8.7050   -1.3240   -2.5180 C.2     1  UNL1        0.3030
      3  O          9.5020   -0.4580   -2.0820 O.2     1  UNL1       -0.2520
      4  O          9.2110   -2.3190   -3.3380 O.3     1  UNL1       -0.4810
      5  H          8.9790   -2.3130   -4.3350 H       1  UNL1        0.2960
      6  C          7.1390   -1.3770   -0.6790 C.3     1  UNL1        0.0470
      7  C          6.3840   -0.2790   -0.0790 C.2     1  UNL1       -0.0470
      8  C          5.9410   -0.3570    1.2210 C.2     1  UNL1        0.0040
      9  C          6.1190    0.8430   -0.8300 C.2     1  UNL1        0.0040
     10  C          5.2260    0.7300    1.7290 C.2     1  UNL1        0.0000
     11  C          5.4120    1.9170   -0.3270 C.2     1  UNL1        0.0000
     12  C          4.9640    1.8460    0.9750 C.2     1  UNL1        0.0000
@<TRIPOS>BOND
     1     5     4    1
     2     4     2    1
     3     2     1    1
     4     2     3    2
     5     1     6    1
     6     9    11    1
     7     9     7    2
     8     6     7    1
     9    11    12    2
    10     7     8    1
    11    12    10    1
    12     8    10    2
