MODEL 1
REMARK VINA RESULT:      -7.3      0.000      0.000
REMARK SMILES O=C(O)CCc1ccccc1
REMARK SMILES IDX 4 1 2 2 1 3 3 4 5 6 6 7 7 8 11 9 8 10 10 11 9 12
REMARK H PARENT 3 5
REMARK Flexibility Score: inf
ROOT
ATOM      1  C   UNL     1       8.404  -0.654  -2.080  1.00  0.00     0.127 C 
ENDROOT
BRANCH   1   2
ATOM      2  C   UNL     1       8.374  -1.903  -2.877  1.00  0.00     0.303 C 
ATOM      3  O   UNL     1       7.287  -2.410  -3.250  1.00  0.00    -0.252 OA
BRANCH   2   4
ATOM      4  O   UNL     1       9.548  -2.547  -3.233  1.00  0.00    -0.481 OA
ATOM      5  H   UNL     1      10.177  -2.104  -3.908  1.00  0.00     0.296 HD
ENDBRANCH   2   4
ENDBRANCH   1   2
BRANCH   1   6
ATOM      6  C   UNL     1       7.026  -0.066  -2.072  1.00  0.00     0.047 C 
BRANCH   6   7
ATOM      7  C   UNL     1       6.458   0.101  -0.736  1.00  0.00    -0.047 A 
ATOM      8  C   UNL     1       5.803   1.260  -0.390  1.00  0.00     0.004 A 
ATOM      9  C   UNL     1       6.583  -0.919   0.179  1.00  0.00     0.004 A 
ATOM     10  C   UNL     1       5.285   1.351   0.904  1.00  0.00     0.000 A 
ATOM     11  C   UNL     1       6.071  -0.828   1.458  1.00  0.00     0.000 A 
ATOM     12  C   UNL     1       5.414   0.331   1.813  1.00  0.00     0.000 A 
ENDBRANCH   6   7
ENDBRANCH   1   6
TORSDOF 4
ENDMDL
MODEL 2
REMARK VINA RESULT:      -7.0      1.030      1.949
REMARK SMILES O=C(O)CCc1ccccc1
REMARK SMILES IDX 4 1 2 2 1 3 3 4 5 6 6 7 7 8 11 9 8 10 10 11 9 12
REMARK H PARENT 3 5
REMARK Flexibility Score: inf
ROOT
ATOM      1  C   UNL     1       7.265  -1.288  -2.169  1.00  0.00     0.127 C 
ENDROOT
BRANCH   1   2
ATOM      2  C   UNL     1       8.705  -1.324  -2.518  1.00  0.00     0.303 C 
ATOM      3  O   UNL     1       9.502  -0.458  -2.082  1.00  0.00    -0.252 OA
BRANCH   2   4
ATOM      4  O   UNL     1       9.211  -2.319  -3.338  1.00  0.00    -0.481 OA
ATOM      5  H   UNL     1       8.979  -2.313  -4.335  1.00  0.00     0.296 HD
ENDBRANCH   2   4
ENDBRANCH   1   2
BRANCH   1   6
ATOM      6  C   UNL     1       7.139  -1.377  -0.679  1.00  0.00     0.047 C 
BRANCH   6   7
ATOM      7  C   UNL     1       6.384  -0.279  -0.079  1.00  0.00    -0.047 A 
ATOM      8  C   UNL     1       5.941  -0.357   1.221  1.00  0.00     0.004 A 
ATOM      9  C   UNL     1       6.119   0.843  -0.830  1.00  0.00     0.004 A 
ATOM     10  C   UNL     1       5.226   0.730   1.729  1.00  0.00     0.000 A 
ATOM     11  C   UNL     1       5.412   1.917  -0.327  1.00  0.00     0.000 A 
ATOM     12  C   UNL     1       4.964   1.846   0.975  1.00  0.00     0.000 A 
ENDBRANCH   6   7
ENDBRANCH   1   6
TORSDOF 4
ENDMDL
