MODEL 1
REMARK VINA RESULT:      -7.1      0.000      0.000
REMARK SMILES O=C(O)CCc1ccccc1
REMARK SMILES IDX 4 1 2 2 1 3 3 4 5 6 6 7 7 8 11 9 8 10 10 11 9 12
REMARK H PARENT 3 5
REMARK Flexibility Score: inf
ROOT
ATOM      1  C   UNL     1       8.462  -0.667  -2.088  1.00  0.00     0.127 C 
ENDROOT
BRANCH   1   2
ATOM      2  C   UNL     1       8.468  -1.920  -2.880  1.00  0.00     0.303 C 
ATOM      3  O   UNL     1       9.527  -2.571  -3.060  1.00  0.00    -0.252 OA
BRANCH   2   4
ATOM      4  O   UNL     1       7.301  -2.407  -3.446  1.00  0.00    -0.481 OA
ATOM      5  H   UNL     1       7.191  -2.386  -4.464  1.00  0.00     0.296 HD
ENDBRANCH   2   4
ENDBRANCH   1   2
BRANCH   1   6
ATOM      6  C   UNL     1       7.073  -0.106  -2.105  1.00  0.00     0.047 C 
BRANCH   6   7
ATOM      7  C   UNL     1       6.486   0.067  -0.777  1.00  0.00    -0.047 A 
ATOM      8  C   UNL     1       5.815   1.223  -0.450  1.00  0.00     0.004 A 
ATOM      9  C   UNL     1       6.611  -0.942   0.150  1.00  0.00     0.004 A 
ATOM     10  C   UNL     1       5.279   1.320   0.836  1.00  0.00     0.000 A 
ATOM     11  C   UNL     1       6.081  -0.844   1.421  1.00  0.00     0.000 A 
ATOM     12  C   UNL     1       5.407   0.310   1.756  1.00  0.00     0.000 A 
ENDBRANCH   6   7
ENDBRANCH   1   6
TORSDOF 4
ENDMDL
MODEL 2
REMARK VINA RESULT:      -6.6      1.403      2.204
REMARK SMILES O=C(O)CCc1ccccc1
REMARK SMILES IDX 4 1 2 2 1 3 3 4 5 6 6 7 7 8 11 9 8 10 10 11 9 12
REMARK H PARENT 3 5
REMARK Flexibility Score: inf
ROOT
ATOM      1  C   UNL     1       8.341  -0.628  -2.093  1.00  0.00     0.127 C 
ENDROOT
BRANCH   1   2
ATOM      2  C   UNL     1       8.344  -1.877  -2.890  1.00  0.00     0.303 C 
ATOM      3  O   UNL     1       7.272  -2.409  -3.271  1.00  0.00    -0.252 OA
BRANCH   2   4
ATOM      4  O   UNL     1       9.535  -2.495  -3.238  1.00  0.00    -0.481 OA
ATOM      5  H   UNL     1       9.521  -3.471  -3.544  1.00  0.00     0.296 HD
ENDBRANCH   2   4
ENDBRANCH   1   2
BRANCH   1   6
ATOM      6  C   UNL     1       6.948  -0.391  -1.594  1.00  0.00     0.047 C 
BRANCH   6   7
ATOM      7  C   UNL     1       6.807   0.810  -0.773  1.00  0.00    -0.047 A 
ATOM      8  C   UNL     1       7.898   1.365  -0.144  1.00  0.00     0.004 A 
ATOM      9  C   UNL     1       5.566   1.387  -0.635  1.00  0.00     0.004 A 
ATOM     10  C   UNL     1       7.689   2.513   0.623  1.00  0.00     0.000 A 
ATOM     11  C   UNL     1       5.361   2.522   0.124  1.00  0.00     0.000 A 
ATOM     12  C   UNL     1       6.449   3.084   0.758  1.00  0.00     0.000 A 
ENDBRANCH   6   7
ENDBRANCH   1   6
TORSDOF 4
ENDMDL
