@<TRIPOS>MOLECULE
/home/cewinharhar/GITHUB/reincatalyze/data/processed/docking_pred/2023-May-05-1615_maxeplen10_maxtrainstep1000_seadep16_gamma099_lrac9e-4_lrcr1e-3/91438d65c636cbfd2c8442c68b92b155f88758ee_ligand_2.pdbqt
 12 12 0 0 0
SMALL
GASTEIGER

@<TRIPOS>ATOM
      1  C          8.4620   -0.6670   -2.0880 C.3     1  UNL1        0.1270
      2  C          8.4680   -1.9200   -2.8800 C.2     1  UNL1        0.3030
      3  O          9.5270   -2.5710   -3.0600 O.2     1  UNL1       -0.2520
      4  O          7.3010   -2.4070   -3.4460 O.3     1  UNL1       -0.4810
      5  H          7.1910   -2.3860   -4.4640 H       1  UNL1        0.2960
      6  C          7.0730   -0.1060   -2.1050 C.3     1  UNL1        0.0470
      7  C          6.4860    0.0670   -0.7770 C.2     1  UNL1       -0.0470
      8  C          5.8150    1.2230   -0.4500 C.2     1  UNL1        0.0040
      9  C          6.6110   -0.9420    0.1500 C.2     1  UNL1        0.0040
     10  C          5.2790    1.3200    0.8360 C.2     1  UNL1        0.0000
     11  C          6.0810   -0.8440    1.4210 C.2     1  UNL1        0.0000
     12  C          5.4070    0.3100    1.7560 C.2     1  UNL1        0.0000
@<TRIPOS>BOND
     1     5     4    1
     2     4     2    1
     3     3     2    2
     4     2     1    1
     5     6     1    1
     6     6     7    1
     7     7     8    2
     8     7     9    1
     9     8    10    1
    10     9    11    2
    11    10    12    2
    12    11    12    1
