@<TRIPOS>MOLECULE
/home/cewinharhar/GITHUB/reincatalyze/data/processed/docking_pred/2023-May-05-1615_maxeplen10_maxtrainstep1000_seadep16_gamma099_lrac9e-4_lrcr1e-3/91438d65c636cbfd2c8442c68b92b155f88758ee_ligand_2.pdbqt
 12 12 0 0 0
SMALL
GASTEIGER

@<TRIPOS>ATOM
      1  C          8.3410   -0.6280   -2.0930 C.3     1  UNL1        0.1270
      2  C          8.3440   -1.8770   -2.8900 C.2     1  UNL1        0.3030
      3  O          7.2720   -2.4090   -3.2710 O.2     1  UNL1       -0.2520
      4  O          9.5350   -2.4950   -3.2380 O.3     1  UNL1       -0.4810
      5  H          9.5210   -3.4710   -3.5440 H       1  UNL1        0.2960
      6  C          6.9480   -0.3910   -1.5940 C.3     1  UNL1        0.0470
      7  C          6.8070    0.8100   -0.7730 C.2     1  UNL1       -0.0470
      8  C          7.8980    1.3650   -0.1440 C.2     1  UNL1        0.0040
      9  C          5.5660    1.3870   -0.6350 C.2     1  UNL1        0.0040
     10  C          7.6890    2.5130    0.6230 C.2     1  UNL1        0.0000
     11  C          5.3610    2.5220    0.1240 C.2     1  UNL1        0.0000
     12  C          6.4490    3.0840    0.7580 C.2     1  UNL1        0.0000
@<TRIPOS>BOND
     1     5     4    1
     2     3     2    2
     3     4     2    1
     4     2     1    1
     5     1     6    1
     6     6     7    1
     7     7     9    2
     8     7     8    1
     9     9    11    1
    10     8    10    2
    11    11    12    2
    12    10    12    1
