@<TRIPOS>MOLECULE
/home/cewinharhar/GITHUB/reincatalyze/data/processed/docking_pred/2023-May-05-1615_maxeplen10_maxtrainstep1000_seadep16_gamma099_lrac9e-4_lrcr1e-3/9282b18981f6708324b0af4486d36de930a99903_ligand_2.pdbqt
 12 12 0 0 0
SMALL
GASTEIGER

@<TRIPOS>ATOM
      1  C          8.2030   -5.5340   11.7940 C.3     1  UNL1        0.1270
      2  C          7.5870   -4.2580   11.3610 C.2     1  UNL1        0.3030
      3  O          7.6190   -3.8950   10.1590 O.2     1  UNL1       -0.2520
      4  O          6.9590   -3.4270   12.2740 O.3     1  UNL1       -0.4810
      5  H          7.1220   -3.5680   13.2750 H       1  UNL1        0.2960
      6  C          8.6570   -6.2760   10.5740 C.3     1  UNL1        0.0470
      7  C         10.0040   -6.8320   10.6840 C.2     1  UNL1       -0.0470
      8  C         11.0690   -6.0340   11.0330 C.2     1  UNL1        0.0040
      9  C         10.2000   -8.1710   10.4350 C.2     1  UNL1        0.0040
     10  C         12.3270   -6.6330   11.1200 C.2     1  UNL1        0.0000
     11  C         11.4450   -8.7620   10.5210 C.2     1  UNL1        0.0000
     12  C         12.5170   -7.9690   10.8700 C.2     1  UNL1        0.0000
@<TRIPOS>BOND
     1     3     2    2
     2     9    11    1
     3     9     7    2
     4    11    12    2
     5     6     7    1
     6     6     1    1
     7     7     8    1
     8    12    10    1
     9     8    10    2
    10     2     1    1
    11     2     4    1
    12     4     5    1
