@<TRIPOS>MOLECULE
/home/cewinharhar/GITHUB/reincatalyze/data/processed/docking_pred/2023-May-05-1615_maxeplen10_maxtrainstep1000_seadep16_gamma099_lrac9e-4_lrcr1e-3/9282b18981f6708324b0af4486d36de930a99903_ligand_2.pdbqt
 12 12 0 0 0
SMALL
GASTEIGER

@<TRIPOS>ATOM
      1  C          6.3350   -0.5380    2.7270 C.3     1  UNL1        0.1270
      2  C          7.1090   -1.4960    1.9030 C.2     1  UNL1        0.3030
      3  O          8.2740   -1.2300    1.5170 O.2     1  UNL1       -0.2520
      4  O          6.5660   -2.7170    1.5360 O.3     1  UNL1       -0.4810
      5  H          7.1260   -3.3660    0.9770 H       1  UNL1        0.2960
      6  C          5.2310    0.0230    1.8840 C.3     1  UNL1        0.0470
      7  C          5.5290    1.3340    1.3100 C.2     1  UNL1       -0.0470
      8  C          4.8560    1.7840    0.1980 C.2     1  UNL1        0.0040
      9  C          6.4930    2.1210    1.8960 C.2     1  UNL1        0.0040
     10  C          5.1910    3.0470   -0.2960 C.2     1  UNL1        0.0000
     11  C          6.8240    3.3690    1.4060 C.2     1  UNL1        0.0000
     12  C          6.1550    3.8270    0.2920 C.2     1  UNL1        0.0000
@<TRIPOS>BOND
     1    10     8    1
     2    10    12    2
     3     8     7    2
     4    12    11    1
     5     5     4    1
     6     7     6    1
     7     7     9    1
     8    11     9    2
     9     3     2    2
    10     4     2    1
    11     6     1    1
    12     2     1    1
