@<TRIPOS>MOLECULE
/home/cewinharhar/GITHUB/reincatalyze/data/processed/docking_pred/2023-May-05-1615_maxeplen10_maxtrainstep1000_seadep16_gamma099_lrac9e-4_lrcr1e-3/9282b18981f6708324b0af4486d36de930a99903_ligand_2.pdbqt
 12 12 0 0 0
SMALL
GASTEIGER

@<TRIPOS>ATOM
      1  C         12.2450   -8.3010   10.6140 C.3     1  UNL1        0.1270
      2  C         13.1220   -8.5500    9.4460 C.2     1  UNL1        0.3030
      3  O         13.5370   -9.7050    9.1780 O.2     1  UNL1       -0.2520
      4  O         13.5100   -7.5110    8.6150 O.3     1  UNL1       -0.4810
      5  H         13.2890   -7.5590    7.6170 H       1  UNL1        0.2960
      6  C         12.1680   -6.8220   10.8380 C.3     1  UNL1        0.0470
      7  C         10.8080   -6.3190   11.0270 C.2     1  UNL1       -0.0470
      8  C         10.5250   -5.4130   12.0220 C.2     1  UNL1        0.0040
      9  C          9.8070   -6.7620   10.1930 C.2     1  UNL1        0.0040
     10  C          9.2040   -4.9750   12.1430 C.2     1  UNL1        0.0000
     11  C          8.5020   -6.3280   10.3150 C.2     1  UNL1        0.0000
     12  C          8.2100   -5.4200   11.3100 C.2     1  UNL1        0.0000
@<TRIPOS>BOND
     1     5     4    1
     2     4     2    1
     3     3     2    2
     4     2     1    1
     5     9    11    1
     6     9     7    2
     7    11    12    2
     8     1     6    1
     9     6     7    1
    10     7     8    1
    11    12    10    1
    12     8    10    2
