@<TRIPOS>MOLECULE
/home/cewinharhar/GITHUB/reincatalyze/data/processed/docking_pred/2023-May-05-1615_maxeplen10_maxtrainstep1000_seadep16_gamma099_lrac9e-4_lrcr1e-3/9282b18981f6708324b0af4486d36de930a99903_ligand_2.pdbqt
 12 12 0 0 0
SMALL
GASTEIGER

@<TRIPOS>ATOM
      1  C          8.1370   -6.2140   10.6640 C.3     1  UNL1        0.1270
      2  C          8.0990   -4.7700   10.9970 C.2     1  UNL1        0.3030
      3  O          7.5390   -3.9420   10.2380 O.2     1  UNL1       -0.2520
      4  O          8.6850   -4.2940   12.1590 O.3     1  UNL1       -0.4810
      5  H          8.1110   -3.7830   12.8360 H       1  UNL1        0.2960
      6  C          8.5380   -6.9700   11.8940 C.3     1  UNL1        0.0470
      7  C          9.3760   -8.1380   11.6270 C.2     1  UNL1       -0.0470
      8  C         10.3310   -8.1070   10.6380 C.2     1  UNL1        0.0040
      9  C          9.2010   -9.2750   12.3810 C.2     1  UNL1        0.0040
     10  C         11.0960   -9.2590   10.4390 C.2     1  UNL1        0.0000
     11  C          9.9570  -10.4130   12.1830 C.2     1  UNL1        0.0000
     12  C         10.9160  -10.3910   11.1930 C.2     1  UNL1        0.0000
@<TRIPOS>BOND
     1     3     2    2
     2    10     8    1
     3    10    12    2
     4     8     7    2
     5     1     2    1
     6     1     6    1
     7     2     4    1
     8    12    11    1
     9     7     6    1
    10     7     9    1
    11     4     5    1
    12    11     9    2
