MODEL 1
REMARK VINA RESULT:      -5.5      0.000      0.000
REMARK SMILES O=C(O)CCc1ccccc1
REMARK SMILES IDX 4 1 2 2 1 3 3 4 5 6 6 7 7 8 11 9 8 10 10 11 9 12
REMARK H PARENT 3 5
REMARK Flexibility Score: inf
ROOT
ATOM      1  C   UNL     1       6.335  -0.538   2.727  1.00  0.00     0.127 C 
ENDROOT
BRANCH   1   2
ATOM      2  C   UNL     1       7.109  -1.496   1.903  1.00  0.00     0.303 C 
ATOM      3  O   UNL     1       8.274  -1.230   1.517  1.00  0.00    -0.252 OA
BRANCH   2   4
ATOM      4  O   UNL     1       6.566  -2.717   1.536  1.00  0.00    -0.481 OA
ATOM      5  H   UNL     1       7.126  -3.366   0.977  1.00  0.00     0.296 HD
ENDBRANCH   2   4
ENDBRANCH   1   2
BRANCH   1   6
ATOM      6  C   UNL     1       5.231   0.023   1.884  1.00  0.00     0.047 C 
BRANCH   6   7
ATOM      7  C   UNL     1       5.529   1.334   1.310  1.00  0.00    -0.047 A 
ATOM      8  C   UNL     1       4.856   1.784   0.198  1.00  0.00     0.004 A 
ATOM      9  C   UNL     1       6.493   2.121   1.896  1.00  0.00     0.004 A 
ATOM     10  C   UNL     1       5.191   3.047  -0.296  1.00  0.00     0.000 A 
ATOM     11  C   UNL     1       6.824   3.369   1.406  1.00  0.00     0.000 A 
ATOM     12  C   UNL     1       6.155   3.827   0.292  1.00  0.00     0.000 A 
ENDBRANCH   6   7
ENDBRANCH   1   6
TORSDOF 4
ENDMDL
MODEL 2
REMARK VINA RESULT:      -3.7     11.628     14.183
REMARK SMILES O=C(O)CCc1ccccc1
REMARK SMILES IDX 4 1 2 2 1 3 3 4 5 6 6 7 7 8 11 9 8 10 10 11 9 12
REMARK H PARENT 3 5
REMARK Flexibility Score: inf
ROOT
ATOM      1  C   UNL     1       8.137  -6.214  10.664  1.00  0.00     0.127 C 
ENDROOT
BRANCH   1   2
ATOM      2  C   UNL     1       8.099  -4.770  10.997  1.00  0.00     0.303 C 
ATOM      3  O   UNL     1       7.539  -3.942  10.238  1.00  0.00    -0.252 OA
BRANCH   2   4
ATOM      4  O   UNL     1       8.685  -4.294  12.159  1.00  0.00    -0.481 OA
ATOM      5  H   UNL     1       8.111  -3.783  12.836  1.00  0.00     0.296 HD
ENDBRANCH   2   4
ENDBRANCH   1   2
BRANCH   1   6
ATOM      6  C   UNL     1       8.538  -6.970  11.894  1.00  0.00     0.047 C 
BRANCH   6   7
ATOM      7  C   UNL     1       9.376  -8.138  11.627  1.00  0.00    -0.047 A 
ATOM      8  C   UNL     1      10.331  -8.107  10.638  1.00  0.00     0.004 A 
ATOM      9  C   UNL     1       9.201  -9.275  12.381  1.00  0.00     0.004 A 
ATOM     10  C   UNL     1      11.096  -9.259  10.439  1.00  0.00     0.000 A 
ATOM     11  C   UNL     1       9.957 -10.413  12.183  1.00  0.00     0.000 A 
ATOM     12  C   UNL     1      10.916 -10.391  11.193  1.00  0.00     0.000 A 
ENDBRANCH   6   7
ENDBRANCH   1   6
TORSDOF 4
ENDMDL
MODEL 3
REMARK VINA RESULT:      -3.7     11.439     13.265
REMARK SMILES O=C(O)CCc1ccccc1
REMARK SMILES IDX 4 1 2 2 1 3 3 4 5 6 6 7 7 8 11 9 8 10 10 11 9 12
REMARK H PARENT 3 5
REMARK Flexibility Score: inf
ROOT
ATOM      1  C   UNL     1       8.203  -5.534  11.794  1.00  0.00     0.127 C 
ENDROOT
BRANCH   1   2
ATOM      2  C   UNL     1       7.587  -4.258  11.361  1.00  0.00     0.303 C 
ATOM      3  O   UNL     1       7.619  -3.895  10.159  1.00  0.00    -0.252 OA
BRANCH   2   4
ATOM      4  O   UNL     1       6.959  -3.427  12.274  1.00  0.00    -0.481 OA
ATOM      5  H   UNL     1       7.122  -3.568  13.275  1.00  0.00     0.296 HD
ENDBRANCH   2   4
ENDBRANCH   1   2
BRANCH   1   6
ATOM      6  C   UNL     1       8.657  -6.276  10.574  1.00  0.00     0.047 C 
BRANCH   6   7
ATOM      7  C   UNL     1      10.004  -6.832  10.684  1.00  0.00    -0.047 A 
ATOM      8  C   UNL     1      11.069  -6.034  11.033  1.00  0.00     0.004 A 
ATOM      9  C   UNL     1      10.200  -8.171  10.435  1.00  0.00     0.004 A 
ATOM     10  C   UNL     1      12.327  -6.633  11.120  1.00  0.00     0.000 A 
ATOM     11  C   UNL     1      11.445  -8.762  10.521  1.00  0.00     0.000 A 
ATOM     12  C   UNL     1      12.517  -7.969  10.870  1.00  0.00     0.000 A 
ENDBRANCH   6   7
ENDBRANCH   1   6
TORSDOF 4
ENDMDL
