@<TRIPOS>MOLECULE
/home/cewinharhar/GITHUB/reincatalyze/data/processed/docking_pred/2023-May-05-1615_maxeplen10_maxtrainstep1000_seadep16_gamma099_lrac9e-4_lrcr1e-3/939bd1e5684a89eea32cbd4f4170b12915347732_ligand_2.pdbqt
 12 12 0 0 0
SMALL
GASTEIGER

@<TRIPOS>ATOM
      1  C          8.4040   -0.6580   -2.0750 C.3     1  UNL1        0.1270
      2  C          8.3720   -1.9080   -2.8710 C.2     1  UNL1        0.3030
      3  O          7.2860   -2.4070   -3.2560 O.2     1  UNL1       -0.2520
      4  O          9.5450   -2.5620   -3.2120 O.3     1  UNL1       -0.4810
      5  H         10.2900   -2.6510   -2.5150 H       1  UNL1        0.2960
      6  C          7.0290   -0.0620   -2.0800 C.3     1  UNL1        0.0470
      7  C          6.4500    0.1080   -0.7490 C.2     1  UNL1       -0.0470
      8  C          5.7960    1.2700   -0.4090 C.2     1  UNL1        0.0040
      9  C          6.5620   -0.9120    0.1670 C.2     1  UNL1        0.0040
     10  C          5.2670    1.3630    0.8800 C.2     1  UNL1        0.0000
     11  C          6.0380   -0.8180    1.4410 C.2     1  UNL1        0.0000
     12  C          5.3830    0.3430    1.7900 C.2     1  UNL1        0.0000
@<TRIPOS>BOND
     1     3     2    2
     2     4     2    1
     3     4     5    1
     4     2     1    1
     5     6     1    1
     6     6     7    1
     7     7     8    2
     8     7     9    1
     9     8    10    1
    10     9    11    2
    11    10    12    2
    12    11    12    1
