@<TRIPOS>MOLECULE
/home/cewinharhar/GITHUB/reincatalyze/data/processed/docking_pred/2023-May-05-1615_maxeplen10_maxtrainstep1000_seadep16_gamma099_lrac9e-4_lrcr1e-3/93b19c8378935853b44d27bbf459025f9fc44a5e_ligand_2.pdbqt
 12 12 0 0 0
SMALL
GASTEIGER

@<TRIPOS>ATOM
      1  C          8.4010   -0.6660   -2.0620 C.3     1  UNL1        0.1270
      2  C          8.3710   -1.9050   -2.8750 C.2     1  UNL1        0.3030
      3  O          7.2840   -2.4110   -3.2500 O.2     1  UNL1       -0.2520
      4  O          9.5450   -2.5410   -3.2440 O.3     1  UNL1       -0.4810
      5  H         10.1550   -2.1020   -3.9390 H       1  UNL1        0.2960
      6  C          7.0260   -0.0700   -2.0620 C.3     1  UNL1        0.0470
      7  C          6.4530    0.1030   -0.7290 C.2     1  UNL1       -0.0470
      8  C          5.8030    1.2670   -0.3880 C.2     1  UNL1        0.0040
      9  C          6.5670   -0.9160    0.1880 C.2     1  UNL1        0.0040
     10  C          5.2790    1.3620    0.9030 C.2     1  UNL1        0.0000
     11  C          6.0490   -0.8200    1.4640 C.2     1  UNL1        0.0000
     12  C          5.3970    0.3430    1.8140 C.2     1  UNL1        0.0000
@<TRIPOS>BOND
     1     5     4    1
     2     3     2    2
     3     4     2    1
     4     2     1    1
     5     1     6    1
     6     6     7    1
     7     7     8    2
     8     7     9    1
     9     8    10    1
    10     9    11    2
    11    10    12    2
    12    11    12    1
