@<TRIPOS>MOLECULE
/home/cewinharhar/GITHUB/reincatalyze/data/processed/docking_pred/2023-May-05-1615_maxeplen10_maxtrainstep1000_seadep16_gamma099_lrac9e-4_lrcr1e-3/93c3770ef064b633c902e85f3368d9330fbaaeb8_ligand_2.pdbqt
 12 12 0 0 0
SMALL
GASTEIGER

@<TRIPOS>ATOM
      1  C          8.4040   -0.6580   -2.0740 C.3     1  UNL1        0.1270
      2  C          8.3740   -1.9040   -2.8760 C.2     1  UNL1        0.3030
      3  O          7.2880   -2.4110   -3.2510 O.2     1  UNL1       -0.2520
      4  O          9.5480   -2.5470   -3.2340 O.3     1  UNL1       -0.4810
      5  H         10.4410   -2.1900   -2.8830 H       1  UNL1        0.2960
      6  C          7.0270   -0.0680   -2.0690 C.3     1  UNL1        0.0470
      7  C          6.4570    0.1000   -0.7330 C.2     1  UNL1       -0.0470
      8  C          5.8040    1.2610   -0.3880 C.2     1  UNL1        0.0040
      9  C          6.5790   -0.9200    0.1820 C.2     1  UNL1        0.0040
     10  C          5.2840    1.3520    0.9050 C.2     1  UNL1        0.0000
     11  C          6.0650   -0.8270    1.4600 C.2     1  UNL1        0.0000
     12  C          5.4090    0.3320    1.8140 C.2     1  UNL1        0.0000
@<TRIPOS>BOND
     1     3     2    2
     2     4     5    1
     3     4     2    1
     4     2     1    1
     5     1     6    1
     6     6     7    1
     7     7     8    2
     8     7     9    1
     9     8    10    1
    10     9    11    2
    11    10    12    2
    12    11    12    1
