@<TRIPOS>MOLECULE
/home/cewinharhar/GITHUB/reincatalyze/data/processed/docking_pred/2023-May-05-1615_maxeplen10_maxtrainstep1000_seadep16_gamma099_lrac9e-4_lrcr1e-3/93f5b296c54773c487a3666b5d29638d3a74aef5_ligand_2.pdbqt
 12 12 0 0 0
SMALL
GASTEIGER

@<TRIPOS>ATOM
      1  C          8.4030   -0.6590   -2.0720 C.3     1  UNL1        0.1270
      2  C          8.3720   -1.9050   -2.8740 C.2     1  UNL1        0.3030
      3  O          7.2860   -2.4090   -3.2530 O.2     1  UNL1       -0.2520
      4  O          9.5460   -2.5500   -3.2290 O.3     1  UNL1       -0.4810
      5  H         10.3270   -2.5690   -2.5660 H       1  UNL1        0.2960
      6  C          7.0250   -0.0690   -2.0670 C.3     1  UNL1        0.0470
      7  C          6.4570    0.1010   -0.7310 C.2     1  UNL1       -0.0470
      8  C          5.8030    1.2620   -0.3880 C.2     1  UNL1        0.0040
      9  C          6.5800   -0.9170    0.1860 C.2     1  UNL1        0.0040
     10  C          5.2840    1.3550    0.9060 C.2     1  UNL1        0.0000
     11  C          6.0670   -0.8220    1.4650 C.2     1  UNL1        0.0000
     12  C          5.4110    0.3370    1.8170 C.2     1  UNL1        0.0000
@<TRIPOS>BOND
     1     3     2    2
     2     4     2    1
     3     4     5    1
     4     2     1    1
     5     1     6    1
     6     6     7    1
     7     7     8    2
     8     7     9    1
     9     8    10    1
    10     9    11    2
    11    10    12    2
    12    11    12    1
