@<TRIPOS>MOLECULE
/home/cewinharhar/GITHUB/reincatalyze/data/processed/docking_pred/2023-May-05-1615_maxeplen10_maxtrainstep1000_seadep16_gamma099_lrac9e-4_lrcr1e-3/93f5b296c54773c487a3666b5d29638d3a74aef5_ligand_2.pdbqt
 12 12 0 0 0
SMALL
GASTEIGER

@<TRIPOS>ATOM
      1  C          7.2600   -1.2730   -2.1670 C.3     1  UNL1        0.1270
      2  C          8.6990   -1.3180   -2.5170 C.2     1  UNL1        0.3030
      3  O          9.5020   -0.4570   -2.0800 O.2     1  UNL1       -0.2520
      4  O          9.2000   -2.3140   -3.3390 O.3     1  UNL1       -0.4810
      5  H          9.9730   -2.8970   -3.0070 H       1  UNL1        0.2960
      6  C          7.1340   -1.3680   -0.6770 C.3     1  UNL1        0.0470
      7  C          6.3770   -0.2730   -0.0740 C.2     1  UNL1       -0.0470
      8  C          5.9320   -0.3580    1.2260 C.2     1  UNL1        0.0040
      9  C          6.1120    0.8510   -0.8200 C.2     1  UNL1        0.0040
     10  C          5.2160    0.7260    1.7380 C.2     1  UNL1        0.0000
     11  C          5.4030    1.9220   -0.3120 C.2     1  UNL1        0.0000
     12  C          4.9540    1.8450    0.9880 C.2     1  UNL1        0.0000
@<TRIPOS>BOND
     1     4     5    1
     2     4     2    1
     3     2     1    1
     4     2     3    2
     5     1     6    1
     6     9    11    1
     7     9     7    2
     8     6     7    1
     9    11    12    2
    10     7     8    1
    11    12    10    1
    12     8    10    2
