MODEL 1
REMARK VINA RESULT:      -7.3      0.000      0.000
REMARK SMILES O=C(O)CCc1ccccc1
REMARK SMILES IDX 4 1 2 2 1 3 3 4 5 6 6 7 7 8 11 9 8 10 10 11 9 12
REMARK H PARENT 3 5
REMARK Flexibility Score: inf
ROOT
ATOM      1  C   UNL     1       8.403  -0.659  -2.072  1.00  0.00     0.127 C 
ENDROOT
BRANCH   1   2
ATOM      2  C   UNL     1       8.372  -1.905  -2.874  1.00  0.00     0.303 C 
ATOM      3  O   UNL     1       7.286  -2.409  -3.253  1.00  0.00    -0.252 OA
BRANCH   2   4
ATOM      4  O   UNL     1       9.546  -2.550  -3.229  1.00  0.00    -0.481 OA
ATOM      5  H   UNL     1      10.327  -2.569  -2.566  1.00  0.00     0.296 HD
ENDBRANCH   2   4
ENDBRANCH   1   2
BRANCH   1   6
ATOM      6  C   UNL     1       7.025  -0.069  -2.067  1.00  0.00     0.047 C 
BRANCH   6   7
ATOM      7  C   UNL     1       6.457   0.101  -0.731  1.00  0.00    -0.047 A 
ATOM      8  C   UNL     1       5.803   1.262  -0.388  1.00  0.00     0.004 A 
ATOM      9  C   UNL     1       6.580  -0.917   0.186  1.00  0.00     0.004 A 
ATOM     10  C   UNL     1       5.284   1.355   0.906  1.00  0.00     0.000 A 
ATOM     11  C   UNL     1       6.067  -0.822   1.465  1.00  0.00     0.000 A 
ATOM     12  C   UNL     1       5.411   0.337   1.817  1.00  0.00     0.000 A 
ENDBRANCH   6   7
ENDBRANCH   1   6
TORSDOF 4
ENDMDL
MODEL 2
REMARK VINA RESULT:      -7.0      1.030      1.948
REMARK SMILES O=C(O)CCc1ccccc1
REMARK SMILES IDX 4 1 2 2 1 3 3 4 5 6 6 7 7 8 11 9 8 10 10 11 9 12
REMARK H PARENT 3 5
REMARK Flexibility Score: inf
ROOT
ATOM      1  C   UNL     1       7.260  -1.273  -2.167  1.00  0.00     0.127 C 
ENDROOT
BRANCH   1   2
ATOM      2  C   UNL     1       8.699  -1.318  -2.517  1.00  0.00     0.303 C 
ATOM      3  O   UNL     1       9.502  -0.457  -2.080  1.00  0.00    -0.252 OA
BRANCH   2   4
ATOM      4  O   UNL     1       9.200  -2.314  -3.339  1.00  0.00    -0.481 OA
ATOM      5  H   UNL     1       9.973  -2.897  -3.007  1.00  0.00     0.296 HD
ENDBRANCH   2   4
ENDBRANCH   1   2
BRANCH   1   6
ATOM      6  C   UNL     1       7.134  -1.368  -0.677  1.00  0.00     0.047 C 
BRANCH   6   7
ATOM      7  C   UNL     1       6.377  -0.273  -0.074  1.00  0.00    -0.047 A 
ATOM      8  C   UNL     1       5.932  -0.358   1.226  1.00  0.00     0.004 A 
ATOM      9  C   UNL     1       6.112   0.851  -0.820  1.00  0.00     0.004 A 
ATOM     10  C   UNL     1       5.216   0.726   1.738  1.00  0.00     0.000 A 
ATOM     11  C   UNL     1       5.403   1.922  -0.312  1.00  0.00     0.000 A 
ATOM     12  C   UNL     1       4.954   1.845   0.988  1.00  0.00     0.000 A 
ENDBRANCH   6   7
ENDBRANCH   1   6
TORSDOF 4
ENDMDL
