@<TRIPOS>MOLECULE
/home/cewinharhar/GITHUB/reincatalyze/data/processed/docking_pred/2023-May-05-1615_maxeplen10_maxtrainstep1000_seadep16_gamma099_lrac9e-4_lrcr1e-3/9545d038953ad0bd3b50a81295f717fe73892d7b_ligand_2.pdbqt
 12 12 0 0 0
SMALL
GASTEIGER

@<TRIPOS>ATOM
      1  C          8.4040   -0.6560   -2.0770 C.3     1  UNL1        0.1270
      2  C          8.3730   -1.9040   -2.8750 C.2     1  UNL1        0.3030
      3  O          7.2860   -2.4090   -3.2510 O.2     1  UNL1       -0.2520
      4  O          9.5460   -2.5510   -3.2270 O.3     1  UNL1       -0.4810
      5  H          9.5970   -3.0450   -4.1230 H       1  UNL1        0.2960
      6  C          7.0270   -0.0670   -2.0700 C.3     1  UNL1        0.0470
      7  C          6.4600    0.1030   -0.7330 C.2     1  UNL1       -0.0470
      8  C          5.8070    1.2640   -0.3890 C.2     1  UNL1        0.0040
      9  C          6.5850   -0.9150    0.1840 C.2     1  UNL1        0.0040
     10  C          5.2890    1.3570    0.9050 C.2     1  UNL1        0.0000
     11  C          6.0730   -0.8210    1.4630 C.2     1  UNL1        0.0000
     12  C          5.4170    0.3380    1.8160 C.2     1  UNL1        0.0000
@<TRIPOS>BOND
     1     5     4    1
     2     3     2    2
     3     4     2    1
     4     2     1    1
     5     1     6    1
     6     6     7    1
     7     7     8    2
     8     7     9    1
     9     8    10    1
    10     9    11    2
    11    10    12    2
    12    11    12    1
