@<TRIPOS>MOLECULE
/home/cewinharhar/GITHUB/reincatalyze/data/processed/docking_pred/2023-May-05-1615_maxeplen10_maxtrainstep1000_seadep16_gamma099_lrac9e-4_lrcr1e-3/955e59fc22a1e87e2ab10a68f3a5c98643a236a4_ligand_2.pdbqt
 12 12 0 0 0
SMALL
GASTEIGER

@<TRIPOS>ATOM
      1  C          8.4560   -0.6590   -2.0740 C.3     1  UNL1        0.1270
      2  C          8.4830   -1.9070   -2.8720 C.2     1  UNL1        0.3030
      3  O          9.5600   -2.5140   -3.0930 O.2     1  UNL1       -0.2520
      4  O          7.3170   -2.4390   -3.3980 O.3     1  UNL1       -0.4810
      5  H          6.5430   -2.6700   -2.7690 H       1  UNL1        0.2960
      6  C          7.0570   -0.1200   -2.0900 C.3     1  UNL1        0.0470
      7  C          6.4800    0.0750   -0.7620 C.2     1  UNL1       -0.0470
      8  C          5.8370    1.2480   -0.4400 C.2     1  UNL1        0.0040
      9  C          6.5830   -0.9320    0.1700 C.2     1  UNL1        0.0040
     10  C          5.3080    1.3650    0.8470 C.2     1  UNL1        0.0000
     11  C          6.0600   -0.8140    1.4420 C.2     1  UNL1        0.0000
     12  C          5.4150    0.3580    1.7730 C.2     1  UNL1        0.0000
@<TRIPOS>BOND
     1     4     2    1
     2     4     5    1
     3     3     2    2
     4     2     1    1
     5     6     1    1
     6     6     7    1
     7     7     8    2
     8     7     9    1
     9     8    10    1
    10     9    11    2
    11    10    12    2
    12    11    12    1
