MODEL 1
REMARK VINA RESULT:      -7.2      0.000      0.000
REMARK SMILES O=C(O)CCc1ccccc1
REMARK SMILES IDX 4 1 2 2 1 3 3 4 5 6 6 7 7 8 11 9 8 10 10 11 9 12
REMARK H PARENT 3 5
REMARK Flexibility Score: inf
ROOT
ATOM      1  C   UNL     1       8.553  -0.589  -2.284  1.00  0.00     0.127 C 
ENDROOT
BRANCH   1   2
ATOM      2  C   UNL     1       8.548  -1.909  -2.956  1.00  0.00     0.303 C 
ATOM      3  O   UNL     1       9.609  -2.560  -3.121  1.00  0.00    -0.252 OA
BRANCH   2   4
ATOM      4  O   UNL     1       7.366  -2.463  -3.422  1.00  0.00    -0.481 OA
ATOM      5  H   UNL     1       7.205  -3.468  -3.309  1.00  0.00     0.296 HD
ENDBRANCH   2   4
ENDBRANCH   1   2
BRANCH   1   6
ATOM      6  C   UNL     1       7.138  -0.110  -2.175  1.00  0.00     0.047 C 
BRANCH   6   7
ATOM      7  C   UNL     1       6.735   0.250  -0.816  1.00  0.00    -0.047 A 
ATOM      8  C   UNL     1       5.767   1.202  -0.598  1.00  0.00     0.004 A 
ATOM      9  C   UNL     1       7.336  -0.378   0.251  1.00  0.00     0.004 A 
ATOM     10  C   UNL     1       5.431   1.495   0.726  1.00  0.00     0.000 A 
ATOM     11  C   UNL     1       7.003  -0.087   1.559  1.00  0.00     0.000 A 
ATOM     12  C   UNL     1       6.034   0.866   1.786  1.00  0.00     0.000 A 
ENDBRANCH   6   7
ENDBRANCH   1   6
TORSDOF 4
ENDMDL
MODEL 2
REMARK VINA RESULT:      -6.9      3.320      5.102
REMARK SMILES O=C(O)CCc1ccccc1
REMARK SMILES IDX 4 1 2 2 1 3 3 4 5 6 6 7 7 8 11 9 8 10 10 11 9 12
REMARK H PARENT 3 5
REMARK Flexibility Score: inf
ROOT
ATOM      1  C   UNL     1       5.045   1.772   0.645  1.00  0.00     0.127 C 
ENDROOT
BRANCH   1   2
ATOM      2  C   UNL     1       4.600   1.113   1.895  1.00  0.00     0.303 C 
ATOM      3  O   UNL     1       3.480   1.367   2.402  1.00  0.00    -0.252 OA
BRANCH   2   4
ATOM      4  O   UNL     1       5.413   0.195   2.542  1.00  0.00    -0.481 OA
ATOM      5  H   UNL     1       5.786  -0.601   2.017  1.00  0.00     0.296 HD
ENDBRANCH   2   4
ENDBRANCH   1   2
BRANCH   1   6
ATOM      6  C   UNL     1       6.541   1.845   0.657  1.00  0.00     0.047 C 
BRANCH   6   7
ATOM      7  C   UNL     1       7.184   1.048  -0.386  1.00  0.00    -0.047 A 
ATOM      8  C   UNL     1       8.517   1.218  -0.680  1.00  0.00     0.004 A 
ATOM      9  C   UNL     1       6.440   0.118  -1.075  1.00  0.00     0.004 A 
ATOM     10  C   UNL     1       9.065   0.421  -1.687  1.00  0.00     0.000 A 
ATOM     11  C   UNL     1       6.983  -0.668  -2.071  1.00  0.00     0.000 A 
ATOM     12  C   UNL     1       8.318  -0.504  -2.372  1.00  0.00     0.000 A 
ENDBRANCH   6   7
ENDBRANCH   1   6
TORSDOF 4
ENDMDL
