@<TRIPOS>MOLECULE
/home/cewinharhar/GITHUB/reincatalyze/data/processed/docking_pred/2023-May-05-1615_maxeplen10_maxtrainstep1000_seadep16_gamma099_lrac9e-4_lrcr1e-3/96aa1335557473cc7235c71144735280de1f686e_ligand_2.pdbqt
 12 12 0 0 0
SMALL
GASTEIGER

@<TRIPOS>ATOM
      1  C          8.5530   -0.5890   -2.2840 C.3     1  UNL1        0.1270
      2  C          8.5480   -1.9090   -2.9560 C.2     1  UNL1        0.3030
      3  O          9.6090   -2.5600   -3.1210 O.2     1  UNL1       -0.2520
      4  O          7.3660   -2.4630   -3.4220 O.3     1  UNL1       -0.4810
      5  H          7.2050   -3.4680   -3.3090 H       1  UNL1        0.2960
      6  C          7.1380   -0.1100   -2.1750 C.3     1  UNL1        0.0470
      7  C          6.7350    0.2500   -0.8160 C.2     1  UNL1       -0.0470
      8  C          5.7670    1.2020   -0.5980 C.2     1  UNL1        0.0040
      9  C          7.3360   -0.3780    0.2510 C.2     1  UNL1        0.0040
     10  C          5.4310    1.4950    0.7260 C.2     1  UNL1        0.0000
     11  C          7.0030   -0.0870    1.5590 C.2     1  UNL1        0.0000
     12  C          6.0340    0.8660    1.7860 C.2     1  UNL1        0.0000
@<TRIPOS>BOND
     1     4     5    1
     2     4     2    1
     3     3     2    2
     4     2     1    1
     5     1     6    1
     6     6     7    1
     7     7     8    2
     8     7     9    1
     9     8    10    1
    10     9    11    2
    11    10    12    2
    12    11    12    1
