@<TRIPOS>MOLECULE
/home/cewinharhar/GITHUB/reincatalyze/data/processed/docking_pred/2023-May-05-1615_maxeplen10_maxtrainstep1000_seadep16_gamma099_lrac9e-4_lrcr1e-3/96aa1335557473cc7235c71144735280de1f686e_ligand_2.pdbqt
 12 12 0 0 0
SMALL
GASTEIGER

@<TRIPOS>ATOM
      1  C          5.0450    1.7720    0.6450 C.3     1  UNL1        0.1270
      2  C          4.6000    1.1130    1.8950 C.2     1  UNL1        0.3030
      3  O          3.4800    1.3670    2.4020 O.2     1  UNL1       -0.2520
      4  O          5.4130    0.1950    2.5420 O.3     1  UNL1       -0.4810
      5  H          5.7860   -0.6010    2.0170 H       1  UNL1        0.2960
      6  C          6.5410    1.8450    0.6570 C.3     1  UNL1        0.0470
      7  C          7.1840    1.0480   -0.3860 C.2     1  UNL1       -0.0470
      8  C          8.5170    1.2180   -0.6800 C.2     1  UNL1        0.0040
      9  C          6.4400    0.1180   -1.0750 C.2     1  UNL1        0.0040
     10  C          9.0650    0.4210   -1.6870 C.2     1  UNL1        0.0000
     11  C          6.9830   -0.6680   -2.0710 C.2     1  UNL1        0.0000
     12  C          8.3180   -0.5040   -2.3720 C.2     1  UNL1        0.0000
@<TRIPOS>BOND
     1    12    11    2
     2    12    10    1
     3    11     9    1
     4    10     8    2
     5     9     7    2
     6     8     7    1
     7     7     6    1
     8     1     6    1
     9     1     2    1
    10     2     3    2
    11     2     4    1
    12     5     4    1
