MODEL 1
REMARK VINA RESULT:      -7.3      0.000      0.000
REMARK SMILES O=C(O)CCc1ccccc1
REMARK SMILES IDX 4 1 2 2 1 3 3 4 5 6 6 7 7 8 11 9 8 10 10 11 9 12
REMARK H PARENT 3 5
REMARK Flexibility Score: inf
ROOT
ATOM      1  C   UNL     1       8.401  -0.660  -2.071  1.00  0.00     0.127 C 
ENDROOT
BRANCH   1   2
ATOM      2  C   UNL     1       8.371  -1.906  -2.873  1.00  0.00     0.303 C 
ATOM      3  O   UNL     1       7.285  -2.408  -3.254  1.00  0.00    -0.252 OA
BRANCH   2   4
ATOM      4  O   UNL     1       9.545  -2.552  -3.226  1.00  0.00    -0.481 OA
ATOM      5  H   UNL     1      10.375  -1.996  -3.450  1.00  0.00     0.296 HD
ENDBRANCH   2   4
ENDBRANCH   1   2
BRANCH   1   6
ATOM      6  C   UNL     1       7.024  -0.070  -2.066  1.00  0.00     0.047 C 
BRANCH   6   7
ATOM      7  C   UNL     1       6.456   0.102  -0.729  1.00  0.00    -0.047 A 
ATOM      8  C   UNL     1       5.801   1.262  -0.388  1.00  0.00     0.004 A 
ATOM      9  C   UNL     1       6.581  -0.914   0.189  1.00  0.00     0.004 A 
ATOM     10  C   UNL     1       5.283   1.357   0.906  1.00  0.00     0.000 A 
ATOM     11  C   UNL     1       6.069  -0.819   1.468  1.00  0.00     0.000 A 
ATOM     12  C   UNL     1       5.411   0.341   1.818  1.00  0.00     0.000 A 
ENDBRANCH   6   7
ENDBRANCH   1   6
TORSDOF 4
ENDMDL
MODEL 2
REMARK VINA RESULT:      -5.8      2.125      2.736
REMARK SMILES O=C(O)CCc1ccccc1
REMARK SMILES IDX 4 1 2 2 1 3 3 4 5 6 6 7 7 8 11 9 8 10 10 11 9 12
REMARK H PARENT 3 5
REMARK Flexibility Score: inf
ROOT
ATOM      1  C   UNL     1       7.844  -2.245  -0.561  1.00  0.00     0.127 C 
ENDROOT
BRANCH   1   2
ATOM      2  C   UNL     1       8.651  -3.368  -0.029  1.00  0.00     0.303 C 
ATOM      3  O   UNL     1       9.135  -3.330   1.130  1.00  0.00    -0.252 OA
BRANCH   2   4
ATOM      4  O   UNL     1       8.894  -4.495  -0.798  1.00  0.00    -0.481 OA
ATOM      5  H   UNL     1       9.562  -5.195  -0.463  1.00  0.00     0.296 HD
ENDBRANCH   2   4
ENDBRANCH   1   2
BRANCH   1   6
ATOM      6  C   UNL     1       8.215  -1.002   0.188  1.00  0.00     0.047 C 
BRANCH   6   7
ATOM      7  C   UNL     1       7.082  -0.129   0.490  1.00  0.00    -0.047 A 
ATOM      8  C   UNL     1       6.254  -0.395   1.555  1.00  0.00     0.004 A 
ATOM      9  C   UNL     1       6.851   0.970  -0.304  1.00  0.00     0.004 A 
ATOM     10  C   UNL     1       5.191   0.482   1.785  1.00  0.00     0.000 A 
ATOM     11  C   UNL     1       5.800   1.836  -0.076  1.00  0.00     0.000 A 
ATOM     12  C   UNL     1       4.965   1.577   0.989  1.00  0.00     0.000 A 
ENDBRANCH   6   7
ENDBRANCH   1   6
TORSDOF 4
ENDMDL
