@<TRIPOS>MOLECULE
/home/cewinharhar/GITHUB/reincatalyze/data/processed/docking_pred/2023-May-05-1615_maxeplen10_maxtrainstep1000_seadep16_gamma099_lrac9e-4_lrcr1e-3/97a603521aa4ec025b6db977763cb198737ffc85_ligand_2.pdbqt
 12 12 0 0 0
SMALL
GASTEIGER

@<TRIPOS>ATOM
      1  C          8.4010   -0.6600   -2.0710 C.3     1  UNL1        0.1270
      2  C          8.3710   -1.9060   -2.8730 C.2     1  UNL1        0.3030
      3  O          7.2850   -2.4080   -3.2540 O.2     1  UNL1       -0.2520
      4  O          9.5450   -2.5520   -3.2260 O.3     1  UNL1       -0.4810
      5  H         10.3750   -1.9960   -3.4500 H       1  UNL1        0.2960
      6  C          7.0240   -0.0700   -2.0660 C.3     1  UNL1        0.0470
      7  C          6.4560    0.1020   -0.7290 C.2     1  UNL1       -0.0470
      8  C          5.8010    1.2620   -0.3880 C.2     1  UNL1        0.0040
      9  C          6.5810   -0.9140    0.1890 C.2     1  UNL1        0.0040
     10  C          5.2830    1.3570    0.9060 C.2     1  UNL1        0.0000
     11  C          6.0690   -0.8190    1.4680 C.2     1  UNL1        0.0000
     12  C          5.4110    0.3410    1.8180 C.2     1  UNL1        0.0000
@<TRIPOS>BOND
     1     5     4    1
     2     3     2    2
     3     4     2    1
     4     2     1    1
     5     1     6    1
     6     6     7    1
     7     7     8    2
     8     7     9    1
     9     8    10    1
    10     9    11    2
    11    10    12    2
    12    11    12    1
