@<TRIPOS>MOLECULE
/home/cewinharhar/GITHUB/reincatalyze/data/processed/docking_pred/2023-May-05-1615_maxeplen10_maxtrainstep1000_seadep16_gamma099_lrac9e-4_lrcr1e-3/97a603521aa4ec025b6db977763cb198737ffc85_ligand_2.pdbqt
 12 12 0 0 0
SMALL
GASTEIGER

@<TRIPOS>ATOM
      1  C          7.8440   -2.2450   -0.5610 C.3     1  UNL1        0.1270
      2  C          8.6510   -3.3680   -0.0290 C.2     1  UNL1        0.3030
      3  O          9.1350   -3.3300    1.1300 O.2     1  UNL1       -0.2520
      4  O          8.8940   -4.4950   -0.7980 O.3     1  UNL1       -0.4810
      5  H          9.5620   -5.1950   -0.4630 H       1  UNL1        0.2960
      6  C          8.2150   -1.0020    0.1880 C.3     1  UNL1        0.0470
      7  C          7.0820   -0.1290    0.4900 C.2     1  UNL1       -0.0470
      8  C          6.2540   -0.3950    1.5550 C.2     1  UNL1        0.0040
      9  C          6.8510    0.9700   -0.3040 C.2     1  UNL1        0.0040
     10  C          5.1910    0.4820    1.7850 C.2     1  UNL1        0.0000
     11  C          5.8000    1.8360   -0.0760 C.2     1  UNL1        0.0000
     12  C          4.9650    1.5770    0.9890 C.2     1  UNL1        0.0000
@<TRIPOS>BOND
     1     4     5    1
     2     4     2    1
     3     1     2    1
     4     1     6    1
     5     9    11    1
     6     9     7    2
     7    11    12    2
     8     2     3    2
     9     6     7    1
    10     7     8    1
    11    12    10    1
    12     8    10    2
