@<TRIPOS>MOLECULE
/home/cewinharhar/GITHUB/reincatalyze/data/processed/docking_pred/2023-May-05-1615_maxeplen10_maxtrainstep1000_seadep16_gamma099_lrac9e-4_lrcr1e-3/97b80f67ae9ab19215981068b7c743dd8d1e9d0d_ligand_2.pdbqt
 12 12 0 0 0
SMALL
GASTEIGER

@<TRIPOS>ATOM
      1  C          5.9450   -0.8740    1.7880 C.3     1  UNL1        0.1270
      2  C          5.3840    0.4720    2.0490 C.2     1  UNL1        0.3030
      3  O          4.2000    0.6190    2.4410 O.2     1  UNL1       -0.2520
      4  O          6.1550    1.6100    1.8680 O.3     1  UNL1       -0.4810
      5  H          7.0330    1.5420    1.3460 H       1  UNL1        0.2960
      6  C          7.4070   -0.7260    1.4930 C.3     1  UNL1        0.0470
      7  C          7.7180   -0.6250    0.0680 C.2     1  UNL1       -0.0470
      8  C          8.8640    0.0060   -0.3580 C.2     1  UNL1        0.0040
      9  C          6.8500   -1.1710   -0.8490 C.2     1  UNL1        0.0040
     10  C          9.0980    0.0640   -1.7340 C.2     1  UNL1        0.0000
     11  C          7.0830   -1.1110   -2.2090 C.2     1  UNL1        0.0000
     12  C          8.2280   -0.4810   -2.6440 C.2     1  UNL1        0.0000
@<TRIPOS>BOND
     1    12    11    2
     2    12    10    1
     3    11     9    1
     4    10     8    2
     5     9     7    2
     6     8     7    1
     7     7     6    1
     8     5     4    1
     9     6     1    1
    10     1     2    1
    11     4     2    1
    12     2     3    2
