@<TRIPOS>MOLECULE
/home/cewinharhar/GITHUB/reincatalyze/data/processed/docking_pred/2023-May-05-1615_maxeplen10_maxtrainstep1000_seadep16_gamma099_lrac9e-4_lrcr1e-3/97b80f67ae9ab19215981068b7c743dd8d1e9d0d_ligand_2.pdbqt
 12 12 0 0 0
SMALL
GASTEIGER

@<TRIPOS>ATOM
      1  C          5.1140   -0.1280    2.0550 C.3     1  UNL1        0.1270
      2  C          4.4340    1.1870    1.9850 C.2     1  UNL1        0.3030
      3  O          4.9600    2.1610    1.3920 O.2     1  UNL1       -0.2520
      4  O          3.1950    1.3770    2.5760 O.3     1  UNL1       -0.4810
      5  H          2.7630    0.6070    3.0940 H       1  UNL1        0.2960
      6  C          6.5610    0.0720    1.7240 C.3     1  UNL1        0.0470
      7  C          7.0160   -0.6880    0.5610 C.2     1  UNL1       -0.0470
      8  C          6.6120   -0.3430   -0.7070 C.2     1  UNL1        0.0040
      9  C          7.8600   -1.7580    0.7470 C.2     1  UNL1        0.0040
     10  C          7.0860   -1.1130   -1.7720 C.2     1  UNL1        0.0000
     11  C          8.3280   -2.5190   -0.3060 C.2     1  UNL1        0.0000
     12  C          7.9270   -2.1800   -1.5800 C.2     1  UNL1        0.0000
@<TRIPOS>BOND
     1    10    12    2
     2    10     8    1
     3    12    11    1
     4     8     7    2
     5    11     9    2
     6     7     9    1
     7     7     6    1
     8     3     2    2
     9     6     1    1
    10     2     1    1
    11     2     4    1
    12     4     5    1
