@<TRIPOS>MOLECULE
/home/cewinharhar/GITHUB/reincatalyze/data/processed/docking_pred/2023-May-05-1615_maxeplen10_maxtrainstep1000_seadep16_gamma099_lrac9e-4_lrcr1e-3/98720eda2f8b5e3d73e45599e80051818594e19a_ligand_2.pdbqt
 12 12 0 0 0
SMALL
GASTEIGER

@<TRIPOS>ATOM
      1  C          7.2730   -1.2840   -2.1310 C.3     1  UNL1        0.1270
      2  C          8.7050   -1.3380   -2.5060 C.2     1  UNL1        0.3030
      3  O          9.5190   -0.4760   -2.0910 O.2     1  UNL1       -0.2520
      4  O          9.1870   -2.3440   -3.3270 O.3     1  UNL1       -0.4810
      5  H          9.0070   -3.3210   -3.0810 H       1  UNL1        0.2960
      6  C          7.1740   -1.3550   -0.6370 C.3     1  UNL1        0.0470
      7  C          6.4030   -0.2660   -0.0400 C.2     1  UNL1       -0.0470
      8  C          5.9390   -0.3590    1.2520 C.2     1  UNL1        0.0040
      9  C          6.1440    0.8610   -0.7850 C.2     1  UNL1        0.0040
     10  C          5.2100    0.7200    1.7580 C.2     1  UNL1        0.0000
     11  C          5.4230    1.9260   -0.2830 C.2     1  UNL1        0.0000
     12  C          4.9540    1.8410    1.0100 C.2     1  UNL1        0.0000
@<TRIPOS>BOND
     1     4     5    1
     2     4     2    1
     3     2     1    1
     4     2     3    2
     5     1     6    1
     6     9    11    1
     7     9     7    2
     8     6     7    1
     9    11    12    2
    10     7     8    1
    11    12    10    1
    12     8    10    2
