@<TRIPOS>MOLECULE
/home/cewinharhar/GITHUB/reincatalyze/data/processed/docking_pred/2023-May-05-1615_maxeplen10_maxtrainstep1000_seadep16_gamma099_lrac9e-4_lrcr1e-3/98720eda2f8b5e3d73e45599e80051818594e19a_ligand_2.pdbqt
 12 12 0 0 0
SMALL
GASTEIGER

@<TRIPOS>ATOM
      1  C          8.4000   -0.6470   -2.0870 C.3     1  UNL1        0.1270
      2  C          8.3690   -1.8990   -2.8800 C.2     1  UNL1        0.3030
      3  O          7.2830   -2.4080   -3.2500 O.2     1  UNL1       -0.2520
      4  O          9.5430   -2.5420   -3.2360 O.3     1  UNL1       -0.4810
      5  H          9.8490   -3.3590   -2.7000 H       1  UNL1        0.2960
      6  C          7.0200   -0.0620   -2.0770 C.3     1  UNL1        0.0470
      7  C          6.4540    0.1020   -0.7390 C.2     1  UNL1       -0.0470
      8  C          5.7990    1.2600   -0.3910 C.2     1  UNL1        0.0040
      9  C          6.5810   -0.9190    0.1740 C.2     1  UNL1        0.0040
     10  C          5.2820    1.3480    0.9040 C.2     1  UNL1        0.0000
     11  C          6.0700   -0.8300    1.4540 C.2     1  UNL1        0.0000
     12  C          5.4130    0.3270    1.8110 C.2     1  UNL1        0.0000
@<TRIPOS>BOND
     1     3     2    2
     2     4     2    1
     3     4     5    1
     4     2     1    1
     5     1     6    1
     6     6     7    1
     7     7     8    2
     8     7     9    1
     9     8    10    1
    10     9    11    2
    11    10    12    2
    12    11    12    1
