MODEL 1
REMARK VINA RESULT:      -7.3      0.000      0.000
REMARK SMILES O=C(O)CCc1ccccc1
REMARK SMILES IDX 4 1 2 2 1 3 3 4 5 6 6 7 7 8 11 9 8 10 10 11 9 12
REMARK H PARENT 3 5
REMARK Flexibility Score: inf
ROOT
ATOM      1  C   UNL     1       8.400  -0.647  -2.087  1.00  0.00     0.127 C 
ENDROOT
BRANCH   1   2
ATOM      2  C   UNL     1       8.369  -1.899  -2.880  1.00  0.00     0.303 C 
ATOM      3  O   UNL     1       7.283  -2.408  -3.250  1.00  0.00    -0.252 OA
BRANCH   2   4
ATOM      4  O   UNL     1       9.543  -2.542  -3.236  1.00  0.00    -0.481 OA
ATOM      5  H   UNL     1       9.849  -3.359  -2.700  1.00  0.00     0.296 HD
ENDBRANCH   2   4
ENDBRANCH   1   2
BRANCH   1   6
ATOM      6  C   UNL     1       7.020  -0.062  -2.077  1.00  0.00     0.047 C 
BRANCH   6   7
ATOM      7  C   UNL     1       6.454   0.102  -0.739  1.00  0.00    -0.047 A 
ATOM      8  C   UNL     1       5.799   1.260  -0.391  1.00  0.00     0.004 A 
ATOM      9  C   UNL     1       6.581  -0.919   0.174  1.00  0.00     0.004 A 
ATOM     10  C   UNL     1       5.282   1.348   0.904  1.00  0.00     0.000 A 
ATOM     11  C   UNL     1       6.070  -0.830   1.454  1.00  0.00     0.000 A 
ATOM     12  C   UNL     1       5.413   0.327   1.811  1.00  0.00     0.000 A 
ENDBRANCH   6   7
ENDBRANCH   1   6
TORSDOF 4
ENDMDL
MODEL 2
REMARK VINA RESULT:      -7.0      1.020      1.950
REMARK SMILES O=C(O)CCc1ccccc1
REMARK SMILES IDX 4 1 2 2 1 3 3 4 5 6 6 7 7 8 11 9 8 10 10 11 9 12
REMARK H PARENT 3 5
REMARK Flexibility Score: inf
ROOT
ATOM      1  C   UNL     1       7.273  -1.284  -2.131  1.00  0.00     0.127 C 
ENDROOT
BRANCH   1   2
ATOM      2  C   UNL     1       8.705  -1.338  -2.506  1.00  0.00     0.303 C 
ATOM      3  O   UNL     1       9.519  -0.476  -2.091  1.00  0.00    -0.252 OA
BRANCH   2   4
ATOM      4  O   UNL     1       9.187  -2.344  -3.327  1.00  0.00    -0.481 OA
ATOM      5  H   UNL     1       9.007  -3.321  -3.081  1.00  0.00     0.296 HD
ENDBRANCH   2   4
ENDBRANCH   1   2
BRANCH   1   6
ATOM      6  C   UNL     1       7.174  -1.355  -0.637  1.00  0.00     0.047 C 
BRANCH   6   7
ATOM      7  C   UNL     1       6.403  -0.266  -0.040  1.00  0.00    -0.047 A 
ATOM      8  C   UNL     1       5.939  -0.359   1.252  1.00  0.00     0.004 A 
ATOM      9  C   UNL     1       6.144   0.861  -0.785  1.00  0.00     0.004 A 
ATOM     10  C   UNL     1       5.210   0.720   1.758  1.00  0.00     0.000 A 
ATOM     11  C   UNL     1       5.423   1.926  -0.283  1.00  0.00     0.000 A 
ATOM     12  C   UNL     1       4.954   1.841   1.010  1.00  0.00     0.000 A 
ENDBRANCH   6   7
ENDBRANCH   1   6
TORSDOF 4
ENDMDL
