@<TRIPOS>MOLECULE
/home/cewinharhar/GITHUB/reincatalyze/data/processed/docking_pred/2023-May-05-1615_maxeplen10_maxtrainstep1000_seadep16_gamma099_lrac9e-4_lrcr1e-3/98ce2146f260201d1ebb2f82702d5d512d51d1e1_ligand_2.pdbqt
 12 12 0 0 0
SMALL
GASTEIGER

@<TRIPOS>ATOM
      1  C          8.4380   -0.6370   -2.1450 C.3     1  UNL1        0.1270
      2  C          8.4720   -1.9030   -2.9140 C.2     1  UNL1        0.3030
      3  O          9.5480   -2.5240   -3.0970 O.2     1  UNL1       -0.2520
      4  O          7.3130   -2.4370   -3.4540 O.3     1  UNL1       -0.4810
      5  H          6.4640   -1.8650   -3.4830 H       1  UNL1        0.2960
      6  C          7.0250   -0.1360   -2.1250 C.3     1  UNL1        0.0470
      7  C          6.4830    0.0590   -0.7820 C.2     1  UNL1       -0.0470
      8  C          5.8470    1.2310   -0.4440 C.2     1  UNL1        0.0040
      9  C          6.6130   -0.9470    0.1480 C.2     1  UNL1        0.0040
     10  C          5.3530    1.3490    0.8570 C.2     1  UNL1        0.0000
     11  C          6.1240   -0.8290    1.4330 C.2     1  UNL1        0.0000
     12  C          5.4860    0.3420    1.7800 C.2     1  UNL1        0.0000
@<TRIPOS>BOND
     1     5     4    1
     2     4     2    1
     3     3     2    2
     4     2     1    1
     5     1     6    1
     6     6     7    1
     7     7     8    2
     8     7     9    1
     9     8    10    1
    10     9    11    2
    11    10    12    2
    12    11    12    1
