MODEL 1
REMARK VINA RESULT:      -7.3      0.000      0.000
REMARK SMILES O=C(O)CCc1ccccc1
REMARK SMILES IDX 4 1 2 2 1 3 3 4 5 6 6 7 7 8 11 9 8 10 10 11 9 12
REMARK H PARENT 3 5
REMARK Flexibility Score: inf
ROOT
ATOM      1  C   UNL     1       8.404  -0.657  -2.079  1.00  0.00     0.127 C 
ENDROOT
BRANCH   1   2
ATOM      2  C   UNL     1       8.377  -1.903  -2.879  1.00  0.00     0.303 C 
ATOM      3  O   UNL     1       7.292  -2.424  -3.238  1.00  0.00    -0.252 OA
BRANCH   2   4
ATOM      4  O   UNL     1       9.554  -2.530  -3.256  1.00  0.00    -0.481 OA
ATOM      5  H   UNL     1       9.889  -3.332  -2.715  1.00  0.00     0.296 HD
ENDBRANCH   2   4
ENDBRANCH   1   2
BRANCH   1   6
ATOM      6  C   UNL     1       7.027  -0.066  -2.081  1.00  0.00     0.047 C 
BRANCH   6   7
ATOM      7  C   UNL     1       6.451   0.105  -0.748  1.00  0.00    -0.047 A 
ATOM      8  C   UNL     1       5.798   1.268  -0.408  1.00  0.00     0.004 A 
ATOM      9  C   UNL     1       6.566  -0.913   0.169  1.00  0.00     0.004 A 
ATOM     10  C   UNL     1       5.272   1.362   0.882  1.00  0.00     0.000 A 
ATOM     11  C   UNL     1       6.046  -0.818   1.445  1.00  0.00     0.000 A 
ATOM     12  C   UNL     1       5.391   0.343   1.794  1.00  0.00     0.000 A 
ENDBRANCH   6   7
ENDBRANCH   1   6
TORSDOF 4
ENDMDL
