@<TRIPOS>MOLECULE
/home/cewinharhar/GITHUB/reincatalyze/data/processed/docking_pred/2023-May-05-1615_maxeplen10_maxtrainstep1000_seadep16_gamma099_lrac9e-4_lrcr1e-3/997502eef14bd29bcae885dcaca07b1b91ed0439_ligand_2.pdbqt
 12 12 0 0 0
SMALL
GASTEIGER

@<TRIPOS>ATOM
      1  C          8.4040   -0.6570   -2.0790 C.3     1  UNL1        0.1270
      2  C          8.3770   -1.9030   -2.8790 C.2     1  UNL1        0.3030
      3  O          7.2920   -2.4240   -3.2380 O.2     1  UNL1       -0.2520
      4  O          9.5540   -2.5300   -3.2560 O.3     1  UNL1       -0.4810
      5  H          9.8890   -3.3320   -2.7150 H       1  UNL1        0.2960
      6  C          7.0270   -0.0660   -2.0810 C.3     1  UNL1        0.0470
      7  C          6.4510    0.1050   -0.7480 C.2     1  UNL1       -0.0470
      8  C          5.7980    1.2680   -0.4080 C.2     1  UNL1        0.0040
      9  C          6.5660   -0.9130    0.1690 C.2     1  UNL1        0.0040
     10  C          5.2720    1.3620    0.8820 C.2     1  UNL1        0.0000
     11  C          6.0460   -0.8180    1.4450 C.2     1  UNL1        0.0000
     12  C          5.3910    0.3430    1.7940 C.2     1  UNL1        0.0000
@<TRIPOS>BOND
     1     4     2    1
     2     4     5    1
     3     3     2    2
     4     2     1    1
     5     6     1    1
     6     6     7    1
     7     7     8    2
     8     7     9    1
     9     8    10    1
    10     9    11    2
    11    10    12    2
    12    11    12    1
