@<TRIPOS>MOLECULE
/home/cewinharhar/GITHUB/reincatalyze/data/processed/docking_pred/2023-May-05-1615_maxeplen10_maxtrainstep1000_seadep16_gamma099_lrac9e-4_lrcr1e-3/9c92d7019ca479aa147a964f0da84773825070a7_ligand_2.pdbqt
 12 12 0 0 0
SMALL
GASTEIGER

@<TRIPOS>ATOM
      1  C          8.3990   -0.6420   -2.0930 C.3     1  UNL1        0.1270
      2  C          8.3700   -1.8960   -2.8810 C.2     1  UNL1        0.3030
      3  O          7.2830   -2.4090   -3.2490 O.2     1  UNL1       -0.2520
      4  O          9.5440   -2.5410   -3.2350 O.3     1  UNL1       -0.4810
      5  H         10.2990   -2.6190   -2.5480 H       1  UNL1        0.2960
      6  C          7.0180   -0.0610   -2.0810 C.3     1  UNL1        0.0470
      7  C          6.4540    0.1030   -0.7420 C.2     1  UNL1       -0.0470
      8  C          5.7990    1.2600   -0.3910 C.2     1  UNL1        0.0040
      9  C          6.5830   -0.9190    0.1700 C.2     1  UNL1        0.0040
     10  C          5.2850    1.3470    0.9040 C.2     1  UNL1        0.0000
     11  C          6.0740   -0.8310    1.4510 C.2     1  UNL1        0.0000
     12  C          5.4170    0.3250    1.8110 C.2     1  UNL1        0.0000
@<TRIPOS>BOND
     1     3     2    2
     2     4     2    1
     3     4     5    1
     4     2     1    1
     5     1     6    1
     6     6     7    1
     7     7     8    2
     8     7     9    1
     9     8    10    1
    10     9    11    2
    11    10    12    2
    12    11    12    1
