MODEL 1
REMARK VINA RESULT:      -7.3      0.000      0.000
REMARK SMILES O=C(O)CCc1ccccc1
REMARK SMILES IDX 4 1 2 2 1 3 3 4 5 6 6 7 7 8 11 9 8 10 10 11 9 12
REMARK H PARENT 3 5
REMARK Flexibility Score: inf
ROOT
ATOM      1  C   UNL     1       8.399  -0.642  -2.093  1.00  0.00     0.127 C 
ENDROOT
BRANCH   1   2
ATOM      2  C   UNL     1       8.370  -1.896  -2.881  1.00  0.00     0.303 C 
ATOM      3  O   UNL     1       7.283  -2.409  -3.249  1.00  0.00    -0.252 OA
BRANCH   2   4
ATOM      4  O   UNL     1       9.544  -2.541  -3.235  1.00  0.00    -0.481 OA
ATOM      5  H   UNL     1      10.299  -2.619  -2.548  1.00  0.00     0.296 HD
ENDBRANCH   2   4
ENDBRANCH   1   2
BRANCH   1   6
ATOM      6  C   UNL     1       7.018  -0.061  -2.081  1.00  0.00     0.047 C 
BRANCH   6   7
ATOM      7  C   UNL     1       6.454   0.103  -0.742  1.00  0.00    -0.047 A 
ATOM      8  C   UNL     1       5.799   1.260  -0.391  1.00  0.00     0.004 A 
ATOM      9  C   UNL     1       6.583  -0.919   0.170  1.00  0.00     0.004 A 
ATOM     10  C   UNL     1       5.285   1.347   0.904  1.00  0.00     0.000 A 
ATOM     11  C   UNL     1       6.074  -0.831   1.451  1.00  0.00     0.000 A 
ATOM     12  C   UNL     1       5.417   0.325   1.811  1.00  0.00     0.000 A 
ENDBRANCH   6   7
ENDBRANCH   1   6
TORSDOF 4
ENDMDL
MODEL 2
REMARK VINA RESULT:      -7.0      1.022      1.950
REMARK SMILES O=C(O)CCc1ccccc1
REMARK SMILES IDX 4 1 2 2 1 3 3 4 5 6 6 7 7 8 11 9 8 10 10 11 9 12
REMARK H PARENT 3 5
REMARK Flexibility Score: inf
ROOT
ATOM      1  C   UNL     1       7.259  -1.246  -2.159  1.00  0.00     0.127 C 
ENDROOT
BRANCH   1   2
ATOM      2  C   UNL     1       8.696  -1.313  -2.513  1.00  0.00     0.303 C 
ATOM      3  O   UNL     1       9.512  -0.460  -2.083  1.00  0.00    -0.252 OA
BRANCH   2   4
ATOM      4  O   UNL     1       9.181  -2.322  -3.330  1.00  0.00    -0.481 OA
ATOM      5  H   UNL     1      10.094  -2.208  -3.777  1.00  0.00     0.296 HD
ENDBRANCH   2   4
ENDBRANCH   1   2
BRANCH   1   6
ATOM      6  C   UNL     1       7.134  -1.355  -0.670  1.00  0.00     0.047 C 
BRANCH   6   7
ATOM      7  C   UNL     1       6.371  -0.269  -0.057  1.00  0.00    -0.047 A 
ATOM      8  C   UNL     1       5.919  -0.372   1.238  1.00  0.00     0.004 A 
ATOM      9  C   UNL     1       6.109   0.865  -0.790  1.00  0.00     0.004 A 
ATOM     10  C   UNL     1       5.197   0.704   1.760  1.00  0.00     0.000 A 
ATOM     11  C   UNL     1       5.395   1.927  -0.272  1.00  0.00     0.000 A 
ATOM     12  C   UNL     1       4.938   1.832   1.024  1.00  0.00     0.000 A 
ENDBRANCH   6   7
ENDBRANCH   1   6
TORSDOF 4
ENDMDL
