@<TRIPOS>MOLECULE
/home/cewinharhar/GITHUB/reincatalyze/data/processed/docking_pred/2023-May-05-1615_maxeplen10_maxtrainstep1000_seadep16_gamma099_lrac9e-4_lrcr1e-3/9c92d7019ca479aa147a964f0da84773825070a7_ligand_2.pdbqt
 12 12 0 0 0
SMALL
GASTEIGER

@<TRIPOS>ATOM
      1  C          7.2590   -1.2460   -2.1590 C.3     1  UNL1        0.1270
      2  C          8.6960   -1.3130   -2.5130 C.2     1  UNL1        0.3030
      3  O          9.5120   -0.4600   -2.0830 O.2     1  UNL1       -0.2520
      4  O          9.1810   -2.3220   -3.3300 O.3     1  UNL1       -0.4810
      5  H         10.0940   -2.2080   -3.7770 H       1  UNL1        0.2960
      6  C          7.1340   -1.3550   -0.6700 C.3     1  UNL1        0.0470
      7  C          6.3710   -0.2690   -0.0570 C.2     1  UNL1       -0.0470
      8  C          5.9190   -0.3720    1.2380 C.2     1  UNL1        0.0040
      9  C          6.1090    0.8650   -0.7900 C.2     1  UNL1        0.0040
     10  C          5.1970    0.7040    1.7600 C.2     1  UNL1        0.0000
     11  C          5.3950    1.9270   -0.2720 C.2     1  UNL1        0.0000
     12  C          4.9380    1.8320    1.0240 C.2     1  UNL1        0.0000
@<TRIPOS>BOND
     1     5     4    1
     2     4     2    1
     3     2     1    1
     4     2     3    2
     5     1     6    1
     6     9    11    1
     7     9     7    2
     8     6     7    1
     9    11    12    2
    10     7     8    1
    11    12    10    1
    12     8    10    2
