MODEL 1
REMARK VINA RESULT:      -7.3      0.000      0.000
REMARK SMILES O=C(O)CCc1ccccc1
REMARK SMILES IDX 4 1 2 2 1 3 3 4 5 6 6 7 7 8 11 9 8 10 10 11 9 12
REMARK H PARENT 3 5
REMARK Flexibility Score: inf
ROOT
ATOM      1  C   UNL     1       8.466  -0.667  -2.074  1.00  0.00     0.127 C 
ENDROOT
BRANCH   1   2
ATOM      2  C   UNL     1       8.479  -1.907  -2.886  1.00  0.00     0.303 C 
ATOM      3  O   UNL     1       9.546  -2.533  -3.101  1.00  0.00    -0.252 OA
BRANCH   2   4
ATOM      4  O   UNL     1       7.309  -2.411  -3.430  1.00  0.00    -0.481 OA
ATOM      5  H   UNL     1       7.224  -2.492  -4.448  1.00  0.00     0.296 HD
ENDBRANCH   2   4
ENDBRANCH   1   2
BRANCH   1   6
ATOM      6  C   UNL     1       7.075  -0.112  -2.085  1.00  0.00     0.047 C 
BRANCH   6   7
ATOM      7  C   UNL     1       6.492   0.060  -0.755  1.00  0.00    -0.047 A 
ATOM      8  C   UNL     1       5.840   1.223  -0.418  1.00  0.00     0.004 A 
ATOM      9  C   UNL     1       6.602  -0.960   0.162  1.00  0.00     0.004 A 
ATOM     10  C   UNL     1       5.307   1.317   0.870  1.00  0.00     0.000 A 
ATOM     11  C   UNL     1       6.075  -0.864   1.435  1.00  0.00     0.000 A 
ATOM     12  C   UNL     1       5.420   0.298   1.781  1.00  0.00     0.000 A 
ENDBRANCH   6   7
ENDBRANCH   1   6
TORSDOF 4
ENDMDL
