@<TRIPOS>MOLECULE
/home/cewinharhar/GITHUB/reincatalyze/data/processed/docking_pred/2023-May-05-1615_maxeplen10_maxtrainstep1000_seadep16_gamma099_lrac9e-4_lrcr1e-3/9cf679a9c5542d052f5b9fd38195e755841f8057_ligand_2.pdbqt
 12 12 0 0 0
SMALL
GASTEIGER

@<TRIPOS>ATOM
      1  C          8.4660   -0.6670   -2.0740 C.3     1  UNL1        0.1270
      2  C          8.4790   -1.9070   -2.8860 C.2     1  UNL1        0.3030
      3  O          9.5460   -2.5330   -3.1010 O.2     1  UNL1       -0.2520
      4  O          7.3090   -2.4110   -3.4300 O.3     1  UNL1       -0.4810
      5  H          7.2240   -2.4920   -4.4480 H       1  UNL1        0.2960
      6  C          7.0750   -0.1120   -2.0850 C.3     1  UNL1        0.0470
      7  C          6.4920    0.0600   -0.7550 C.2     1  UNL1       -0.0470
      8  C          5.8400    1.2230   -0.4180 C.2     1  UNL1        0.0040
      9  C          6.6020   -0.9600    0.1620 C.2     1  UNL1        0.0040
     10  C          5.3070    1.3170    0.8700 C.2     1  UNL1        0.0000
     11  C          6.0750   -0.8640    1.4350 C.2     1  UNL1        0.0000
     12  C          5.4200    0.2980    1.7810 C.2     1  UNL1        0.0000
@<TRIPOS>BOND
     1     5     4    1
     2     4     2    1
     3     3     2    2
     4     2     1    1
     5     6     1    1
     6     6     7    1
     7     7     8    2
     8     7     9    1
     9     8    10    1
    10     9    11    2
    11    10    12    2
    12    11    12    1
