@<TRIPOS>MOLECULE
/home/cewinharhar/GITHUB/reincatalyze/data/processed/docking_pred/2023-May-05-1615_maxeplen10_maxtrainstep1000_seadep16_gamma099_lrac9e-4_lrcr1e-3/9e6208548f5309b91e7f4e881f40d3475c8e3dc2_ligand_2.pdbqt
 12 12 0 0 0
SMALL
GASTEIGER

@<TRIPOS>ATOM
      1  C          7.2620   -1.2790   -2.1620 C.3     1  UNL1        0.1270
      2  C          8.7020   -1.3210   -2.5130 C.2     1  UNL1        0.3030
      3  O          9.5030   -0.4580   -2.0780 O.2     1  UNL1       -0.2520
      4  O          9.2030   -2.3180   -3.3340 O.3     1  UNL1       -0.4810
      5  H          9.7420   -3.0840   -2.9200 H       1  UNL1        0.2960
      6  C          7.1390   -1.3680   -0.6710 C.3     1  UNL1        0.0470
      7  C          6.3790   -0.2720   -0.0710 C.2     1  UNL1       -0.0470
      8  C          5.9310   -0.3540    1.2270 C.2     1  UNL1        0.0040
      9  C          6.1160    0.8510   -0.8210 C.2     1  UNL1        0.0040
     10  C          5.2130    0.7300    1.7350 C.2     1  UNL1        0.0000
     11  C          5.4050    1.9230   -0.3170 C.2     1  UNL1        0.0000
     12  C          4.9520    1.8480    0.9820 C.2     1  UNL1        0.0000
@<TRIPOS>BOND
     1     4     5    1
     2     4     2    1
     3     2     1    1
     4     2     3    2
     5     1     6    1
     6     9    11    1
     7     9     7    2
     8     6     7    1
     9    11    12    2
    10     7     8    1
    11    12    10    1
    12     8    10    2
