@<TRIPOS>MOLECULE
/home/cewinharhar/GITHUB/reincatalyze/data/processed/docking_pred/2023-May-05-1615_maxeplen10_maxtrainstep1000_seadep16_gamma099_lrac9e-4_lrcr1e-3/9fad910e57fbde25b93c61ef9d3287f531a6e420_ligand_2.pdbqt
 12 12 0 0 0
SMALL
GASTEIGER

@<TRIPOS>ATOM
      1  C          6.1040    1.4270    1.2170 C.3     1  UNL1        0.1270
      2  C          5.2630    0.5190    2.0330 C.2     1  UNL1        0.3030
      3  O          5.6730   -0.6180    2.3740 O.2     1  UNL1       -0.2520
      4  O          3.9960    0.9020    2.4420 O.3     1  UNL1       -0.4810
      5  H          3.3830    0.2120    2.8860 H       1  UNL1        0.2960
      6  C          5.7950    1.1830   -0.2280 C.3     1  UNL1        0.0470
      7  C          6.8750    0.5290   -0.9650 C.2     1  UNL1       -0.0470
      8  C          8.1610    1.0160   -0.9080 C.2     1  UNL1        0.0040
      9  C          6.5940   -0.5870   -1.7190 C.2     1  UNL1        0.0040
     10  C          9.1430    0.3400   -1.6360 C.2     1  UNL1        0.0000
     11  C          7.5660   -1.2530   -2.4390 C.2     1  UNL1        0.0000
     12  C          8.8560   -0.7710   -2.3880 C.2     1  UNL1        0.0000
@<TRIPOS>BOND
     1    11    12    2
     2    11     9    1
     3    12    10    1
     4     9     7    2
     5    10     8    2
     6     7     8    1
     7     7     6    1
     8     6     1    1
     9     1     2    1
    10     2     3    2
    11     2     4    1
    12     4     5    1
