@<TRIPOS>MOLECULE
/home/cewinharhar/GITHUB/reincatalyze/data/processed/docking_pred/2023-May-05-1615_maxeplen10_maxtrainstep1000_seadep16_gamma099_lrac9e-4_lrcr1e-3/a1c3c4a97d6bd518e48ffa0772dda1f342f6565e_ligand_2.pdbqt
 12 12 0 0 0
SMALL
GASTEIGER

@<TRIPOS>ATOM
      1  C          8.4530   -0.6740   -2.0630 C.3     1  UNL1        0.1270
      2  C          8.4630   -1.9170   -2.8700 C.2     1  UNL1        0.3030
      3  O          9.5290   -2.5490   -3.0790 O.2     1  UNL1       -0.2520
      4  O          7.2930   -2.4180   -3.4180 O.3     1  UNL1       -0.4810
      5  H          6.5490   -1.7690   -3.6890 H       1  UNL1        0.2960
      6  C          7.0620   -0.1170   -2.0750 C.3     1  UNL1        0.0470
      7  C          6.4800    0.0580   -0.7460 C.2     1  UNL1       -0.0470
      8  C          5.8350    1.2250   -0.4080 C.2     1  UNL1        0.0040
      9  C          6.5820   -0.9630    0.1710 C.2     1  UNL1        0.0040
     10  C          5.3020    1.3220    0.8790 C.2     1  UNL1        0.0000
     11  C          6.0550   -0.8650    1.4440 C.2     1  UNL1        0.0000
     12  C          5.4080    0.3010    1.7900 C.2     1  UNL1        0.0000
@<TRIPOS>BOND
     1     5     4    1
     2     4     2    1
     3     3     2    2
     4     2     1    1
     5     6     1    1
     6     6     7    1
     7     7     8    2
     8     7     9    1
     9     8    10    1
    10     9    11    2
    11    10    12    2
    12    11    12    1
