@<TRIPOS>MOLECULE
/home/cewinharhar/GITHUB/reincatalyze/data/processed/docking_pred/2023-May-05-1615_maxeplen10_maxtrainstep1000_seadep16_gamma099_lrac9e-4_lrcr1e-3/a1c3c4a97d6bd518e48ffa0772dda1f342f6565e_ligand_2.pdbqt
 12 12 0 0 0
SMALL
GASTEIGER

@<TRIPOS>ATOM
      1  C          8.3150   -0.5910   -2.1140 C.3     1  UNL1        0.1270
      2  C          8.3280   -1.8520   -2.8930 C.2     1  UNL1        0.3030
      3  O          7.2600   -2.3970   -3.2660 O.2     1  UNL1       -0.2520
      4  O          9.5230   -2.4660   -3.2300 O.3     1  UNL1       -0.4810
      5  H          9.7140   -3.4130   -2.8910 H       1  UNL1        0.2960
      6  C          6.9770   -0.4590   -1.4530 C.3     1  UNL1        0.0470
      7  C          6.8070    0.7800   -0.6970 C.2     1  UNL1       -0.0470
      8  C          7.8750    1.3670   -0.0600 C.2     1  UNL1        0.0040
      9  C          5.5610    1.3590   -0.6290 C.2     1  UNL1        0.0040
     10  C          7.6400    2.5510    0.6440 C.2     1  UNL1        0.0000
     11  C          5.3300    2.5290    0.0680 C.2     1  UNL1        0.0000
     12  C          6.3950    3.1240    0.7090 C.2     1  UNL1        0.0000
@<TRIPOS>BOND
     1     3     2    2
     2     4     2    1
     3     4     5    1
     4     2     1    1
     5     1     6    1
     6     6     7    1
     7     7     9    2
     8     7     8    1
     9     9    11    1
    10     8    10    2
    11    11    12    2
    12    10    12    1
