MODEL 1
REMARK VINA RESULT:      -6.5      0.000      0.000
REMARK SMILES O=C(O)CCc1ccccc1
REMARK SMILES IDX 4 1 2 2 1 3 3 4 5 6 6 7 7 8 11 9 8 10 10 11 9 12
REMARK H PARENT 3 5
REMARK Flexibility Score: inf
ROOT
ATOM      1  C   UNL     1       8.309  -0.679  -2.169  1.00  0.00     0.127 C 
ENDROOT
BRANCH   1   2
ATOM      2  C   UNL     1       8.437  -1.948  -2.924  1.00  0.00     0.303 C 
ATOM      3  O   UNL     1       9.554  -2.498  -3.090  1.00  0.00    -0.252 OA
BRANCH   2   4
ATOM      4  O   UNL     1       7.322  -2.563  -3.471  1.00  0.00    -0.481 OA
ATOM      5  H   UNL     1       6.604  -2.944  -2.849  1.00  0.00     0.296 HD
ENDBRANCH   2   4
ENDBRANCH   1   2
BRANCH   1   6
ATOM      6  C   UNL     1       6.884  -0.534  -1.729  1.00  0.00     0.047 C 
BRANCH   6   7
ATOM      7  C   UNL     1       6.685  -0.709  -0.292  1.00  0.00    -0.047 A 
ATOM      8  C   UNL     1       7.300  -1.737   0.384  1.00  0.00     0.004 A 
ATOM      9  C   UNL     1       5.872   0.171   0.385  1.00  0.00     0.004 A 
ATOM     10  C   UNL     1       7.065  -1.843   1.757  1.00  0.00     0.000 A 
ATOM     11  C   UNL     1       5.640   0.065   1.742  1.00  0.00     0.000 A 
ATOM     12  C   UNL     1       6.252  -0.963   2.426  1.00  0.00     0.000 A 
ENDBRANCH   6   7
ENDBRANCH   1   6
TORSDOF 4
ENDMDL
MODEL 2
REMARK VINA RESULT:      -6.3      3.196      4.941
REMARK SMILES O=C(O)CCc1ccccc1
REMARK SMILES IDX 4 1 2 2 1 3 3 4 5 6 6 7 7 8 11 9 8 10 10 11 9 12
REMARK H PARENT 3 5
REMARK Flexibility Score: inf
ROOT
ATOM      1  C   UNL     1       5.960  -0.881   1.787  1.00  0.00     0.127 C 
ENDROOT
BRANCH   1   2
ATOM      2  C   UNL     1       5.384   0.458   2.050  1.00  0.00     0.303 C 
ATOM      3  O   UNL     1       4.202   0.590   2.454  1.00  0.00    -0.252 OA
BRANCH   2   4
ATOM      4  O   UNL     1       6.136   1.605   1.855  1.00  0.00    -0.481 OA
ATOM      5  H   UNL     1       6.964   1.766   2.435  1.00  0.00     0.296 HD
ENDBRANCH   2   4
ENDBRANCH   1   2
BRANCH   1   6
ATOM      6  C   UNL     1       7.420  -0.716   1.493  1.00  0.00     0.047 C 
BRANCH   6   7
ATOM      7  C   UNL     1       7.733  -0.623   0.068  1.00  0.00    -0.047 A 
ATOM      8  C   UNL     1       8.874   0.014  -0.361  1.00  0.00     0.004 A 
ATOM      9  C   UNL     1       6.870  -1.182  -0.847  1.00  0.00     0.004 A 
ATOM     10  C   UNL     1       9.110   0.064  -1.737  1.00  0.00     0.000 A 
ATOM     11  C   UNL     1       7.104  -1.130  -2.207  1.00  0.00     0.000 A 
ATOM     12  C   UNL     1       8.246  -0.494  -2.645  1.00  0.00     0.000 A 
ENDBRANCH   6   7
ENDBRANCH   1   6
TORSDOF 4
ENDMDL
MODEL 3
REMARK VINA RESULT:      -6.1      3.452      5.101
REMARK SMILES O=C(O)CCc1ccccc1
REMARK SMILES IDX 4 1 2 2 1 3 3 4 5 6 6 7 7 8 11 9 8 10 10 11 9 12
REMARK H PARENT 3 5
REMARK Flexibility Score: inf
ROOT
ATOM      1  C   UNL     1       5.101  -0.127   2.046  1.00  0.00     0.127 C 
ENDROOT
BRANCH   1   2
ATOM      2  C   UNL     1       4.418   1.187   1.975  1.00  0.00     0.303 C 
ATOM      3  O   UNL     1       4.936   2.157   1.369  1.00  0.00    -0.252 OA
BRANCH   2   4
ATOM      4  O   UNL     1       3.186   1.380   2.578  1.00  0.00    -0.481 OA
ATOM      5  H   UNL     1       2.657   2.232   2.375  1.00  0.00     0.296 HD
ENDBRANCH   2   4
ENDBRANCH   1   2
BRANCH   1   6
ATOM      6  C   UNL     1       6.550   0.077   1.724  1.00  0.00     0.047 C 
BRANCH   6   7
ATOM      7  C   UNL     1       7.017  -0.693   0.572  1.00  0.00    -0.047 A 
ATOM      8  C   UNL     1       6.625  -0.358  -0.704  1.00  0.00     0.004 A 
ATOM      9  C   UNL     1       7.858  -1.762   0.775  1.00  0.00     0.004 A 
ATOM     10  C   UNL     1       7.111  -1.137  -1.756  1.00  0.00     0.000 A 
ATOM     11  C   UNL     1       8.337  -2.531  -0.266  1.00  0.00     0.000 A 
ATOM     12  C   UNL     1       7.949  -2.202  -1.547  1.00  0.00     0.000 A 
ENDBRANCH   6   7
ENDBRANCH   1   6
TORSDOF 4
ENDMDL
