@<TRIPOS>MOLECULE
/home/cewinharhar/GITHUB/reincatalyze/data/processed/docking_pred/2023-May-05-1615_maxeplen10_maxtrainstep1000_seadep16_gamma099_lrac9e-4_lrcr1e-3/a450f47ca4f24610d4ad642e19216dd37a68a7e2_ligand_2.pdbqt
 12 12 0 0 0
SMALL
GASTEIGER

@<TRIPOS>ATOM
      1  C          8.3090   -0.6790   -2.1690 C.3     1  UNL1        0.1270
      2  C          8.4370   -1.9480   -2.9240 C.2     1  UNL1        0.3030
      3  O          9.5540   -2.4980   -3.0900 O.2     1  UNL1       -0.2520
      4  O          7.3220   -2.5630   -3.4710 O.3     1  UNL1       -0.4810
      5  H          6.6040   -2.9440   -2.8490 H       1  UNL1        0.2960
      6  C          6.8840   -0.5340   -1.7290 C.3     1  UNL1        0.0470
      7  C          6.6850   -0.7090   -0.2920 C.2     1  UNL1       -0.0470
      8  C          7.3000   -1.7370    0.3840 C.2     1  UNL1        0.0040
      9  C          5.8720    0.1710    0.3850 C.2     1  UNL1        0.0040
     10  C          7.0650   -1.8430    1.7570 C.2     1  UNL1        0.0000
     11  C          5.6400    0.0650    1.7420 C.2     1  UNL1        0.0000
     12  C          6.2520   -0.9630    2.4260 C.2     1  UNL1        0.0000
@<TRIPOS>BOND
     1     4     2    1
     2     4     5    1
     3     3     2    2
     4     2     1    1
     5     1     6    1
     6     6     7    1
     7     7     8    2
     8     7     9    1
     9     8    10    1
    10     9    11    2
    11    11    12    1
    12    10    12    2
