@<TRIPOS>MOLECULE
/home/cewinharhar/GITHUB/reincatalyze/data/processed/docking_pred/2023-May-05-1615_maxeplen10_maxtrainstep1000_seadep16_gamma099_lrac9e-4_lrcr1e-3/a450f47ca4f24610d4ad642e19216dd37a68a7e2_ligand_2.pdbqt
 12 12 0 0 0
SMALL
GASTEIGER

@<TRIPOS>ATOM
      1  C          5.1010   -0.1270    2.0460 C.3     1  UNL1        0.1270
      2  C          4.4180    1.1870    1.9750 C.2     1  UNL1        0.3030
      3  O          4.9360    2.1570    1.3690 O.2     1  UNL1       -0.2520
      4  O          3.1860    1.3800    2.5780 O.3     1  UNL1       -0.4810
      5  H          2.6570    2.2320    2.3750 H       1  UNL1        0.2960
      6  C          6.5500    0.0770    1.7240 C.3     1  UNL1        0.0470
      7  C          7.0170   -0.6930    0.5720 C.2     1  UNL1       -0.0470
      8  C          6.6250   -0.3580   -0.7040 C.2     1  UNL1        0.0040
      9  C          7.8580   -1.7620    0.7750 C.2     1  UNL1        0.0040
     10  C          7.1110   -1.1370   -1.7560 C.2     1  UNL1        0.0000
     11  C          8.3370   -2.5310   -0.2660 C.2     1  UNL1        0.0000
     12  C          7.9490   -2.2020   -1.5470 C.2     1  UNL1        0.0000
@<TRIPOS>BOND
     1    10    12    2
     2    10     8    1
     3    12    11    1
     4     8     7    2
     5    11     9    2
     6     7     9    1
     7     7     6    1
     8     3     2    2
     9     6     1    1
    10     2     1    1
    11     2     4    1
    12     5     4    1
