@<TRIPOS>MOLECULE
/home/cewinharhar/GITHUB/reincatalyze/data/processed/docking_pred/2023-May-05-1615_maxeplen10_maxtrainstep1000_seadep16_gamma099_lrac9e-4_lrcr1e-3/a450f47ca4f24610d4ad642e19216dd37a68a7e2_ligand_2.pdbqt
 12 12 0 0 0
SMALL
GASTEIGER

@<TRIPOS>ATOM
      1  C          5.9600   -0.8810    1.7870 C.3     1  UNL1        0.1270
      2  C          5.3840    0.4580    2.0500 C.2     1  UNL1        0.3030
      3  O          4.2020    0.5900    2.4540 O.2     1  UNL1       -0.2520
      4  O          6.1360    1.6050    1.8550 O.3     1  UNL1       -0.4810
      5  H          6.9640    1.7660    2.4350 H       1  UNL1        0.2960
      6  C          7.4200   -0.7160    1.4930 C.3     1  UNL1        0.0470
      7  C          7.7330   -0.6230    0.0680 C.2     1  UNL1       -0.0470
      8  C          8.8740    0.0140   -0.3610 C.2     1  UNL1        0.0040
      9  C          6.8700   -1.1820   -0.8470 C.2     1  UNL1        0.0040
     10  C          9.1100    0.0640   -1.7370 C.2     1  UNL1        0.0000
     11  C          7.1040   -1.1300   -2.2070 C.2     1  UNL1        0.0000
     12  C          8.2460   -0.4940   -2.6450 C.2     1  UNL1        0.0000
@<TRIPOS>BOND
     1    12    11    2
     2    12    10    1
     3    11     9    1
     4    10     8    2
     5     9     7    2
     6     8     7    1
     7     7     6    1
     8     6     1    1
     9     1     2    1
    10     4     2    1
    11     4     5    1
    12     2     3    2
