@<TRIPOS>MOLECULE
/home/cewinharhar/GITHUB/reincatalyze/data/processed/docking_pred/2023-May-05-1615_maxeplen10_maxtrainstep1000_seadep16_gamma099_lrac9e-4_lrcr1e-3/a5b16c92fd7591d551db5a31bdb9c28d24e6a5b8_ligand_2.pdbqt
 12 12 0 0 0
SMALL
GASTEIGER

@<TRIPOS>ATOM
      1  C          8.3340   -0.5460   -2.2600 C.3     1  UNL1        0.1270
      2  C          8.4160   -1.8610   -2.9400 C.2     1  UNL1        0.3030
      3  O          9.5140   -2.4530   -3.0820 O.2     1  UNL1       -0.2520
      4  O          7.2780   -2.4740   -3.4390 O.3     1  UNL1       -0.4810
      5  H          7.1650   -3.4850   -3.3290 H       1  UNL1        0.2960
      6  C          7.0210   -0.4670   -1.5440 C.3     1  UNL1        0.0470
      7  C          6.8440    0.7530   -0.7590 C.2     1  UNL1       -0.0470
      8  C          7.9150    1.3480   -0.1330 C.2     1  UNL1        0.0040
      9  C          5.5890    1.3070   -0.6530 C.2     1  UNL1        0.0040
     10  C          7.6720    2.5130    0.5990 C.2     1  UNL1        0.0000
     11  C          5.3510    2.4580    0.0720 C.2     1  UNL1        0.0000
     12  C          6.4180    3.0600    0.7030 C.2     1  UNL1        0.0000
@<TRIPOS>BOND
     1     4     5    1
     2     4     2    1
     3     3     2    2
     4     2     1    1
     5     1     6    1
     6     6     7    1
     7     7     9    2
     8     7     8    1
     9     9    11    1
    10     8    10    2
    11    11    12    2
    12    10    12    1
