MODEL 1
REMARK VINA RESULT:      -7.0      0.000      0.000
REMARK SMILES O=C(O)CCc1ccccc1
REMARK SMILES IDX 4 1 2 2 1 3 3 4 5 6 6 7 7 8 11 9 8 10 10 11 9 12
REMARK H PARENT 3 5
REMARK Flexibility Score: inf
ROOT
ATOM      1  C   UNL     1       8.402  -0.664  -2.067  1.00  0.00     0.127 C 
ENDROOT
BRANCH   1   2
ATOM      2  C   UNL     1       8.372  -1.904  -2.878  1.00  0.00     0.303 C 
ATOM      3  O   UNL     1       7.285  -2.411  -3.251  1.00  0.00    -0.252 OA
BRANCH   2   4
ATOM      4  O   UNL     1       9.546  -2.540  -3.246  1.00  0.00    -0.481 OA
ATOM      5  H   UNL     1      10.287  -2.666  -2.551  1.00  0.00     0.296 HD
ENDBRANCH   2   4
ENDBRANCH   1   2
BRANCH   1   6
ATOM      6  C   UNL     1       7.027  -0.069  -2.065  1.00  0.00     0.047 C 
BRANCH   6   7
ATOM      7  C   UNL     1       6.451   0.094  -0.731  1.00  0.00    -0.047 A 
ATOM      8  C   UNL     1       5.799   1.254  -0.384  1.00  0.00     0.004 A 
ATOM      9  C   UNL     1       6.567  -0.930   0.180  1.00  0.00     0.004 A 
ATOM     10  C   UNL     1       5.273   1.341   0.907  1.00  0.00     0.000 A 
ATOM     11  C   UNL     1       6.047  -0.842   1.456  1.00  0.00     0.000 A 
ATOM     12  C   UNL     1       5.393   0.317   1.812  1.00  0.00     0.000 A 
ENDBRANCH   6   7
ENDBRANCH   1   6
TORSDOF 4
ENDMDL
MODEL 2
REMARK VINA RESULT:      -6.8      1.408      2.191
REMARK SMILES O=C(O)CCc1ccccc1
REMARK SMILES IDX 4 1 2 2 1 3 3 4 5 6 6 7 7 8 11 9 8 10 10 11 9 12
REMARK H PARENT 3 5
REMARK Flexibility Score: inf
ROOT
ATOM      1  C   UNL     1       8.334  -0.546  -2.260  1.00  0.00     0.127 C 
ENDROOT
BRANCH   1   2
ATOM      2  C   UNL     1       8.416  -1.861  -2.940  1.00  0.00     0.303 C 
ATOM      3  O   UNL     1       9.514  -2.453  -3.082  1.00  0.00    -0.252 OA
BRANCH   2   4
ATOM      4  O   UNL     1       7.278  -2.474  -3.439  1.00  0.00    -0.481 OA
ATOM      5  H   UNL     1       7.165  -3.485  -3.329  1.00  0.00     0.296 HD
ENDBRANCH   2   4
ENDBRANCH   1   2
BRANCH   1   6
ATOM      6  C   UNL     1       7.021  -0.467  -1.544  1.00  0.00     0.047 C 
BRANCH   6   7
ATOM      7  C   UNL     1       6.844   0.753  -0.759  1.00  0.00    -0.047 A 
ATOM      8  C   UNL     1       7.915   1.348  -0.133  1.00  0.00     0.004 A 
ATOM      9  C   UNL     1       5.589   1.307  -0.653  1.00  0.00     0.004 A 
ATOM     10  C   UNL     1       7.672   2.513   0.599  1.00  0.00     0.000 A 
ATOM     11  C   UNL     1       5.351   2.458   0.072  1.00  0.00     0.000 A 
ATOM     12  C   UNL     1       6.418   3.060   0.703  1.00  0.00     0.000 A 
ENDBRANCH   6   7
ENDBRANCH   1   6
TORSDOF 4
ENDMDL
