@<TRIPOS>MOLECULE
/home/cewinharhar/GITHUB/reincatalyze/data/processed/docking_pred/2023-May-05-1615_maxeplen10_maxtrainstep1000_seadep16_gamma099_lrac9e-4_lrcr1e-3/a5b16c92fd7591d551db5a31bdb9c28d24e6a5b8_ligand_2.pdbqt
 12 12 0 0 0
SMALL
GASTEIGER

@<TRIPOS>ATOM
      1  C          8.4020   -0.6640   -2.0670 C.3     1  UNL1        0.1270
      2  C          8.3720   -1.9040   -2.8780 C.2     1  UNL1        0.3030
      3  O          7.2850   -2.4110   -3.2510 O.2     1  UNL1       -0.2520
      4  O          9.5460   -2.5400   -3.2460 O.3     1  UNL1       -0.4810
      5  H         10.2870   -2.6660   -2.5510 H       1  UNL1        0.2960
      6  C          7.0270   -0.0690   -2.0650 C.3     1  UNL1        0.0470
      7  C          6.4510    0.0940   -0.7310 C.2     1  UNL1       -0.0470
      8  C          5.7990    1.2540   -0.3840 C.2     1  UNL1        0.0040
      9  C          6.5670   -0.9300    0.1800 C.2     1  UNL1        0.0040
     10  C          5.2730    1.3410    0.9070 C.2     1  UNL1        0.0000
     11  C          6.0470   -0.8420    1.4560 C.2     1  UNL1        0.0000
     12  C          5.3930    0.3170    1.8120 C.2     1  UNL1        0.0000
@<TRIPOS>BOND
     1     3     2    2
     2     4     2    1
     3     4     5    1
     4     2     1    1
     5     1     6    1
     6     6     7    1
     7     7     8    2
     8     7     9    1
     9     8    10    1
    10     9    11    2
    11    10    12    2
    12    11    12    1
