@<TRIPOS>MOLECULE
/home/cewinharhar/GITHUB/reincatalyze/data/processed/docking_pred/2023-May-05-1615_maxeplen10_maxtrainstep1000_seadep16_gamma099_lrac9e-4_lrcr1e-3/a614218f6e6a1b7d791f470f20b1a009abdeaae3_ligand_2.pdbqt
 12 12 0 0 0
SMALL
GASTEIGER

@<TRIPOS>ATOM
      1  C          8.4530   -0.6730   -2.0570 C.3     1  UNL1        0.1270
      2  C          8.4730   -1.9150   -2.8660 C.2     1  UNL1        0.3030
      3  O          9.5460   -2.5250   -3.0950 O.2     1  UNL1       -0.2520
      4  O          7.3030   -2.4370   -3.3930 O.3     1  UNL1       -0.4810
      5  H          6.5420   -1.8030   -3.6500 H       1  UNL1        0.2960
      6  C          7.0590   -0.1240   -2.0710 C.3     1  UNL1        0.0470
      7  C          6.4780    0.0580   -0.7420 C.2     1  UNL1       -0.0470
      8  C          5.8330    1.2270   -0.4110 C.2     1  UNL1        0.0040
      9  C          6.5810   -0.9570    0.1800 C.2     1  UNL1        0.0040
     10  C          5.3010    1.3310    0.8770 C.2     1  UNL1        0.0000
     11  C          6.0550   -0.8520    1.4530 C.2     1  UNL1        0.0000
     12  C          5.4080    0.3160    1.7930 C.2     1  UNL1        0.0000
@<TRIPOS>BOND
     1     5     4    1
     2     4     2    1
     3     3     2    2
     4     2     1    1
     5     6     1    1
     6     6     7    1
     7     7     8    2
     8     7     9    1
     9     8    10    1
    10     9    11    2
    11    10    12    2
    12    11    12    1
