MODEL 1
REMARK VINA RESULT:      -7.1      0.000      0.000
REMARK SMILES O=C(O)CCc1ccccc1
REMARK SMILES IDX 4 1 2 2 1 3 3 4 5 6 6 7 7 8 11 9 8 10 10 11 9 12
REMARK H PARENT 3 5
REMARK Flexibility Score: inf
ROOT
ATOM      1  C   UNL     1       8.453  -0.673  -2.057  1.00  0.00     0.127 C 
ENDROOT
BRANCH   1   2
ATOM      2  C   UNL     1       8.473  -1.915  -2.866  1.00  0.00     0.303 C 
ATOM      3  O   UNL     1       9.546  -2.525  -3.095  1.00  0.00    -0.252 OA
BRANCH   2   4
ATOM      4  O   UNL     1       7.303  -2.437  -3.393  1.00  0.00    -0.481 OA
ATOM      5  H   UNL     1       6.542  -1.803  -3.650  1.00  0.00     0.296 HD
ENDBRANCH   2   4
ENDBRANCH   1   2
BRANCH   1   6
ATOM      6  C   UNL     1       7.059  -0.124  -2.071  1.00  0.00     0.047 C 
BRANCH   6   7
ATOM      7  C   UNL     1       6.478   0.058  -0.742  1.00  0.00    -0.047 A 
ATOM      8  C   UNL     1       5.833   1.227  -0.411  1.00  0.00     0.004 A 
ATOM      9  C   UNL     1       6.581  -0.957   0.180  1.00  0.00     0.004 A 
ATOM     10  C   UNL     1       5.301   1.331   0.877  1.00  0.00     0.000 A 
ATOM     11  C   UNL     1       6.055  -0.852   1.453  1.00  0.00     0.000 A 
ATOM     12  C   UNL     1       5.408   0.316   1.793  1.00  0.00     0.000 A 
ENDBRANCH   6   7
ENDBRANCH   1   6
TORSDOF 4
ENDMDL
MODEL 2
REMARK VINA RESULT:      -6.7      1.399      2.217
REMARK SMILES O=C(O)CCc1ccccc1
REMARK SMILES IDX 4 1 2 2 1 3 3 4 5 6 6 7 7 8 11 9 8 10 10 11 9 12
REMARK H PARENT 3 5
REMARK Flexibility Score: inf
ROOT
ATOM      1  C   UNL     1       8.257  -0.523  -2.218  1.00  0.00     0.127 C 
ENDROOT
BRANCH   1   2
ATOM      2  C   UNL     1       8.295  -1.820  -2.934  1.00  0.00     0.303 C 
ATOM      3  O   UNL     1       7.239  -2.393  -3.300  1.00  0.00    -0.252 OA
BRANCH   2   4
ATOM      4  O   UNL     1       9.502  -2.437  -3.220  1.00  0.00    -0.481 OA
ATOM      5  H   UNL     1      10.093  -2.764  -2.450  1.00  0.00     0.296 HD
ENDBRANCH   2   4
ENDBRANCH   1   2
BRANCH   1   6
ATOM      6  C   UNL     1       6.972  -0.448  -1.450  1.00  0.00     0.047 C 
BRANCH   6   7
ATOM      7  C   UNL     1       6.803   0.792  -0.694  1.00  0.00    -0.047 A 
ATOM      8  C   UNL     1       7.872   1.378  -0.056  1.00  0.00     0.004 A 
ATOM      9  C   UNL     1       5.558   1.374  -0.628  1.00  0.00     0.004 A 
ATOM     10  C   UNL     1       7.637   2.563   0.646  1.00  0.00     0.000 A 
ATOM     11  C   UNL     1       5.328   2.544   0.067  1.00  0.00     0.000 A 
ATOM     12  C   UNL     1       6.393   3.137   0.710  1.00  0.00     0.000 A 
ENDBRANCH   6   7
ENDBRANCH   1   6
TORSDOF 4
ENDMDL
