@<TRIPOS>MOLECULE
/home/cewinharhar/GITHUB/reincatalyze/data/processed/docking_pred/2023-May-05-1615_maxeplen10_maxtrainstep1000_seadep16_gamma099_lrac9e-4_lrcr1e-3/a614218f6e6a1b7d791f470f20b1a009abdeaae3_ligand_2.pdbqt
 12 12 0 0 0
SMALL
GASTEIGER

@<TRIPOS>ATOM
      1  C          7.8190   -0.7600   -2.2000 C.3     1  UNL1        0.1270
      2  C          8.3020   -1.9260   -2.9770 C.2     1  UNL1        0.3030
      3  O          9.5120   -2.2620   -2.9610 O.2     1  UNL1       -0.2520
      4  O          7.4290   -2.6800   -3.7440 O.3     1  UNL1       -0.4810
      5  H          7.1120   -3.5890   -3.3950 H       1  UNL1        0.2960
      6  C          7.2750   -1.2560   -0.8950 C.3     1  UNL1        0.0470
      7  C          6.4830   -0.2670   -0.1660 C.2     1  UNL1       -0.0470
      8  C          6.0970   -0.4950    1.1340 C.2     1  UNL1        0.0040
      9  C          6.1280    0.9040   -0.7950 C.2     1  UNL1        0.0040
     10  C          5.3430    0.4940    1.7690 C.2     1  UNL1        0.0000
     11  C          5.3830    1.8810   -0.1660 C.2     1  UNL1        0.0000
     12  C          4.9900    1.6600    1.1360 C.2     1  UNL1        0.0000
@<TRIPOS>BOND
     1     4     5    1
     2     4     2    1
     3     2     3    2
     4     2     1    1
     5     1     6    1
     6     6     7    1
     7     9     7    2
     8     9    11    1
     9     7     8    1
    10    11    12    2
    11     8    10    2
    12    12    10    1
