@<TRIPOS>MOLECULE
/home/cewinharhar/GITHUB/reincatalyze/data/processed/docking_pred/2023-May-05-1615_maxeplen10_maxtrainstep1000_seadep16_gamma099_lrac9e-4_lrcr1e-3/a614218f6e6a1b7d791f470f20b1a009abdeaae3_ligand_2.pdbqt
 12 12 0 0 0
SMALL
GASTEIGER

@<TRIPOS>ATOM
      1  C          8.2570   -0.5230   -2.2180 C.3     1  UNL1        0.1270
      2  C          8.2950   -1.8200   -2.9340 C.2     1  UNL1        0.3030
      3  O          7.2390   -2.3930   -3.3000 O.2     1  UNL1       -0.2520
      4  O          9.5020   -2.4370   -3.2200 O.3     1  UNL1       -0.4810
      5  H         10.0930   -2.7640   -2.4500 H       1  UNL1        0.2960
      6  C          6.9720   -0.4480   -1.4500 C.3     1  UNL1        0.0470
      7  C          6.8030    0.7920   -0.6940 C.2     1  UNL1       -0.0470
      8  C          7.8720    1.3780   -0.0560 C.2     1  UNL1        0.0040
      9  C          5.5580    1.3740   -0.6280 C.2     1  UNL1        0.0040
     10  C          7.6370    2.5630    0.6460 C.2     1  UNL1        0.0000
     11  C          5.3280    2.5440    0.0670 C.2     1  UNL1        0.0000
     12  C          6.3930    3.1370    0.7100 C.2     1  UNL1        0.0000
@<TRIPOS>BOND
     1     3     2    2
     2     4     2    1
     3     4     5    1
     4     2     1    1
     5     1     6    1
     6     6     7    1
     7     7     9    2
     8     7     8    1
     9     9    11    1
    10     8    10    2
    11    11    12    2
    12    10    12    1
