@<TRIPOS>MOLECULE
/home/cewinharhar/GITHUB/reincatalyze/data/processed/docking_pred/2023-May-05-1615_maxeplen10_maxtrainstep1000_seadep16_gamma099_lrac9e-4_lrcr1e-3/a7c8c9f10e55c2841f25afbe7e611a3f864293db_ligand_2.pdbqt
 12 12 0 0 0
SMALL
GASTEIGER

@<TRIPOS>ATOM
      1  C          8.3300   -0.6100   -2.1200 C.3     1  UNL1        0.1270
      2  C          8.3400   -1.8690   -2.9010 C.2     1  UNL1        0.3030
      3  O          7.2710   -2.4110   -3.2760 O.2     1  UNL1       -0.2520
      4  O          9.5340   -2.4860   -3.2400 O.3     1  UNL1       -0.4810
      5  H         10.3110   -2.4710   -2.5740 H       1  UNL1        0.2960
      6  C          6.9570   -0.4200   -1.5510 C.3     1  UNL1        0.0470
      7  C          6.8080    0.7940   -0.7510 C.2     1  UNL1       -0.0470
      8  C          7.8940    1.3630   -0.1270 C.2     1  UNL1        0.0040
      9  C          5.5640    1.3680   -0.6270 C.2     1  UNL1        0.0040
     10  C          7.6790    2.5230    0.6210 C.2     1  UNL1        0.0000
     11  C          5.3530    2.5150    0.1130 C.2     1  UNL1        0.0000
     12  C          6.4360    3.0910    0.7420 C.2     1  UNL1        0.0000
@<TRIPOS>BOND
     1     3     2    2
     2     4     2    1
     3     4     5    1
     4     2     1    1
     5     1     6    1
     6     6     7    1
     7     7     9    2
     8     7     8    1
     9     9    11    1
    10     8    10    2
    11    11    12    2
    12    10    12    1
