MODEL 1
REMARK VINA RESULT:      -6.5      0.000      0.000
REMARK SMILES O=C(O)CCc1ccccc1
REMARK SMILES IDX 4 1 2 2 1 3 3 4 5 6 6 7 7 8 11 9 8 10 10 11 9 12
REMARK H PARENT 3 5
REMARK Flexibility Score: inf
ROOT
ATOM      1  C   UNL     1       8.316  -0.696  -2.155  1.00  0.00     0.127 C 
ENDROOT
BRANCH   1   2
ATOM      2  C   UNL     1       8.438  -1.954  -2.929  1.00  0.00     0.303 C 
ATOM      3  O   UNL     1       9.553  -2.503  -3.107  1.00  0.00    -0.252 OA
BRANCH   2   4
ATOM      4  O   UNL     1       7.320  -2.560  -3.479  1.00  0.00    -0.481 OA
ATOM      5  H   UNL     1       7.161  -2.497  -4.488  1.00  0.00     0.296 HD
ENDBRANCH   2   4
ENDBRANCH   1   2
BRANCH   1   6
ATOM      6  C   UNL     1       6.889  -0.542  -1.728  1.00  0.00     0.047 C 
BRANCH   6   7
ATOM      7  C   UNL     1       6.679  -0.697  -0.289  1.00  0.00    -0.047 A 
ATOM      8  C   UNL     1       7.277  -1.726   0.402  1.00  0.00     0.004 A 
ATOM      9  C   UNL     1       5.875   0.202   0.373  1.00  0.00     0.004 A 
ATOM     10  C   UNL     1       7.033  -1.812   1.774  1.00  0.00     0.000 A 
ATOM     11  C   UNL     1       5.634   0.114   1.730  1.00  0.00     0.000 A 
ATOM     12  C   UNL     1       6.229  -0.913   2.429  1.00  0.00     0.000 A 
ENDBRANCH   6   7
ENDBRANCH   1   6
TORSDOF 4
ENDMDL
MODEL 2
REMARK VINA RESULT:      -6.3      3.202      4.954
REMARK SMILES O=C(O)CCc1ccccc1
REMARK SMILES IDX 4 1 2 2 1 3 3 4 5 6 6 7 7 8 11 9 8 10 10 11 9 12
REMARK H PARENT 3 5
REMARK Flexibility Score: inf
ROOT
ATOM      1  C   UNL     1       5.904  -0.885   1.734  1.00  0.00     0.127 C 
ENDROOT
BRANCH   1   2
ATOM      2  C   UNL     1       5.351   0.456   2.039  1.00  0.00     0.303 C 
ATOM      3  O   UNL     1       4.183   0.593   2.481  1.00  0.00    -0.252 OA
BRANCH   2   4
ATOM      4  O   UNL     1       6.111   1.598   1.845  1.00  0.00    -0.481 OA
ATOM      5  H   UNL     1       7.117   1.568   2.028  1.00  0.00     0.296 HD
ENDBRANCH   2   4
ENDBRANCH   1   2
BRANCH   1   6
ATOM      6  C   UNL     1       7.371  -0.739   1.466  1.00  0.00     0.047 C 
BRANCH   6   7
ATOM      7  C   UNL     1       7.710  -0.647   0.047  1.00  0.00    -0.047 A 
ATOM      8  C   UNL     1       8.853  -0.002  -0.363  1.00  0.00     0.004 A 
ATOM      9  C   UNL     1       6.870  -1.217  -0.882  1.00  0.00     0.004 A 
ATOM     10  C   UNL     1       9.114   0.047  -1.734  1.00  0.00     0.000 A 
ATOM     11  C   UNL     1       7.130  -1.168  -2.237  1.00  0.00     0.000 A 
ATOM     12  C   UNL     1       8.273  -0.523  -2.656  1.00  0.00     0.000 A 
ENDBRANCH   6   7
ENDBRANCH   1   6
TORSDOF 4
ENDMDL
MODEL 3
REMARK VINA RESULT:      -6.1      3.454      5.113
REMARK SMILES O=C(O)CCc1ccccc1
REMARK SMILES IDX 4 1 2 2 1 3 3 4 5 6 6 7 7 8 11 9 8 10 10 11 9 12
REMARK H PARENT 3 5
REMARK Flexibility Score: inf
ROOT
ATOM      1  C   UNL     1       5.107  -0.129   2.054  1.00  0.00     0.127 C 
ENDROOT
BRANCH   1   2
ATOM      2  C   UNL     1       4.428   1.187   1.988  1.00  0.00     0.303 C 
ATOM      3  O   UNL     1       4.955   2.162   1.397  1.00  0.00    -0.252 OA
BRANCH   2   4
ATOM      4  O   UNL     1       3.190   1.378   2.580  1.00  0.00    -0.481 OA
ATOM      5  H   UNL     1       2.737   2.293   2.510  1.00  0.00     0.296 HD
ENDBRANCH   2   4
ENDBRANCH   1   2
BRANCH   1   6
ATOM      6  C   UNL     1       6.556   0.072   1.730  1.00  0.00     0.047 C 
BRANCH   6   7
ATOM      7  C   UNL     1       7.016  -0.687   0.569  1.00  0.00    -0.047 A 
ATOM      8  C   UNL     1       6.618  -0.339  -0.701  1.00  0.00     0.004 A 
ATOM      9  C   UNL     1       7.858  -1.758   0.758  1.00  0.00     0.004 A 
ATOM     10  C   UNL     1       7.098  -1.108  -1.764  1.00  0.00     0.000 A 
ATOM     11  C   UNL     1       8.331  -2.518  -0.294  1.00  0.00     0.000 A 
ATOM     12  C   UNL     1       7.936  -2.177  -1.570  1.00  0.00     0.000 A 
ENDBRANCH   6   7
ENDBRANCH   1   6
TORSDOF 4
ENDMDL
