@<TRIPOS>MOLECULE
/home/cewinharhar/GITHUB/reincatalyze/data/processed/docking_pred/2023-May-05-1615_maxeplen10_maxtrainstep1000_seadep16_gamma099_lrac9e-4_lrcr1e-3/a8cbf1bb962d04eb60783bb2dc55df042853f03a_ligand_2.pdbqt
 12 12 0 0 0
SMALL
GASTEIGER

@<TRIPOS>ATOM
      1  C          8.3160   -0.6960   -2.1550 C.3     1  UNL1        0.1270
      2  C          8.4380   -1.9540   -2.9290 C.2     1  UNL1        0.3030
      3  O          9.5530   -2.5030   -3.1070 O.2     1  UNL1       -0.2520
      4  O          7.3200   -2.5600   -3.4790 O.3     1  UNL1       -0.4810
      5  H          7.1610   -2.4970   -4.4880 H       1  UNL1        0.2960
      6  C          6.8890   -0.5420   -1.7280 C.3     1  UNL1        0.0470
      7  C          6.6790   -0.6970   -0.2890 C.2     1  UNL1       -0.0470
      8  C          7.2770   -1.7260    0.4020 C.2     1  UNL1        0.0040
      9  C          5.8750    0.2020    0.3730 C.2     1  UNL1        0.0040
     10  C          7.0330   -1.8120    1.7740 C.2     1  UNL1        0.0000
     11  C          5.6340    0.1140    1.7300 C.2     1  UNL1        0.0000
     12  C          6.2290   -0.9130    2.4290 C.2     1  UNL1        0.0000
@<TRIPOS>BOND
     1     5     4    1
     2     4     2    1
     3     3     2    2
     4     2     1    1
     5     1     6    1
     6     6     7    1
     7     7     9    2
     8     7     8    1
     9     9    11    1
    10     8    10    2
    11    11    12    2
    12    10    12    1
