@<TRIPOS>MOLECULE
/home/cewinharhar/GITHUB/reincatalyze/data/processed/docking_pred/2023-May-05-1615_maxeplen10_maxtrainstep1000_seadep16_gamma099_lrac9e-4_lrcr1e-3/a8cbf1bb962d04eb60783bb2dc55df042853f03a_ligand_2.pdbqt
 12 12 0 0 0
SMALL
GASTEIGER

@<TRIPOS>ATOM
      1  C          5.9040   -0.8850    1.7340 C.3     1  UNL1        0.1270
      2  C          5.3510    0.4560    2.0390 C.2     1  UNL1        0.3030
      3  O          4.1830    0.5930    2.4810 O.2     1  UNL1       -0.2520
      4  O          6.1110    1.5980    1.8450 O.3     1  UNL1       -0.4810
      5  H          7.1170    1.5680    2.0280 H       1  UNL1        0.2960
      6  C          7.3710   -0.7390    1.4660 C.3     1  UNL1        0.0470
      7  C          7.7100   -0.6470    0.0470 C.2     1  UNL1       -0.0470
      8  C          8.8530   -0.0020   -0.3630 C.2     1  UNL1        0.0040
      9  C          6.8700   -1.2170   -0.8820 C.2     1  UNL1        0.0040
     10  C          9.1140    0.0470   -1.7340 C.2     1  UNL1        0.0000
     11  C          7.1300   -1.1680   -2.2370 C.2     1  UNL1        0.0000
     12  C          8.2730   -0.5230   -2.6560 C.2     1  UNL1        0.0000
@<TRIPOS>BOND
     1    12    11    2
     2    12    10    1
     3    11     9    1
     4    10     8    2
     5     9     7    2
     6     8     7    1
     7     7     6    1
     8     6     1    1
     9     1     2    1
    10     4     5    1
    11     4     2    1
    12     2     3    2
