@<TRIPOS>MOLECULE
/home/cewinharhar/GITHUB/reincatalyze/data/processed/docking_pred/2023-May-05-1615_maxeplen10_maxtrainstep1000_seadep16_gamma099_lrac9e-4_lrcr1e-3/a8cbf1bb962d04eb60783bb2dc55df042853f03a_ligand_2.pdbqt
 12 12 0 0 0
SMALL
GASTEIGER

@<TRIPOS>ATOM
      1  C          5.1070   -0.1290    2.0540 C.3     1  UNL1        0.1270
      2  C          4.4280    1.1870    1.9880 C.2     1  UNL1        0.3030
      3  O          4.9550    2.1620    1.3970 O.2     1  UNL1       -0.2520
      4  O          3.1900    1.3780    2.5800 O.3     1  UNL1       -0.4810
      5  H          2.7370    2.2930    2.5100 H       1  UNL1        0.2960
      6  C          6.5560    0.0720    1.7300 C.3     1  UNL1        0.0470
      7  C          7.0160   -0.6870    0.5690 C.2     1  UNL1       -0.0470
      8  C          6.6180   -0.3390   -0.7010 C.2     1  UNL1        0.0040
      9  C          7.8580   -1.7580    0.7580 C.2     1  UNL1        0.0040
     10  C          7.0980   -1.1080   -1.7640 C.2     1  UNL1        0.0000
     11  C          8.3310   -2.5180   -0.2940 C.2     1  UNL1        0.0000
     12  C          7.9360   -2.1770   -1.5700 C.2     1  UNL1        0.0000
@<TRIPOS>BOND
     1    10    12    2
     2    10     8    1
     3    12    11    1
     4     8     7    2
     5    11     9    2
     6     7     9    1
     7     7     6    1
     8     3     2    2
     9     6     1    1
    10     2     1    1
    11     2     4    1
    12     5     4    1
