@<TRIPOS>MOLECULE
/home/cewinharhar/GITHUB/reincatalyze/data/processed/docking_pred/2023-May-05-1615_maxeplen10_maxtrainstep1000_seadep16_gamma099_lrac9e-4_lrcr1e-3/a991e05863b38587be5f018959c733685726fb49_ligand_2.pdbqt
 12 12 0 0 0
SMALL
GASTEIGER

@<TRIPOS>ATOM
      1  C          8.3590   -0.5570   -2.2480 C.3     1  UNL1        0.1270
      2  C          8.4330   -1.8680   -2.9360 C.2     1  UNL1        0.3030
      3  O          9.5290   -2.4630   -3.0850 O.2     1  UNL1       -0.2520
      4  O          7.2910   -2.4740   -3.4350 O.3     1  UNL1       -0.4810
      5  H          6.8700   -3.2510   -2.9180 H       1  UNL1        0.2960
      6  C          7.0060   -0.4330   -1.6170 C.3     1  UNL1        0.0470
      7  C          6.8410    0.7660   -0.7960 C.2     1  UNL1       -0.0470
      8  C          7.9190    1.3370   -0.1600 C.2     1  UNL1        0.0040
      9  C          5.5900    1.3230   -0.6660 C.2     1  UNL1        0.0040
     10  C          7.6880    2.4810    0.6060 C.2     1  UNL1        0.0000
     11  C          5.3630    2.4540    0.0930 C.2     1  UNL1        0.0000
     12  C          6.4370    3.0320    0.7340 C.2     1  UNL1        0.0000
@<TRIPOS>BOND
     1     4     2    1
     2     4     5    1
     3     3     2    2
     4     2     1    1
     5     1     6    1
     6     6     7    1
     7     7     9    2
     8     7     8    1
     9     9    11    1
    10     8    10    2
    11    11    12    2
    12    10    12    1
