@<TRIPOS>MOLECULE
/home/cewinharhar/GITHUB/reincatalyze/data/processed/docking_pred/2023-May-05-1615_maxeplen10_maxtrainstep1000_seadep16_gamma099_lrac9e-4_lrcr1e-3/a991e05863b38587be5f018959c733685726fb49_ligand_2.pdbqt
 12 12 0 0 0
SMALL
GASTEIGER

@<TRIPOS>ATOM
      1  C          8.4060   -0.6510   -2.0810 C.3     1  UNL1        0.1270
      2  C          8.3750   -1.8970   -2.8840 C.2     1  UNL1        0.3030
      3  O          7.2880   -2.4090   -3.2480 O.2     1  UNL1       -0.2520
      4  O          9.5490   -2.5320   -3.2540 O.3     1  UNL1       -0.4810
      5  H          9.5150   -3.5070   -3.5640 H       1  UNL1        0.2960
      6  C          7.0290   -0.0620   -2.0740 C.3     1  UNL1        0.0470
      7  C          6.4590    0.1010   -0.7370 C.2     1  UNL1       -0.0470
      8  C          5.8060    1.2600   -0.3870 C.2     1  UNL1        0.0040
      9  C          6.5810   -0.9240    0.1730 C.2     1  UNL1        0.0040
     10  C          5.2860    1.3450    0.9070 C.2     1  UNL1        0.0000
     11  C          6.0660   -0.8370    1.4520 C.2     1  UNL1        0.0000
     12  C          5.4110    0.3210    1.8110 C.2     1  UNL1        0.0000
@<TRIPOS>BOND
     1     5     4    1
     2     4     2    1
     3     3     2    2
     4     2     1    1
     5     1     6    1
     6     6     7    1
     7     7     8    2
     8     7     9    1
     9     8    10    1
    10     9    11    2
    11    10    12    2
    12    11    12    1
