@<TRIPOS>MOLECULE
/home/cewinharhar/GITHUB/reincatalyze/data/processed/docking_pred/2023-May-05-1615_maxeplen10_maxtrainstep1000_seadep16_gamma099_lrac9e-4_lrcr1e-3/ab317eb7565d030be4138c7249420e244018cf00_ligand_2.pdbqt
 12 12 0 0 0
SMALL
GASTEIGER

@<TRIPOS>ATOM
      1  C          7.2530   -1.2460   -2.1800 C.3     1  UNL1        0.1270
      2  C          8.6910   -1.3010   -2.5340 C.2     1  UNL1        0.3030
      3  O          9.4980   -0.4330   -2.1170 O.2     1  UNL1       -0.2520
      4  O          9.1870   -2.3140   -3.3390 O.3     1  UNL1       -0.4810
      5  H          9.1560   -2.2060   -4.3560 H       1  UNL1        0.2960
      6  C          7.1320   -1.3220   -0.6890 C.3     1  UNL1        0.0470
      7  C          6.3810   -0.2160   -0.0970 C.2     1  UNL1       -0.0470
      8  C          5.9510   -0.2770    1.2080 C.2     1  UNL1        0.0040
      9  C          6.1070    0.8950   -0.8610 C.2     1  UNL1        0.0040
     10  C          5.2400    0.8160    1.7080 C.2     1  UNL1        0.0000
     11  C          5.4030    1.9740   -0.3650 C.2     1  UNL1        0.0000
     12  C          4.9690    1.9210    0.9410 C.2     1  UNL1        0.0000
@<TRIPOS>BOND
     1     5     4    1
     2     4     2    1
     3     2     1    1
     4     2     3    2
     5     1     6    1
     6     9    11    1
     7     9     7    2
     8     6     7    1
     9    11    12    2
    10     7     8    1
    11    12    10    1
    12     8    10    2
