MODEL 1
REMARK VINA RESULT:      -7.3      0.000      0.000
REMARK SMILES O=C(O)CCc1ccccc1
REMARK SMILES IDX 4 1 2 2 1 3 3 4 5 6 6 7 7 8 11 9 8 10 10 11 9 12
REMARK H PARENT 3 5
REMARK Flexibility Score: inf
ROOT
ATOM      1  C   UNL     1       8.406  -0.666  -2.064  1.00  0.00     0.127 C 
ENDROOT
BRANCH   1   2
ATOM      2  C   UNL     1       8.374  -1.906  -2.876  1.00  0.00     0.303 C 
ATOM      3  O   UNL     1       7.287  -2.411  -3.250  1.00  0.00    -0.252 OA
BRANCH   2   4
ATOM      4  O   UNL     1       9.548  -2.543  -3.244  1.00  0.00    -0.481 OA
ATOM      5  H   UNL     1       9.698  -3.516  -2.965  1.00  0.00     0.296 HD
ENDBRANCH   2   4
ENDBRANCH   1   2
BRANCH   1   6
ATOM      6  C   UNL     1       7.031  -0.069  -2.064  1.00  0.00     0.047 C 
BRANCH   6   7
ATOM      7  C   UNL     1       6.457   0.100  -0.730  1.00  0.00    -0.047 A 
ATOM      8  C   UNL     1       5.802   1.260  -0.388  1.00  0.00     0.004 A 
ATOM      9  C   UNL     1       6.576  -0.920   0.186  1.00  0.00     0.004 A 
ATOM     10  C   UNL     1       5.277   1.351   0.903  1.00  0.00     0.000 A 
ATOM     11  C   UNL     1       6.057  -0.827   1.462  1.00  0.00     0.000 A 
ATOM     12  C   UNL     1       5.399   0.332   1.813  1.00  0.00     0.000 A 
ENDBRANCH   6   7
ENDBRANCH   1   6
TORSDOF 4
ENDMDL
MODEL 2
REMARK VINA RESULT:      -7.0      1.039      1.956
REMARK SMILES O=C(O)CCc1ccccc1
REMARK SMILES IDX 4 1 2 2 1 3 3 4 5 6 6 7 7 8 11 9 8 10 10 11 9 12
REMARK H PARENT 3 5
REMARK Flexibility Score: inf
ROOT
ATOM      1  C   UNL     1       7.253  -1.246  -2.180  1.00  0.00     0.127 C 
ENDROOT
BRANCH   1   2
ATOM      2  C   UNL     1       8.691  -1.301  -2.534  1.00  0.00     0.303 C 
ATOM      3  O   UNL     1       9.498  -0.433  -2.117  1.00  0.00    -0.252 OA
BRANCH   2   4
ATOM      4  O   UNL     1       9.187  -2.314  -3.339  1.00  0.00    -0.481 OA
ATOM      5  H   UNL     1       9.156  -2.206  -4.356  1.00  0.00     0.296 HD
ENDBRANCH   2   4
ENDBRANCH   1   2
BRANCH   1   6
ATOM      6  C   UNL     1       7.132  -1.322  -0.689  1.00  0.00     0.047 C 
BRANCH   6   7
ATOM      7  C   UNL     1       6.381  -0.216  -0.097  1.00  0.00    -0.047 A 
ATOM      8  C   UNL     1       5.951  -0.277   1.208  1.00  0.00     0.004 A 
ATOM      9  C   UNL     1       6.107   0.895  -0.861  1.00  0.00     0.004 A 
ATOM     10  C   UNL     1       5.240   0.816   1.708  1.00  0.00     0.000 A 
ATOM     11  C   UNL     1       5.403   1.974  -0.365  1.00  0.00     0.000 A 
ATOM     12  C   UNL     1       4.969   1.921   0.941  1.00  0.00     0.000 A 
ENDBRANCH   6   7
ENDBRANCH   1   6
TORSDOF 4
ENDMDL
