@<TRIPOS>MOLECULE
/home/cewinharhar/GITHUB/reincatalyze/data/processed/docking_pred/2023-May-05-1615_maxeplen10_maxtrainstep1000_seadep16_gamma099_lrac9e-4_lrcr1e-3/ab955c776f37f5544fae82246801d9a2769dfb79_ligand_2.pdbqt
 12 12 0 0 0
SMALL
GASTEIGER

@<TRIPOS>ATOM
      1  C          8.2900   -0.5520   -2.1740 C.3     1  UNL1        0.1270
      2  C          8.3170   -1.8380   -2.9100 C.2     1  UNL1        0.3030
      3  O          7.2570   -2.3970   -3.2830 O.2     1  UNL1       -0.2520
      4  O          9.5190   -2.4610   -3.2070 O.3     1  UNL1       -0.4810
      5  H          9.7040   -3.3960   -2.8330 H       1  UNL1        0.2960
      6  C          6.9600   -0.4260   -1.4950 C.3     1  UNL1        0.0470
      7  C          6.8050    0.7990   -0.7140 C.2     1  UNL1       -0.0470
      8  C          7.8840    1.3700   -0.0790 C.2     1  UNL1        0.0040
      9  C          5.5630    1.3830   -0.6200 C.2     1  UNL1        0.0040
     10  C          7.6620    2.5420    0.6480 C.2     1  UNL1        0.0000
     11  C          5.3450    2.5410    0.1000 C.2     1  UNL1        0.0000
     12  C          6.4210    3.1190    0.7390 C.2     1  UNL1        0.0000
@<TRIPOS>BOND
     1     3     2    2
     2     4     2    1
     3     4     5    1
     4     2     1    1
     5     1     6    1
     6     6     7    1
     7     7     9    2
     8     7     8    1
     9     9    11    1
    10     8    10    2
    11    11    12    2
    12    10    12    1
