@<TRIPOS>MOLECULE
/home/cewinharhar/GITHUB/reincatalyze/data/processed/docking_pred/2023-May-05-1615_maxeplen10_maxtrainstep1000_seadep16_gamma099_lrac9e-4_lrcr1e-3/ab955c776f37f5544fae82246801d9a2769dfb79_ligand_2.pdbqt
 12 12 0 0 0
SMALL
GASTEIGER

@<TRIPOS>ATOM
      1  C          8.4700   -0.6600   -2.0900 C.3     1  UNL1        0.1270
      2  C          8.4800   -1.9090   -2.8890 C.2     1  UNL1        0.3030
      3  O          9.5450   -2.5430   -3.0910 O.2     1  UNL1       -0.2520
      4  O          7.3110   -2.4110   -3.4360 O.3     1  UNL1       -0.4810
      5  H          7.2320   -2.5010   -4.4530 H       1  UNL1        0.2960
      6  C          7.0780   -0.1080   -2.0980 C.3     1  UNL1        0.0470
      7  C          6.4940    0.0510   -0.7680 C.2     1  UNL1       -0.0470
      8  C          5.8310    1.2070   -0.4240 C.2     1  UNL1        0.0040
      9  C          6.6110   -0.9720    0.1440 C.2     1  UNL1        0.0040
     10  C          5.2970    1.2890    0.8640 C.2     1  UNL1        0.0000
     11  C          6.0830   -0.8890    1.4170 C.2     1  UNL1        0.0000
     12  C          5.4180    0.2650    1.7690 C.2     1  UNL1        0.0000
@<TRIPOS>BOND
     1     5     4    1
     2     4     2    1
     3     3     2    2
     4     2     1    1
     5     6     1    1
     6     6     7    1
     7     7     8    2
     8     7     9    1
     9     8    10    1
    10     9    11    2
    11    10    12    2
    12    11    12    1
