MODEL 1
REMARK VINA RESULT:      -7.1      0.000      0.000
REMARK SMILES O=C(O)CCc1ccccc1
REMARK SMILES IDX 4 1 2 2 1 3 3 4 5 6 6 7 7 8 11 9 8 10 10 11 9 12
REMARK H PARENT 3 5
REMARK Flexibility Score: inf
ROOT
ATOM      1  C   UNL     1       8.470  -0.660  -2.090  1.00  0.00     0.127 C 
ENDROOT
BRANCH   1   2
ATOM      2  C   UNL     1       8.480  -1.909  -2.889  1.00  0.00     0.303 C 
ATOM      3  O   UNL     1       9.545  -2.543  -3.091  1.00  0.00    -0.252 OA
BRANCH   2   4
ATOM      4  O   UNL     1       7.311  -2.411  -3.436  1.00  0.00    -0.481 OA
ATOM      5  H   UNL     1       7.232  -2.501  -4.453  1.00  0.00     0.296 HD
ENDBRANCH   2   4
ENDBRANCH   1   2
BRANCH   1   6
ATOM      6  C   UNL     1       7.078  -0.108  -2.098  1.00  0.00     0.047 C 
BRANCH   6   7
ATOM      7  C   UNL     1       6.494   0.051  -0.768  1.00  0.00    -0.047 A 
ATOM      8  C   UNL     1       5.831   1.207  -0.424  1.00  0.00     0.004 A 
ATOM      9  C   UNL     1       6.611  -0.972   0.144  1.00  0.00     0.004 A 
ATOM     10  C   UNL     1       5.297   1.289   0.864  1.00  0.00     0.000 A 
ATOM     11  C   UNL     1       6.083  -0.889   1.417  1.00  0.00     0.000 A 
ATOM     12  C   UNL     1       5.418   0.265   1.769  1.00  0.00     0.000 A 
ENDBRANCH   6   7
ENDBRANCH   1   6
TORSDOF 4
ENDMDL
MODEL 2
REMARK VINA RESULT:      -6.6      1.400      2.226
REMARK SMILES O=C(O)CCc1ccccc1
REMARK SMILES IDX 4 1 2 2 1 3 3 4 5 6 6 7 7 8 11 9 8 10 10 11 9 12
REMARK H PARENT 3 5
REMARK Flexibility Score: inf
ROOT
ATOM      1  C   UNL     1       8.290  -0.552  -2.174  1.00  0.00     0.127 C 
ENDROOT
BRANCH   1   2
ATOM      2  C   UNL     1       8.317  -1.838  -2.910  1.00  0.00     0.303 C 
ATOM      3  O   UNL     1       7.257  -2.397  -3.283  1.00  0.00    -0.252 OA
BRANCH   2   4
ATOM      4  O   UNL     1       9.519  -2.461  -3.207  1.00  0.00    -0.481 OA
ATOM      5  H   UNL     1       9.704  -3.396  -2.833  1.00  0.00     0.296 HD
ENDBRANCH   2   4
ENDBRANCH   1   2
BRANCH   1   6
ATOM      6  C   UNL     1       6.960  -0.426  -1.495  1.00  0.00     0.047 C 
BRANCH   6   7
ATOM      7  C   UNL     1       6.805   0.799  -0.714  1.00  0.00    -0.047 A 
ATOM      8  C   UNL     1       7.884   1.370  -0.079  1.00  0.00     0.004 A 
ATOM      9  C   UNL     1       5.563   1.383  -0.620  1.00  0.00     0.004 A 
ATOM     10  C   UNL     1       7.662   2.542   0.648  1.00  0.00     0.000 A 
ATOM     11  C   UNL     1       5.345   2.541   0.100  1.00  0.00     0.000 A 
ATOM     12  C   UNL     1       6.421   3.119   0.739  1.00  0.00     0.000 A 
ENDBRANCH   6   7
ENDBRANCH   1   6
TORSDOF 4
ENDMDL
