@<TRIPOS>MOLECULE
/home/cewinharhar/GITHUB/reincatalyze/data/processed/docking_pred/2023-May-05-1615_maxeplen10_maxtrainstep1000_seadep16_gamma099_lrac9e-4_lrcr1e-3/ada201db5b439d74c350b173ce56903753062bb1_ligand_2.pdbqt
 12 12 0 0 0
SMALL
GASTEIGER

@<TRIPOS>ATOM
      1  C          8.4060   -0.6590   -2.0730 C.3     1  UNL1        0.1270
      2  C          8.3770   -1.9020   -2.8790 C.2     1  UNL1        0.3030
      3  O          7.2900   -2.4150   -3.2450 O.2     1  UNL1       -0.2520
      4  O          9.5520   -2.5350   -3.2520 O.3     1  UNL1       -0.4810
      5  H         10.3130   -2.6180   -2.5730 H       1  UNL1        0.2960
      6  C          7.0300   -0.0660   -2.0710 C.3     1  UNL1        0.0470
      7  C          6.4570    0.1020   -0.7370 C.2     1  UNL1       -0.0470
      8  C          5.8030    1.2620   -0.3930 C.2     1  UNL1        0.0040
      9  C          6.5770   -0.9180    0.1790 C.2     1  UNL1        0.0040
     10  C          5.2800    1.3540    0.8990 C.2     1  UNL1        0.0000
     11  C          6.0590   -0.8260    1.4550 C.2     1  UNL1        0.0000
     12  C          5.4030    0.3330    1.8080 C.2     1  UNL1        0.0000
@<TRIPOS>BOND
     1     4     2    1
     2     4     5    1
     3     3     2    2
     4     2     1    1
     5     1     6    1
     6     6     7    1
     7     7     8    2
     8     7     9    1
     9     8    10    1
    10     9    11    2
    11    10    12    2
    12    11    12    1
