MODEL 1
REMARK VINA RESULT:      -7.3      0.000      0.000
REMARK SMILES O=C(O)CCc1ccccc1
REMARK SMILES IDX 4 1 2 2 1 3 3 4 5 6 6 7 7 8 11 9 8 10 10 11 9 12
REMARK H PARENT 3 5
REMARK Flexibility Score: inf
ROOT
ATOM      1  C   UNL     1       8.405  -0.660  -2.072  1.00  0.00     0.127 C 
ENDROOT
BRANCH   1   2
ATOM      2  C   UNL     1       8.375  -1.903  -2.877  1.00  0.00     0.303 C 
ATOM      3  O   UNL     1       7.289  -2.414  -3.247  1.00  0.00    -0.252 OA
BRANCH   2   4
ATOM      4  O   UNL     1       9.550  -2.539  -3.246  1.00  0.00    -0.481 OA
ATOM      5  H   UNL     1      10.434  -2.240  -2.825  1.00  0.00     0.296 HD
ENDBRANCH   2   4
ENDBRANCH   1   2
BRANCH   1   6
ATOM      6  C   UNL     1       7.029  -0.067  -2.070  1.00  0.00     0.047 C 
BRANCH   6   7
ATOM      7  C   UNL     1       6.456   0.101  -0.735  1.00  0.00    -0.047 A 
ATOM      8  C   UNL     1       5.803   1.262  -0.392  1.00  0.00     0.004 A 
ATOM      9  C   UNL     1       6.575  -0.919   0.180  1.00  0.00     0.004 A 
ATOM     10  C   UNL     1       5.280   1.354   0.900  1.00  0.00     0.000 A 
ATOM     11  C   UNL     1       6.057  -0.826   1.457  1.00  0.00     0.000 A 
ATOM     12  C   UNL     1       5.402   0.334   1.809  1.00  0.00     0.000 A 
ENDBRANCH   6   7
ENDBRANCH   1   6
TORSDOF 4
ENDMDL
