@<TRIPOS>MOLECULE
/home/cewinharhar/GITHUB/reincatalyze/data/processed/docking_pred/2023-May-05-1615_maxeplen10_maxtrainstep1000_seadep16_gamma099_lrac9e-4_lrcr1e-3/ae2b7ca0e57384ee3cd7889808440c06f68d274f_ligand_2.pdbqt
 12 12 0 0 0
SMALL
GASTEIGER

@<TRIPOS>ATOM
      1  C          8.4050   -0.6600   -2.0720 C.3     1  UNL1        0.1270
      2  C          8.3750   -1.9030   -2.8770 C.2     1  UNL1        0.3030
      3  O          7.2890   -2.4140   -3.2470 O.2     1  UNL1       -0.2520
      4  O          9.5500   -2.5390   -3.2460 O.3     1  UNL1       -0.4810
      5  H         10.4340   -2.2400   -2.8250 H       1  UNL1        0.2960
      6  C          7.0290   -0.0670   -2.0700 C.3     1  UNL1        0.0470
      7  C          6.4560    0.1010   -0.7350 C.2     1  UNL1       -0.0470
      8  C          5.8030    1.2620   -0.3920 C.2     1  UNL1        0.0040
      9  C          6.5750   -0.9190    0.1800 C.2     1  UNL1        0.0040
     10  C          5.2800    1.3540    0.9000 C.2     1  UNL1        0.0000
     11  C          6.0570   -0.8260    1.4570 C.2     1  UNL1        0.0000
     12  C          5.4020    0.3340    1.8090 C.2     1  UNL1        0.0000
@<TRIPOS>BOND
     1     3     2    2
     2     4     2    1
     3     4     5    1
     4     2     1    1
     5     1     6    1
     6     6     7    1
     7     7     8    2
     8     7     9    1
     9     8    10    1
    10     9    11    2
    11    10    12    2
    12    11    12    1
