MODEL 1
REMARK VINA RESULT:      -7.2      0.000      0.000
REMARK SMILES O=C(O)CCc1ccccc1
REMARK SMILES IDX 4 1 2 2 1 3 3 4 5 6 6 7 7 8 11 9 8 10 10 11 9 12
REMARK H PARENT 3 5
REMARK Flexibility Score: inf
ROOT
ATOM      1  C   UNL     1       8.388  -0.690  -2.004  1.00  0.00     0.127 C 
ENDROOT
BRANCH   1   2
ATOM      2  C   UNL     1       8.354  -1.901  -2.857  1.00  0.00     0.303 C 
ATOM      3  O   UNL     1       7.266  -2.388  -3.254  1.00  0.00    -0.252 OA
BRANCH   2   4
ATOM      4  O   UNL     1       9.526  -2.532  -3.241  1.00  0.00    -0.481 OA
ATOM      5  H   UNL     1      10.397  -2.313  -2.750  1.00  0.00     0.296 HD
ENDBRANCH   2   4
ENDBRANCH   1   2
BRANCH   1   6
ATOM      6  C   UNL     1       7.030  -0.058  -2.031  1.00  0.00     0.047 C 
BRANCH   6   7
ATOM      7  C   UNL     1       6.417   0.089  -0.712  1.00  0.00    -0.047 A 
ATOM      8  C   UNL     1       5.763   1.249  -0.365  1.00  0.00     0.004 A 
ATOM      9  C   UNL     1       6.497  -0.950   0.186  1.00  0.00     0.004 A 
ATOM     10  C   UNL     1       5.200   1.320   0.911  1.00  0.00     0.000 A 
ATOM     11  C   UNL     1       5.940  -0.879   1.447  1.00  0.00     0.000 A 
ATOM     12  C   UNL     1       5.284   0.280   1.802  1.00  0.00     0.000 A 
ENDBRANCH   6   7
ENDBRANCH   1   6
TORSDOF 4
ENDMDL
MODEL 2
REMARK VINA RESULT:      -6.8      3.274      5.083
REMARK SMILES O=C(O)CCc1ccccc1
REMARK SMILES IDX 4 1 2 2 1 3 3 4 5 6 6 7 7 8 11 9 8 10 10 11 9 12
REMARK H PARENT 3 5
REMARK Flexibility Score: inf
ROOT
ATOM      1  C   UNL     1       5.028   1.651   0.673  1.00  0.00     0.127 C 
ENDROOT
BRANCH   1   2
ATOM      2  C   UNL     1       4.565   0.998   1.920  1.00  0.00     0.303 C 
ATOM      3  O   UNL     1       5.263   0.128   2.497  1.00  0.00    -0.252 OA
BRANCH   2   4
ATOM      4  O   UNL     1       3.345   1.332   2.486  1.00  0.00    -0.481 OA
ATOM      5  H   UNL     1       2.531   1.464   1.879  1.00  0.00     0.296 HD
ENDBRANCH   2   4
ENDBRANCH   1   2
BRANCH   1   6
ATOM      6  C   UNL     1       6.525   1.711   0.700  1.00  0.00     0.047 C 
BRANCH   6   7
ATOM      7  C   UNL     1       7.169   0.946  -0.366  1.00  0.00    -0.047 A 
ATOM      8  C   UNL     1       8.479   1.188  -0.712  1.00  0.00     0.004 A 
ATOM      9  C   UNL     1       6.452  -0.025  -1.024  1.00  0.00     0.004 A 
ATOM     10  C   UNL     1       9.030   0.419  -1.739  1.00  0.00     0.000 A 
ATOM     11  C   UNL     1       6.998  -0.785  -2.039  1.00  0.00     0.000 A 
ATOM     12  C   UNL     1       8.309  -0.548  -2.393  1.00  0.00     0.000 A 
ENDBRANCH   6   7
ENDBRANCH   1   6
TORSDOF 4
ENDMDL
