@<TRIPOS>MOLECULE
/home/cewinharhar/GITHUB/reincatalyze/data/processed/docking_pred/2023-May-05-1615_maxeplen10_maxtrainstep1000_seadep16_gamma099_lrac9e-4_lrcr1e-3/ae45d061dddc84380b8ad6f9293329cc64ca5b9d_ligand_2.pdbqt
 12 12 0 0 0
SMALL
GASTEIGER

@<TRIPOS>ATOM
      1  C          8.3880   -0.6900   -2.0040 C.3     1  UNL1        0.1270
      2  C          8.3540   -1.9010   -2.8570 C.2     1  UNL1        0.3030
      3  O          7.2660   -2.3880   -3.2540 O.2     1  UNL1       -0.2520
      4  O          9.5260   -2.5320   -3.2410 O.3     1  UNL1       -0.4810
      5  H         10.3970   -2.3130   -2.7500 H       1  UNL1        0.2960
      6  C          7.0300   -0.0580   -2.0310 C.3     1  UNL1        0.0470
      7  C          6.4170    0.0890   -0.7120 C.2     1  UNL1       -0.0470
      8  C          5.7630    1.2490   -0.3650 C.2     1  UNL1        0.0040
      9  C          6.4970   -0.9500    0.1860 C.2     1  UNL1        0.0040
     10  C          5.2000    1.3200    0.9110 C.2     1  UNL1        0.0000
     11  C          5.9400   -0.8790    1.4470 C.2     1  UNL1        0.0000
     12  C          5.2840    0.2800    1.8020 C.2     1  UNL1        0.0000
@<TRIPOS>BOND
     1     3     2    2
     2     4     2    1
     3     4     5    1
     4     2     1    1
     5     6     1    1
     6     6     7    1
     7     7     8    2
     8     7     9    1
     9     8    10    1
    10     9    11    2
    11    10    12    2
    12    11    12    1
