@<TRIPOS>MOLECULE
/home/cewinharhar/GITHUB/reincatalyze/data/processed/docking_pred/2023-May-05-1615_maxeplen10_maxtrainstep1000_seadep16_gamma099_lrac9e-4_lrcr1e-3/ae45d061dddc84380b8ad6f9293329cc64ca5b9d_ligand_2.pdbqt
 12 12 0 0 0
SMALL
GASTEIGER

@<TRIPOS>ATOM
      1  C          5.0280    1.6510    0.6730 C.3     1  UNL1        0.1270
      2  C          4.5650    0.9980    1.9200 C.2     1  UNL1        0.3030
      3  O          5.2630    0.1280    2.4970 O.2     1  UNL1       -0.2520
      4  O          3.3450    1.3320    2.4860 O.3     1  UNL1       -0.4810
      5  H          2.5310    1.4640    1.8790 H       1  UNL1        0.2960
      6  C          6.5250    1.7110    0.7000 C.3     1  UNL1        0.0470
      7  C          7.1690    0.9460   -0.3660 C.2     1  UNL1       -0.0470
      8  C          8.4790    1.1880   -0.7120 C.2     1  UNL1        0.0040
      9  C          6.4520   -0.0250   -1.0240 C.2     1  UNL1        0.0040
     10  C          9.0300    0.4190   -1.7390 C.2     1  UNL1        0.0000
     11  C          6.9980   -0.7850   -2.0390 C.2     1  UNL1        0.0000
     12  C          8.3090   -0.5480   -2.3930 C.2     1  UNL1        0.0000
@<TRIPOS>BOND
     1    12    11    2
     2    12    10    1
     3    11     9    1
     4    10     8    2
     5     9     7    2
     6     8     7    1
     7     7     6    1
     8     1     6    1
     9     1     2    1
    10     5     4    1
    11     2     4    1
    12     2     3    2
