@<TRIPOS>MOLECULE
/home/cewinharhar/GITHUB/reincatalyze/data/processed/docking_pred/2023-May-05-1615_maxeplen10_maxtrainstep1000_seadep16_gamma099_lrac9e-4_lrcr1e-3/ae62664a3c9eef67376bdc077c2faa7ac5a69a78_ligand_2.pdbqt
 12 12 0 0 0
SMALL
GASTEIGER

@<TRIPOS>ATOM
      1  C          8.4370   -0.6420   -2.1280 C.3     1  UNL1        0.1270
      2  C          8.4750   -1.9050   -2.9020 C.2     1  UNL1        0.3030
      3  O          9.5530   -2.5220   -3.0880 O.2     1  UNL1       -0.2520
      4  O          7.3180   -2.4400   -3.4450 O.3     1  UNL1       -0.4810
      5  H          6.6700   -2.9500   -2.8390 H       1  UNL1        0.2960
      6  C          7.0260   -0.1370   -2.1200 C.3     1  UNL1        0.0470
      7  C          6.4710    0.0560   -0.7810 C.2     1  UNL1       -0.0470
      8  C          5.8310    1.2270   -0.4470 C.2     1  UNL1        0.0040
      9  C          6.5930   -0.9510    0.1480 C.2     1  UNL1        0.0040
     10  C          5.3250    1.3420    0.8490 C.2     1  UNL1        0.0000
     11  C          6.0930   -0.8350    1.4300 C.2     1  UNL1        0.0000
     12  C          5.4500    0.3350    1.7720 C.2     1  UNL1        0.0000
@<TRIPOS>BOND
     1     4     2    1
     2     4     5    1
     3     3     2    2
     4     2     1    1
     5     1     6    1
     6     6     7    1
     7     7     8    2
     8     7     9    1
     9     8    10    1
    10     9    11    2
    11    10    12    2
    12    11    12    1
