MODEL 1
REMARK VINA RESULT:      -7.2      0.000      0.000
REMARK SMILES O=C(O)CCc1ccccc1
REMARK SMILES IDX 4 1 2 2 1 3 3 4 5 6 6 7 7 8 11 9 8 10 10 11 9 12
REMARK H PARENT 3 5
REMARK Flexibility Score: inf
ROOT
ATOM      1  C   UNL     1       8.567  -0.599  -2.270  1.00  0.00     0.127 C 
ENDROOT
BRANCH   1   2
ATOM      2  C   UNL     1       8.546  -1.911  -2.959  1.00  0.00     0.303 C 
ATOM      3  O   UNL     1       9.599  -2.575  -3.127  1.00  0.00    -0.252 OA
BRANCH   2   4
ATOM      4  O   UNL     1       7.360  -2.443  -3.438  1.00  0.00    -0.481 OA
ATOM      5  H   UNL     1       6.740  -2.944  -2.795  1.00  0.00     0.296 HD
ENDBRANCH   2   4
ENDBRANCH   1   2
BRANCH   1   6
ATOM      6  C   UNL     1       7.159  -0.099  -2.167  1.00  0.00     0.047 C 
BRANCH   6   7
ATOM      7  C   UNL     1       6.751   0.251  -0.807  1.00  0.00    -0.047 A 
ATOM      8  C   UNL     1       5.773   1.194  -0.588  1.00  0.00     0.004 A 
ATOM      9  C   UNL     1       7.355  -0.376   0.258  1.00  0.00     0.004 A 
ATOM     10  C   UNL     1       5.433   1.478   0.737  1.00  0.00     0.000 A 
ATOM     11  C   UNL     1       7.018  -0.093   1.566  1.00  0.00     0.000 A 
ATOM     12  C   UNL     1       6.040   0.851   1.795  1.00  0.00     0.000 A 
ENDBRANCH   6   7
ENDBRANCH   1   6
TORSDOF 4
ENDMDL
MODEL 2
REMARK VINA RESULT:      -6.9      3.328      5.111
REMARK SMILES O=C(O)CCc1ccccc1
REMARK SMILES IDX 4 1 2 2 1 3 3 4 5 6 6 7 7 8 11 9 8 10 10 11 9 12
REMARK H PARENT 3 5
REMARK Flexibility Score: inf
ROOT
ATOM      1  C   UNL     1       5.029   1.771   0.652  1.00  0.00     0.127 C 
ENDROOT
BRANCH   1   2
ATOM      2  C   UNL     1       4.570   1.114   1.898  1.00  0.00     0.303 C 
ATOM      3  O   UNL     1       3.445   1.371   2.394  1.00  0.00    -0.252 OA
BRANCH   2   4
ATOM      4  O   UNL     1       5.373   0.194   2.553  1.00  0.00    -0.481 OA
ATOM      5  H   UNL     1       6.391   0.292   2.502  1.00  0.00     0.296 HD
ENDBRANCH   2   4
ENDBRANCH   1   2
BRANCH   1   6
ATOM      6  C   UNL     1       6.526   1.833   0.676  1.00  0.00     0.047 C 
BRANCH   6   7
ATOM      7  C   UNL     1       7.170   1.048  -0.375  1.00  0.00    -0.047 A 
ATOM      8  C   UNL     1       8.500   1.231  -0.674  1.00  0.00     0.004 A 
ATOM      9  C   UNL     1       6.430   0.117  -1.067  1.00  0.00     0.004 A 
ATOM     10  C   UNL     1       9.050   0.446  -1.690  1.00  0.00     0.000 A 
ATOM     11  C   UNL     1       6.976  -0.658  -2.071  1.00  0.00     0.000 A 
ATOM     12  C   UNL     1       8.307  -0.481  -2.377  1.00  0.00     0.000 A 
ENDBRANCH   6   7
ENDBRANCH   1   6
TORSDOF 4
ENDMDL
