@<TRIPOS>MOLECULE
/home/cewinharhar/GITHUB/reincatalyze/data/processed/docking_pred/2023-May-05-1615_maxeplen10_maxtrainstep1000_seadep16_gamma099_lrac9e-4_lrcr1e-3/af9628f04dddfdfce7c60ac864c84e5664a7a69f_ligand_2.pdbqt
 12 12 0 0 0
SMALL
GASTEIGER

@<TRIPOS>ATOM
      1  C          8.5670   -0.5990   -2.2700 C.3     1  UNL1        0.1270
      2  C          8.5460   -1.9110   -2.9590 C.2     1  UNL1        0.3030
      3  O          9.5990   -2.5750   -3.1270 O.2     1  UNL1       -0.2520
      4  O          7.3600   -2.4430   -3.4380 O.3     1  UNL1       -0.4810
      5  H          6.7400   -2.9440   -2.7950 H       1  UNL1        0.2960
      6  C          7.1590   -0.0990   -2.1670 C.3     1  UNL1        0.0470
      7  C          6.7510    0.2510   -0.8070 C.2     1  UNL1       -0.0470
      8  C          5.7730    1.1940   -0.5880 C.2     1  UNL1        0.0040
      9  C          7.3550   -0.3760    0.2580 C.2     1  UNL1        0.0040
     10  C          5.4330    1.4780    0.7370 C.2     1  UNL1        0.0000
     11  C          7.0180   -0.0930    1.5660 C.2     1  UNL1        0.0000
     12  C          6.0400    0.8510    1.7950 C.2     1  UNL1        0.0000
@<TRIPOS>BOND
     1     4     2    1
     2     4     5    1
     3     3     2    2
     4     2     1    1
     5     1     6    1
     6     6     7    1
     7     7     8    2
     8     7     9    1
     9     8    10    1
    10     9    11    2
    11    10    12    2
    12    11    12    1
