@<TRIPOS>MOLECULE
/home/cewinharhar/GITHUB/reincatalyze/data/processed/docking_pred/2023-May-05-1615_maxeplen10_maxtrainstep1000_seadep16_gamma099_lrac9e-4_lrcr1e-3/b0dbf451e4e891e0fb60bf6ca530f921e690d9da_ligand_2.pdbqt
 12 12 0 0 0
SMALL
GASTEIGER

@<TRIPOS>ATOM
      1  C          8.6740   -0.2160   -3.2230 C.3     1  UNL1        0.1270
      2  C          8.6780   -1.6980   -3.2530 C.2     1  UNL1        0.3030
      3  O          9.7530   -2.3460   -3.2340 O.2     1  UNL1       -0.2520
      4  O          7.4910   -2.4100   -3.3040 O.3     1  UNL1       -0.4810
      5  H          7.2410   -3.0240   -2.5250 H       1  UNL1        0.2960
      6  C          9.1580    0.2290   -1.8770 C.3     1  UNL1        0.0470
      7  C          8.1530    0.1230   -0.8200 C.2     1  UNL1       -0.0470
      8  C          8.4150   -0.5810    0.3320 C.2     1  UNL1        0.0040
      9  C          6.9350    0.7410   -0.9880 C.2     1  UNL1        0.0040
     10  C          7.4090   -0.6380    1.3000 C.2     1  UNL1        0.0000
     11  C          5.9420    0.6820   -0.0310 C.2     1  UNL1        0.0000
     12  C          6.1960   -0.0210    1.1260 C.2     1  UNL1        0.0000
@<TRIPOS>BOND
     1     4     2    1
     2     4     5    1
     3     2     3    2
     4     2     1    1
     5     1     6    1
     6     6     7    1
     7     9     7    2
     8     9    11    1
     9     7     8    1
    10    11    12    2
    11     8    10    2
    12    12    10    1
