MODEL 1
REMARK VINA RESULT:      -7.1      0.000      0.000
REMARK SMILES O=C(O)CCc1ccccc1
REMARK SMILES IDX 4 1 2 2 1 3 3 4 5 6 6 7 7 8 11 9 8 10 10 11 9 12
REMARK H PARENT 3 5
REMARK Flexibility Score: inf
ROOT
ATOM      1  C   UNL     1       8.452  -0.683  -2.049  1.00  0.00     0.127 C 
ENDROOT
BRANCH   1   2
ATOM      2  C   UNL     1       8.463  -1.924  -2.858  1.00  0.00     0.303 C 
ATOM      3  O   UNL     1       9.528  -2.558  -3.064  1.00  0.00    -0.252 OA
BRANCH   2   4
ATOM      4  O   UNL     1       7.294  -2.421  -3.411  1.00  0.00    -0.481 OA
ATOM      5  H   UNL     1       6.832  -3.222  -2.971  1.00  0.00     0.296 HD
ENDBRANCH   2   4
ENDBRANCH   1   2
BRANCH   1   6
ATOM      6  C   UNL     1       7.066  -0.115  -2.076  1.00  0.00     0.047 C 
BRANCH   6   7
ATOM      7  C   UNL     1       6.470   0.063  -0.753  1.00  0.00    -0.047 A 
ATOM      8  C   UNL     1       5.830   1.234  -0.422  1.00  0.00     0.004 A 
ATOM      9  C   UNL     1       6.554  -0.960   0.163  1.00  0.00     0.004 A 
ATOM     10  C   UNL     1       5.283   1.334   0.859  1.00  0.00     0.000 A 
ATOM     11  C   UNL     1       6.013  -0.859   1.430  1.00  0.00     0.000 A 
ATOM     12  C   UNL     1       5.370   0.312   1.770  1.00  0.00     0.000 A 
ENDBRANCH   6   7
ENDBRANCH   1   6
TORSDOF 4
ENDMDL
MODEL 2
REMARK VINA RESULT:      -6.6      1.393      2.211
REMARK SMILES O=C(O)CCc1ccccc1
REMARK SMILES IDX 4 1 2 2 1 3 3 4 5 6 6 7 7 8 11 9 8 10 10 11 9 12
REMARK H PARENT 3 5
REMARK Flexibility Score: inf
ROOT
ATOM      1  C   UNL     1       8.284  -0.550  -2.185  1.00  0.00     0.127 C 
ENDROOT
BRANCH   1   2
ATOM      2  C   UNL     1       8.313  -1.837  -2.918  1.00  0.00     0.303 C 
ATOM      3  O   UNL     1       7.253  -2.401  -3.287  1.00  0.00    -0.252 OA
BRANCH   2   4
ATOM      4  O   UNL     1       9.516  -2.457  -3.217  1.00  0.00    -0.481 OA
ATOM      5  H   UNL     1       9.706  -3.390  -2.842  1.00  0.00     0.296 HD
ENDBRANCH   2   4
ENDBRANCH   1   2
BRANCH   1   6
ATOM      6  C   UNL     1       6.967  -0.440  -1.479  1.00  0.00     0.047 C 
BRANCH   6   7
ATOM      7  C   UNL     1       6.805   0.792  -0.710  1.00  0.00    -0.047 A 
ATOM      8  C   UNL     1       7.882   1.376  -0.083  1.00  0.00     0.004 A 
ATOM      9  C   UNL     1       5.560   1.369  -0.619  1.00  0.00     0.004 A 
ATOM     10  C   UNL     1       7.654   2.553   0.634  1.00  0.00     0.000 A 
ATOM     11  C   UNL     1       5.337   2.532   0.091  1.00  0.00     0.000 A 
ATOM     12  C   UNL     1       6.409   3.123   0.722  1.00  0.00     0.000 A 
ENDBRANCH   6   7
ENDBRANCH   1   6
TORSDOF 4
ENDMDL
