@<TRIPOS>MOLECULE
/home/cewinharhar/GITHUB/reincatalyze/data/processed/docking_pred/2023-May-05-1615_maxeplen10_maxtrainstep1000_seadep16_gamma099_lrac9e-4_lrcr1e-3/b1cc709a4c09585943c6b669d8b61c6b26bf0288_ligand_2.pdbqt
 12 12 0 0 0
SMALL
GASTEIGER

@<TRIPOS>ATOM
      1  C          8.2840   -0.5500   -2.1850 C.3     1  UNL1        0.1270
      2  C          8.3130   -1.8370   -2.9180 C.2     1  UNL1        0.3030
      3  O          7.2530   -2.4010   -3.2870 O.2     1  UNL1       -0.2520
      4  O          9.5160   -2.4570   -3.2170 O.3     1  UNL1       -0.4810
      5  H          9.7060   -3.3900   -2.8420 H       1  UNL1        0.2960
      6  C          6.9670   -0.4400   -1.4790 C.3     1  UNL1        0.0470
      7  C          6.8050    0.7920   -0.7100 C.2     1  UNL1       -0.0470
      8  C          7.8820    1.3760   -0.0830 C.2     1  UNL1        0.0040
      9  C          5.5600    1.3690   -0.6190 C.2     1  UNL1        0.0040
     10  C          7.6540    2.5530    0.6340 C.2     1  UNL1        0.0000
     11  C          5.3370    2.5320    0.0910 C.2     1  UNL1        0.0000
     12  C          6.4090    3.1230    0.7220 C.2     1  UNL1        0.0000
@<TRIPOS>BOND
     1     3     2    2
     2     4     2    1
     3     4     5    1
     4     2     1    1
     5     1     6    1
     6     6     7    1
     7     7     9    2
     8     7     8    1
     9     9    11    1
    10     8    10    2
    11    11    12    2
    12    10    12    1
