@<TRIPOS>MOLECULE
/home/cewinharhar/GITHUB/reincatalyze/data/processed/docking_pred/2023-May-05-1615_maxeplen10_maxtrainstep1000_seadep16_gamma099_lrac9e-4_lrcr1e-3/b1cc709a4c09585943c6b669d8b61c6b26bf0288_ligand_2.pdbqt
 12 12 0 0 0
SMALL
GASTEIGER

@<TRIPOS>ATOM
      1  C          8.4520   -0.6830   -2.0490 C.3     1  UNL1        0.1270
      2  C          8.4630   -1.9240   -2.8580 C.2     1  UNL1        0.3030
      3  O          9.5280   -2.5580   -3.0640 O.2     1  UNL1       -0.2520
      4  O          7.2940   -2.4210   -3.4110 O.3     1  UNL1       -0.4810
      5  H          6.8320   -3.2220   -2.9710 H       1  UNL1        0.2960
      6  C          7.0660   -0.1150   -2.0760 C.3     1  UNL1        0.0470
      7  C          6.4700    0.0630   -0.7530 C.2     1  UNL1       -0.0470
      8  C          5.8300    1.2340   -0.4220 C.2     1  UNL1        0.0040
      9  C          6.5540   -0.9600    0.1630 C.2     1  UNL1        0.0040
     10  C          5.2830    1.3340    0.8590 C.2     1  UNL1        0.0000
     11  C          6.0130   -0.8590    1.4300 C.2     1  UNL1        0.0000
     12  C          5.3700    0.3120    1.7700 C.2     1  UNL1        0.0000
@<TRIPOS>BOND
     1     4     5    1
     2     4     2    1
     3     3     2    2
     4     2     1    1
     5     6     1    1
     6     6     7    1
     7     7     8    2
     8     7     9    1
     9     8    10    1
    10     9    11    2
    11    10    12    2
    12    11    12    1
