@<TRIPOS>MOLECULE
/home/cewinharhar/GITHUB/reincatalyze/data/processed/docking_pred/2023-May-05-1615_maxeplen10_maxtrainstep1000_seadep16_gamma099_lrac9e-4_lrcr1e-3/b3efa5aa79561967f2a1346927635c3d7bfec8a2_ligand_2.pdbqt
 12 12 0 0 0
SMALL
GASTEIGER

@<TRIPOS>ATOM
      1  C          7.8580   -0.7800   -2.1920 C.3     1  UNL1        0.1270
      2  C          8.3150   -1.9490   -2.9800 C.2     1  UNL1        0.3030
      3  O          9.5200   -2.3040   -2.9800 O.2     1  UNL1       -0.2520
      4  O          7.4210   -2.6840   -3.7420 O.3     1  UNL1       -0.4810
      5  H          7.0940   -3.5900   -3.3950 H       1  UNL1        0.2960
      6  C          7.2950   -1.2780   -0.8960 C.3     1  UNL1        0.0470
      7  C          6.5020   -0.2850   -0.1720 C.2     1  UNL1       -0.0470
      8  C          6.1230   -0.5030    1.1320 C.2     1  UNL1        0.0040
      9  C          6.1360    0.8770   -0.8110 C.2     1  UNL1        0.0040
     10  C          5.3670    0.4890    1.7620 C.2     1  UNL1        0.0000
     11  C          5.3880    1.8560   -0.1880 C.2     1  UNL1        0.0000
     12  C          5.0040    1.6460    1.1190 C.2     1  UNL1        0.0000
@<TRIPOS>BOND
     1     4     5    1
     2     4     2    1
     3     2     3    2
     4     2     1    1
     5     1     6    1
     6     6     7    1
     7     9    11    1
     8     9     7    2
     9    11    12    2
    10     7     8    1
    11    12    10    1
    12     8    10    2
