@<TRIPOS>MOLECULE
/home/cewinharhar/GITHUB/reincatalyze/data/processed/docking_pred/2023-May-05-1615_maxeplen10_maxtrainstep1000_seadep16_gamma099_lrac9e-4_lrcr1e-3/b3efa5aa79561967f2a1346927635c3d7bfec8a2_ligand_2.pdbqt
 12 12 0 0 0
SMALL
GASTEIGER

@<TRIPOS>ATOM
      1  C          5.0420    1.8180    0.6960 C.3     1  UNL1        0.1270
      2  C          4.5890    1.1850    1.9570 C.2     1  UNL1        0.3030
      3  O          5.2290    0.2380    2.4760 O.2     1  UNL1       -0.2520
      4  O          3.4420    1.6240    2.5990 O.3     1  UNL1       -0.4810
      5  H          2.5480    1.5950    2.1030 H       1  UNL1        0.2960
      6  C          6.5400    1.8440    0.6940 C.3     1  UNL1        0.0470
      7  C          7.1470    1.0500   -0.3730 C.2     1  UNL1       -0.0470
      8  C          6.3920    0.1650   -1.1070 C.2     1  UNL1        0.0040
      9  C          8.4890    1.1980   -0.6400 C.2     1  UNL1        0.0040
     10  C          7.0380   -0.5600   -2.1120 C.2     1  UNL1        0.0000
     11  C          9.1250    0.4800   -1.6330 C.2     1  UNL1        0.0000
     12  C          8.3760   -0.4090   -2.3730 C.2     1  UNL1        0.0000
@<TRIPOS>BOND
     1    12    10    2
     2    12    11    1
     3    10     8    1
     4    11     9    2
     5     8     7    2
     6     9     7    1
     7     7     6    1
     8     6     1    1
     9     1     2    1
    10     2     3    2
    11     2     4    1
    12     5     4    1
