@<TRIPOS>MOLECULE
/home/cewinharhar/GITHUB/reincatalyze/data/processed/docking_pred/2023-May-05-1615_maxeplen10_maxtrainstep1000_seadep16_gamma099_lrac9e-4_lrcr1e-3/b590df4aad401e291154b1741be08749940afe84_ligand_2.pdbqt
 12 12 0 0 0
SMALL
GASTEIGER

@<TRIPOS>ATOM
      1  C          8.4080   -0.6650   -2.0660 C.3     1  UNL1        0.1270
      2  C          8.3740   -1.9080   -2.8720 C.2     1  UNL1        0.3030
      3  O          7.2870   -2.4100   -3.2510 O.2     1  UNL1       -0.2520
      4  O          9.5470   -2.5530   -3.2320 O.3     1  UNL1       -0.4810
      5  H         10.1200   -2.1670   -3.9870 H       1  UNL1        0.2960
      6  C          7.0330   -0.0690   -2.0640 C.3     1  UNL1        0.0470
      7  C          6.4610    0.1020   -0.7290 C.2     1  UNL1       -0.0470
      8  C          5.8070    1.2630   -0.3880 C.2     1  UNL1        0.0040
      9  C          6.5820   -0.9160    0.1880 C.2     1  UNL1        0.0040
     10  C          5.2850    1.3570    0.9040 C.2     1  UNL1        0.0000
     11  C          6.0650   -0.8210    1.4650 C.2     1  UNL1        0.0000
     12  C          5.4090    0.3380    1.8150 C.2     1  UNL1        0.0000
@<TRIPOS>BOND
     1     5     4    1
     2     3     2    2
     3     4     2    1
     4     2     1    1
     5     1     6    1
     6     6     7    1
     7     7     8    2
     8     7     9    1
     9     8    10    1
    10     9    11    2
    11    10    12    2
    12    11    12    1
