@<TRIPOS>MOLECULE
/home/cewinharhar/GITHUB/reincatalyze/data/processed/docking_pred/2023-May-05-1615_maxeplen10_maxtrainstep1000_seadep16_gamma099_lrac9e-4_lrcr1e-3/b590df4aad401e291154b1741be08749940afe84_ligand_2.pdbqt
 12 12 0 0 0
SMALL
GASTEIGER

@<TRIPOS>ATOM
      1  C          8.3210   -0.5700   -2.1920 C.3     1  UNL1        0.1270
      2  C          8.3420   -1.8580   -2.9250 C.2     1  UNL1        0.3030
      3  O          7.2770   -2.4210   -3.2810 O.2     1  UNL1       -0.2520
      4  O          9.5410   -2.4780   -3.2380 O.3     1  UNL1       -0.4810
      5  H          9.6640   -3.4700   -3.0190 H       1  UNL1        0.2960
      6  C          6.9370   -0.3530   -1.6610 C.3     1  UNL1        0.0470
      7  C          6.8110    0.8150   -0.7910 C.2     1  UNL1       -0.0470
      8  C          7.9140    1.3500   -0.1670 C.2     1  UNL1        0.0040
      9  C          5.5710    1.3810   -0.6020 C.2     1  UNL1        0.0040
     10  C          7.7190    2.4670    0.6480 C.2     1  UNL1        0.0000
     11  C          5.3800    2.4850    0.2050 C.2     1  UNL1        0.0000
     12  C          6.4800    3.0260    0.8340 C.2     1  UNL1        0.0000
@<TRIPOS>BOND
     1     3     2    2
     2     4     5    1
     3     4     2    1
     4     2     1    1
     5     1     6    1
     6     6     7    1
     7     7     9    2
     8     7     8    1
     9     9    11    1
    10     8    10    2
    11    11    12    2
    12    10    12    1
