MODEL 1
REMARK VINA RESULT:      -7.1      0.000      0.000
REMARK SMILES O=C(O)CCc1ccccc1
REMARK SMILES IDX 4 1 2 2 1 3 3 4 5 6 6 7 7 8 11 9 8 10 10 11 9 12
REMARK H PARENT 3 5
REMARK Flexibility Score: inf
ROOT
ATOM      1  C   UNL     1       8.463  -0.643  -2.116  1.00  0.00     0.127 C 
ENDROOT
BRANCH   1   2
ATOM      2  C   UNL     1       8.469  -1.908  -2.888  1.00  0.00     0.303 C 
ATOM      3  O   UNL     1       9.529  -2.557  -3.064  1.00  0.00    -0.252 OA
BRANCH   2   4
ATOM      4  O   UNL     1       7.300  -2.410  -3.438  1.00  0.00    -0.481 OA
ATOM      5  H   UNL     1       7.049  -3.388  -3.272  1.00  0.00     0.296 HD
ENDBRANCH   2   4
ENDBRANCH   1   2
BRANCH   1   6
ATOM      6  C   UNL     1       7.066  -0.100  -2.113  1.00  0.00     0.047 C 
BRANCH   6   7
ATOM      7  C   UNL     1       6.493   0.060  -0.778  1.00  0.00    -0.047 A 
ATOM      8  C   UNL     1       6.593  -0.946   0.155  1.00  0.00     0.004 A 
ATOM      9  C   UNL     1       5.851   1.234  -0.459  1.00  0.00     0.004 A 
ATOM     10  C   UNL     1       6.023  -0.724   1.411  1.00  0.00     0.000 A 
ATOM     11  C   UNL     1       5.288   1.451   0.783  1.00  0.00     0.000 A 
ATOM     12  C   UNL     1       5.383   0.448   1.723  1.00  0.00     0.000 A 
ENDBRANCH   6   7
ENDBRANCH   1   6
TORSDOF 4
ENDMDL
MODEL 2
REMARK VINA RESULT:      -6.5      2.403      3.422
REMARK SMILES O=C(O)CCc1ccccc1
REMARK SMILES IDX 4 1 2 2 1 3 3 4 5 6 6 7 7 8 11 9 8 10 10 11 9 12
REMARK H PARENT 3 5
REMARK Flexibility Score: inf
ROOT
ATOM      1  C   UNL     1       7.944  -1.275   2.360  1.00  0.00     0.127 C 
ENDROOT
BRANCH   1   2
ATOM      2  C   UNL     1       8.702  -2.353   1.682  1.00  0.00     0.303 C 
ATOM      3  O   UNL     1       9.926  -2.527   1.904  1.00  0.00    -0.252 OA
BRANCH   2   4
ATOM      4  O   UNL     1       8.078  -3.201   0.781  1.00  0.00    -0.481 OA
ATOM      5  H   UNL     1       7.551  -4.005   1.133  1.00  0.00     0.296 HD
ENDBRANCH   2   4
ENDBRANCH   1   2
BRANCH   1   6
ATOM      6  C   UNL     1       6.523  -1.331   1.888  1.00  0.00     0.047 C 
BRANCH   6   7
ATOM      7  C   UNL     1       6.128  -0.196   1.056  1.00  0.00    -0.047 A 
ATOM      8  C   UNL     1       6.540  -0.107  -0.254  1.00  0.00     0.004 A 
ATOM      9  C   UNL     1       5.334   0.789   1.596  1.00  0.00     0.004 A 
ATOM     10  C   UNL     1       6.124   1.005  -0.990  1.00  0.00     0.000 A 
ATOM     11  C   UNL     1       4.923   1.887   0.867  1.00  0.00     0.000 A 
ATOM     12  C   UNL     1       5.332   1.984  -0.446  1.00  0.00     0.000 A 
ENDBRANCH   6   7
ENDBRANCH   1   6
TORSDOF 4
ENDMDL
