@<TRIPOS>MOLECULE
/home/cewinharhar/GITHUB/reincatalyze/data/processed/docking_pred/2023-May-05-1615_maxeplen10_maxtrainstep1000_seadep16_gamma099_lrac9e-4_lrcr1e-3/b5f7d4a2d914252a6bbd971338c7ac1ea6a3e46f_ligand_2.pdbqt
 12 12 0 0 0
SMALL
GASTEIGER

@<TRIPOS>ATOM
      1  C          7.9440   -1.2750    2.3600 C.3     1  UNL1        0.1270
      2  C          8.7020   -2.3530    1.6820 C.2     1  UNL1        0.3030
      3  O          9.9260   -2.5270    1.9040 O.2     1  UNL1       -0.2520
      4  O          8.0780   -3.2010    0.7810 O.3     1  UNL1       -0.4810
      5  H          7.5510   -4.0050    1.1330 H       1  UNL1        0.2960
      6  C          6.5230   -1.3310    1.8880 C.3     1  UNL1        0.0470
      7  C          6.1280   -0.1960    1.0560 C.2     1  UNL1       -0.0470
      8  C          6.5400   -0.1070   -0.2540 C.2     1  UNL1        0.0040
      9  C          5.3340    0.7890    1.5960 C.2     1  UNL1        0.0040
     10  C          6.1240    1.0050   -0.9900 C.2     1  UNL1        0.0000
     11  C          4.9230    1.8870    0.8670 C.2     1  UNL1        0.0000
     12  C          5.3320    1.9840   -0.4460 C.2     1  UNL1        0.0000
@<TRIPOS>BOND
     1    10    12    2
     2    10     8    1
     3    12    11    1
     4     8     7    2
     5     4     5    1
     6     4     2    1
     7    11     9    2
     8     7     9    1
     9     7     6    1
    10     2     3    2
    11     2     1    1
    12     6     1    1
