@<TRIPOS>MOLECULE
/home/cewinharhar/GITHUB/reincatalyze/data/processed/docking_pred/2023-May-05-1615_maxeplen10_maxtrainstep1000_seadep16_gamma099_lrac9e-4_lrcr1e-3/b5f7d4a2d914252a6bbd971338c7ac1ea6a3e46f_ligand_2.pdbqt
 12 12 0 0 0
SMALL
GASTEIGER

@<TRIPOS>ATOM
      1  C          8.4630   -0.6430   -2.1160 C.3     1  UNL1        0.1270
      2  C          8.4690   -1.9080   -2.8880 C.2     1  UNL1        0.3030
      3  O          9.5290   -2.5570   -3.0640 O.2     1  UNL1       -0.2520
      4  O          7.3000   -2.4100   -3.4380 O.3     1  UNL1       -0.4810
      5  H          7.0490   -3.3880   -3.2720 H       1  UNL1        0.2960
      6  C          7.0660   -0.1000   -2.1130 C.3     1  UNL1        0.0470
      7  C          6.4930    0.0600   -0.7780 C.2     1  UNL1       -0.0470
      8  C          6.5930   -0.9460    0.1550 C.2     1  UNL1        0.0040
      9  C          5.8510    1.2340   -0.4590 C.2     1  UNL1        0.0040
     10  C          6.0230   -0.7240    1.4110 C.2     1  UNL1        0.0000
     11  C          5.2880    1.4510    0.7830 C.2     1  UNL1        0.0000
     12  C          5.3830    0.4480    1.7230 C.2     1  UNL1        0.0000
@<TRIPOS>BOND
     1     4     5    1
     2     4     2    1
     3     3     2    2
     4     2     1    1
     5     1     6    1
     6     6     7    1
     7     7     9    2
     8     7     8    1
     9     9    11    1
    10     8    10    2
    11    11    12    2
    12    10    12    1
