@<TRIPOS>MOLECULE
/home/cewinharhar/GITHUB/reincatalyze/data/processed/docking_pred/2023-May-05-1615_maxeplen10_maxtrainstep1000_seadep16_gamma099_lrac9e-4_lrcr1e-3/b658f69152bbaa0d4df6d0fc1d77222c9f34aa3c_ligand_2.pdbqt
 12 12 0 0 0
SMALL
GASTEIGER

@<TRIPOS>ATOM
      1  C          7.9130   -5.5210   11.7900 C.3     1  UNL1        0.1270
      2  C          7.5200   -4.1540   11.3740 C.2     1  UNL1        0.3030
      3  O          7.5680   -3.8010   10.1700 O.2     1  UNL1       -0.2520
      4  O          7.0890   -3.2240   12.3070 O.3     1  UNL1       -0.4810
      5  H          6.9910   -2.2440   12.0290 H       1  UNL1        0.2960
      6  C          8.4420   -6.2450   10.5890 C.3     1  UNL1        0.0470
      7  C          9.8120   -6.7300   10.7430 C.2     1  UNL1       -0.0470
      8  C         10.1450   -8.0190   10.3990 C.2     1  UNL1        0.0040
      9  C         10.7740   -5.8790   11.2370 C.2     1  UNL1        0.0040
     10  C         11.4730   -8.4140   10.5720 C.2     1  UNL1        0.0000
     11  C         12.0860   -6.2710   11.4080 C.2     1  UNL1        0.0000
     12  C         12.4280   -7.5620   11.0660 C.2     1  UNL1        0.0000
@<TRIPOS>BOND
     1     3     2    2
     2     8    10    1
     3     8     7    2
     4    10    12    2
     5     6     7    1
     6     6     1    1
     7     7     9    1
     8    12    11    1
     9     9    11    2
    10     2     1    1
    11     2     4    1
    12     5     4    1
