@<TRIPOS>MOLECULE
/home/cewinharhar/GITHUB/reincatalyze/data/processed/docking_pred/2023-May-05-1615_maxeplen10_maxtrainstep1000_seadep16_gamma099_lrac9e-4_lrcr1e-3/b658f69152bbaa0d4df6d0fc1d77222c9f34aa3c_ligand_2.pdbqt
 12 12 0 0 0
SMALL
GASTEIGER

@<TRIPOS>ATOM
      1  C          7.9480   -6.4860   10.9940 C.3     1  UNL1        0.1270
      2  C          8.3090   -5.0510   11.0690 C.2     1  UNL1        0.3030
      3  O          9.2360   -4.6520   11.8170 O.2     1  UNL1       -0.2520
      4  O          7.6310   -4.1070   10.3150 O.3     1  UNL1       -0.4810
      5  H          6.8280   -4.3990    9.7520 H       1  UNL1        0.2960
      6  C          8.5940   -7.1960   12.1450 C.3     1  UNL1        0.0470
      7  C          9.4330   -8.3260   11.7510 C.2     1  UNL1       -0.0470
      8  C         10.3470   -8.2010   10.7300 C.2     1  UNL1        0.0040
      9  C          9.3020   -9.5230   12.4150 C.2     1  UNL1        0.0040
     10  C         11.1160   -9.3210   10.4080 C.2     1  UNL1        0.0000
     11  C         10.0630  -10.6300   12.0950 C.2     1  UNL1        0.0000
     12  C         10.9810  -10.5130   11.0740 C.2     1  UNL1        0.0000
@<TRIPOS>BOND
     1     5     4    1
     2     4     2    1
     3    10     8    1
     4    10    12    2
     5     8     7    2
     6     1     2    1
     7     1     6    1
     8     2     3    2
     9    12    11    1
    10     7     6    1
    11     7     9    1
    12    11     9    2
