MODEL 1
REMARK VINA RESULT:      -5.6      0.000      0.000
REMARK SMILES O=C(O)CCc1ccccc1
REMARK SMILES IDX 4 1 2 2 1 3 3 4 5 6 6 7 7 8 11 9 8 10 10 11 9 12
REMARK H PARENT 3 5
REMARK Flexibility Score: inf
ROOT
ATOM      1  C   UNL     1       6.301  -0.549   2.730  1.00  0.00     0.127 C 
ENDROOT
BRANCH   1   2
ATOM      2  C   UNL     1       7.095  -1.491   1.907  1.00  0.00     0.303 C 
ATOM      3  O   UNL     1       8.259  -1.206   1.533  1.00  0.00    -0.252 OA
BRANCH   2   4
ATOM      4  O   UNL     1       6.572  -2.716   1.526  1.00  0.00    -0.481 OA
ATOM      5  H   UNL     1       6.208  -2.832   0.576  1.00  0.00     0.296 HD
ENDBRANCH   2   4
ENDBRANCH   1   2
BRANCH   1   6
ATOM      6  C   UNL     1       5.209   0.018   1.875  1.00  0.00     0.047 C 
BRANCH   6   7
ATOM      7  C   UNL     1       5.521   1.327   1.304  1.00  0.00    -0.047 A 
ATOM      8  C   UNL     1       4.854   1.787   0.192  1.00  0.00     0.004 A 
ATOM      9  C   UNL     1       6.493   2.102   1.894  1.00  0.00     0.004 A 
ATOM     10  C   UNL     1       5.203   3.047  -0.298  1.00  0.00     0.000 A 
ATOM     11  C   UNL     1       6.837   3.348   1.407  1.00  0.00     0.000 A 
ATOM     12  C   UNL     1       6.174   3.815   0.293  1.00  0.00     0.000 A 
ENDBRANCH   6   7
ENDBRANCH   1   6
TORSDOF 4
ENDMDL
MODEL 2
REMARK VINA RESULT:      -3.7     11.770     14.307
REMARK SMILES O=C(O)CCc1ccccc1
REMARK SMILES IDX 4 1 2 2 1 3 3 4 5 6 6 7 7 8 11 9 8 10 10 11 9 12
REMARK H PARENT 3 5
REMARK Flexibility Score: inf
ROOT
ATOM      1  C   UNL     1       7.948  -6.486  10.994  1.00  0.00     0.127 C 
ENDROOT
BRANCH   1   2
ATOM      2  C   UNL     1       8.309  -5.051  11.069  1.00  0.00     0.303 C 
ATOM      3  O   UNL     1       9.236  -4.652  11.817  1.00  0.00    -0.252 OA
BRANCH   2   4
ATOM      4  O   UNL     1       7.631  -4.107  10.315  1.00  0.00    -0.481 OA
ATOM      5  H   UNL     1       6.828  -4.399   9.752  1.00  0.00     0.296 HD
ENDBRANCH   2   4
ENDBRANCH   1   2
BRANCH   1   6
ATOM      6  C   UNL     1       8.594  -7.196  12.145  1.00  0.00     0.047 C 
BRANCH   6   7
ATOM      7  C   UNL     1       9.433  -8.326  11.751  1.00  0.00    -0.047 A 
ATOM      8  C   UNL     1      10.347  -8.201  10.730  1.00  0.00     0.004 A 
ATOM      9  C   UNL     1       9.302  -9.523  12.415  1.00  0.00     0.004 A 
ATOM     10  C   UNL     1      11.116  -9.321  10.408  1.00  0.00     0.000 A 
ATOM     11  C   UNL     1      10.063 -10.630  12.095  1.00  0.00     0.000 A 
ATOM     12  C   UNL     1      10.981 -10.513  11.074  1.00  0.00     0.000 A 
ENDBRANCH   6   7
ENDBRANCH   1   6
TORSDOF 4
ENDMDL
MODEL 3
REMARK VINA RESULT:      -3.7     11.395     13.122
REMARK SMILES O=C(O)CCc1ccccc1
REMARK SMILES IDX 4 1 2 2 1 3 3 4 5 6 6 7 7 8 11 9 8 10 10 11 9 12
REMARK H PARENT 3 5
REMARK Flexibility Score: inf
ROOT
ATOM      1  C   UNL     1       7.913  -5.521  11.790  1.00  0.00     0.127 C 
ENDROOT
BRANCH   1   2
ATOM      2  C   UNL     1       7.520  -4.154  11.374  1.00  0.00     0.303 C 
ATOM      3  O   UNL     1       7.568  -3.801  10.170  1.00  0.00    -0.252 OA
BRANCH   2   4
ATOM      4  O   UNL     1       7.089  -3.224  12.307  1.00  0.00    -0.481 OA
ATOM      5  H   UNL     1       6.991  -2.244  12.029  1.00  0.00     0.296 HD
ENDBRANCH   2   4
ENDBRANCH   1   2
BRANCH   1   6
ATOM      6  C   UNL     1       8.442  -6.245  10.589  1.00  0.00     0.047 C 
BRANCH   6   7
ATOM      7  C   UNL     1       9.812  -6.730  10.743  1.00  0.00    -0.047 A 
ATOM      8  C   UNL     1      10.145  -8.019  10.399  1.00  0.00     0.004 A 
ATOM      9  C   UNL     1      10.774  -5.879  11.237  1.00  0.00     0.004 A 
ATOM     10  C   UNL     1      11.473  -8.414  10.572  1.00  0.00     0.000 A 
ATOM     11  C   UNL     1      12.086  -6.271  11.408  1.00  0.00     0.000 A 
ATOM     12  C   UNL     1      12.428  -7.562  11.066  1.00  0.00     0.000 A 
ENDBRANCH   6   7
ENDBRANCH   1   6
TORSDOF 4
ENDMDL
