@<TRIPOS>MOLECULE
/home/cewinharhar/GITHUB/reincatalyze/data/processed/docking_pred/2023-May-05-1615_maxeplen10_maxtrainstep1000_seadep16_gamma099_lrac9e-4_lrcr1e-3/b658f69152bbaa0d4df6d0fc1d77222c9f34aa3c_ligand_2.pdbqt
 12 12 0 0 0
SMALL
GASTEIGER

@<TRIPOS>ATOM
      1  C          6.3010   -0.5490    2.7300 C.3     1  UNL1        0.1270
      2  C          7.0950   -1.4910    1.9070 C.2     1  UNL1        0.3030
      3  O          8.2590   -1.2060    1.5330 O.2     1  UNL1       -0.2520
      4  O          6.5720   -2.7160    1.5260 O.3     1  UNL1       -0.4810
      5  H          6.2080   -2.8320    0.5760 H       1  UNL1        0.2960
      6  C          5.2090    0.0180    1.8750 C.3     1  UNL1        0.0470
      7  C          5.5210    1.3270    1.3040 C.2     1  UNL1       -0.0470
      8  C          4.8540    1.7870    0.1920 C.2     1  UNL1        0.0040
      9  C          6.4930    2.1020    1.8940 C.2     1  UNL1        0.0040
     10  C          5.2030    3.0470   -0.2980 C.2     1  UNL1        0.0000
     11  C          6.8370    3.3480    1.4070 C.2     1  UNL1        0.0000
     12  C          6.1740    3.8150    0.2930 C.2     1  UNL1        0.0000
@<TRIPOS>BOND
     1    10     8    1
     2    10    12    2
     3     8     7    2
     4    12    11    1
     5     5     4    1
     6     7     6    1
     7     7     9    1
     8    11     9    2
     9     4     2    1
    10     3     2    2
    11     6     1    1
    12     2     1    1
