@<TRIPOS>MOLECULE
/home/cewinharhar/GITHUB/reincatalyze/data/processed/docking_pred/2023-May-05-1615_maxeplen10_maxtrainstep1000_seadep16_gamma099_lrac9e-4_lrcr1e-3/b99eeed02ad73e34178363463c07c25b6fbf2bee_ligand_2.pdbqt
 12 12 0 0 0
SMALL
GASTEIGER

@<TRIPOS>ATOM
      1  C          7.2850   -1.2890   -2.1640 C.3     1  UNL1        0.1270
      2  C          8.7250   -1.3500   -2.5080 C.2     1  UNL1        0.3030
      3  O          9.5320   -0.4840   -2.0890 O.2     1  UNL1       -0.2520
      4  O          9.2210   -2.3690   -3.3060 O.3     1  UNL1       -0.4810
      5  H          9.4870   -2.1630   -4.2730 H       1  UNL1        0.2960
      6  C          7.1520   -1.3850   -0.6750 C.3     1  UNL1        0.0470
      7  C          6.3960   -0.2880   -0.0730 C.2     1  UNL1       -0.0470
      8  C          5.9370   -0.3770    1.2210 C.2     1  UNL1        0.0040
      9  C          6.1460    0.8420   -0.8160 C.2     1  UNL1        0.0040
     10  C          5.2220    0.7090    1.7310 C.2     1  UNL1        0.0000
     11  C          5.4390    1.9150   -0.3100 C.2     1  UNL1        0.0000
     12  C          4.9750    1.8340    0.9850 C.2     1  UNL1        0.0000
@<TRIPOS>BOND
     1     5     4    1
     2     4     2    1
     3     2     1    1
     4     2     3    2
     5     1     6    1
     6     9    11    1
     7     9     7    2
     8     6     7    1
     9    11    12    2
    10     7     8    1
    11    12    10    1
    12     8    10    2
