MODEL 1
REMARK VINA RESULT:      -7.2      0.000      0.000
REMARK SMILES O=C(O)CCc1ccccc1
REMARK SMILES IDX 4 1 2 2 1 3 3 4 5 6 6 7 7 8 11 9 8 10 10 11 9 12
REMARK H PARENT 3 5
REMARK Flexibility Score: inf
ROOT
ATOM      1  C   UNL     1       8.399  -0.635  -2.099  1.00  0.00     0.127 C 
ENDROOT
BRANCH   1   2
ATOM      2  C   UNL     1       8.367  -1.891  -2.885  1.00  0.00     0.303 C 
ATOM      3  O   UNL     1       7.279  -2.404  -3.248  1.00  0.00    -0.252 OA
BRANCH   2   4
ATOM      4  O   UNL     1       9.540  -2.535  -3.242  1.00  0.00    -0.481 OA
ATOM      5  H   UNL     1       9.691  -3.503  -2.944  1.00  0.00     0.296 HD
ENDBRANCH   2   4
ENDBRANCH   1   2
BRANCH   1   6
ATOM      6  C   UNL     1       7.017  -0.057  -2.078  1.00  0.00     0.047 C 
BRANCH   6   7
ATOM      7  C   UNL     1       6.459   0.101  -0.737  1.00  0.00    -0.047 A 
ATOM      8  C   UNL     1       5.807   1.258  -0.378  1.00  0.00     0.004 A 
ATOM      9  C   UNL     1       6.589  -0.925   0.170  1.00  0.00     0.004 A 
ATOM     10  C   UNL     1       5.297   1.339   0.920  1.00  0.00     0.000 A 
ATOM     11  C   UNL     1       6.085  -0.843   1.453  1.00  0.00     0.000 A 
ATOM     12  C   UNL     1       5.431   0.313   1.821  1.00  0.00     0.000 A 
ENDBRANCH   6   7
ENDBRANCH   1   6
TORSDOF 4
ENDMDL
MODEL 2
REMARK VINA RESULT:      -7.0      1.022      1.949
REMARK SMILES O=C(O)CCc1ccccc1
REMARK SMILES IDX 4 1 2 2 1 3 3 4 5 6 6 7 7 8 11 9 8 10 10 11 9 12
REMARK H PARENT 3 5
REMARK Flexibility Score: inf
ROOT
ATOM      1  C   UNL     1       7.285  -1.289  -2.164  1.00  0.00     0.127 C 
ENDROOT
BRANCH   1   2
ATOM      2  C   UNL     1       8.725  -1.350  -2.508  1.00  0.00     0.303 C 
ATOM      3  O   UNL     1       9.532  -0.484  -2.089  1.00  0.00    -0.252 OA
BRANCH   2   4
ATOM      4  O   UNL     1       9.221  -2.369  -3.306  1.00  0.00    -0.481 OA
ATOM      5  H   UNL     1       9.487  -2.163  -4.273  1.00  0.00     0.296 HD
ENDBRANCH   2   4
ENDBRANCH   1   2
BRANCH   1   6
ATOM      6  C   UNL     1       7.152  -1.385  -0.675  1.00  0.00     0.047 C 
BRANCH   6   7
ATOM      7  C   UNL     1       6.396  -0.288  -0.073  1.00  0.00    -0.047 A 
ATOM      8  C   UNL     1       5.937  -0.377   1.221  1.00  0.00     0.004 A 
ATOM      9  C   UNL     1       6.146   0.842  -0.816  1.00  0.00     0.004 A 
ATOM     10  C   UNL     1       5.222   0.709   1.731  1.00  0.00     0.000 A 
ATOM     11  C   UNL     1       5.439   1.915  -0.310  1.00  0.00     0.000 A 
ATOM     12  C   UNL     1       4.975   1.834   0.985  1.00  0.00     0.000 A 
ENDBRANCH   6   7
ENDBRANCH   1   6
TORSDOF 4
ENDMDL
