@<TRIPOS>MOLECULE
/home/cewinharhar/GITHUB/reincatalyze/data/processed/docking_pred/2023-May-05-1615_maxeplen10_maxtrainstep1000_seadep16_gamma099_lrac9e-4_lrcr1e-3/b99eeed02ad73e34178363463c07c25b6fbf2bee_ligand_2.pdbqt
 12 12 0 0 0
SMALL
GASTEIGER

@<TRIPOS>ATOM
      1  C          8.3990   -0.6350   -2.0990 C.3     1  UNL1        0.1270
      2  C          8.3670   -1.8910   -2.8850 C.2     1  UNL1        0.3030
      3  O          7.2790   -2.4040   -3.2480 O.2     1  UNL1       -0.2520
      4  O          9.5400   -2.5350   -3.2420 O.3     1  UNL1       -0.4810
      5  H          9.6910   -3.5030   -2.9440 H       1  UNL1        0.2960
      6  C          7.0170   -0.0570   -2.0780 C.3     1  UNL1        0.0470
      7  C          6.4590    0.1010   -0.7370 C.2     1  UNL1       -0.0470
      8  C          5.8070    1.2580   -0.3780 C.2     1  UNL1        0.0040
      9  C          6.5890   -0.9250    0.1700 C.2     1  UNL1        0.0040
     10  C          5.2970    1.3390    0.9200 C.2     1  UNL1        0.0000
     11  C          6.0850   -0.8430    1.4530 C.2     1  UNL1        0.0000
     12  C          5.4310    0.3130    1.8210 C.2     1  UNL1        0.0000
@<TRIPOS>BOND
     1     3     2    2
     2     4     5    1
     3     4     2    1
     4     2     1    1
     5     1     6    1
     6     6     7    1
     7     7     8    2
     8     7     9    1
     9     8    10    1
    10     9    11    2
    11    10    12    2
    12    11    12    1
