@<TRIPOS>MOLECULE
/home/cewinharhar/GITHUB/reincatalyze/data/processed/docking_pred/2023-May-05-1615_maxeplen10_maxtrainstep1000_seadep16_gamma099_lrac9e-4_lrcr1e-3/b9a0748b4c4cb53be71f33acfe76cbadf25e0c0f_ligand_2.pdbqt
 12 12 0 0 0
SMALL
GASTEIGER

@<TRIPOS>ATOM
      1  C          8.0230   -1.1920   -0.1960 C.3     1  UNL1        0.1270
      2  C          7.8580   -2.3620    0.6980 C.2     1  UNL1        0.3030
      3  O          8.7370   -3.2560    0.7690 O.2     1  UNL1       -0.2520
      4  O          6.7240   -2.5020    1.4830 O.3     1  UNL1       -0.4810
      5  H          6.6640   -1.9950    2.3710 H       1  UNL1        0.2960
      6  C          6.6690   -0.6050   -0.4570 C.3     1  UNL1        0.0470
      7  C          6.5540    0.8070   -0.0940 C.2     1  UNL1       -0.0470
      8  C          5.3880    1.5000   -0.3260 C.2     1  UNL1        0.0040
      9  C          7.6280    1.4410    0.4870 C.2     1  UNL1        0.0040
     10  C          5.3480    2.8450    0.0480 C.2     1  UNL1        0.0000
     11  C          7.5870    2.7710    0.8550 C.2     1  UNL1        0.0000
     12  C          6.4230    3.4720    0.6260 C.2     1  UNL1        0.0000
@<TRIPOS>BOND
     1     6     1    1
     2     6     7    1
     3     8     7    2
     4     8    10    1
     5     1     2    1
     6     7     9    1
     7    10    12    2
     8     9    11    2
     9    12    11    1
    10     2     3    2
    11     2     4    1
    12     4     5    1
