@<TRIPOS>MOLECULE
/home/cewinharhar/GITHUB/reincatalyze/data/processed/docking_pred/2023-May-05-1615_maxeplen10_maxtrainstep1000_seadep16_gamma099_lrac9e-4_lrcr1e-3/b9a0748b4c4cb53be71f33acfe76cbadf25e0c0f_ligand_2.pdbqt
 12 12 0 0 0
SMALL
GASTEIGER

@<TRIPOS>ATOM
      1  C          8.4550   -0.6530   -2.0930 C.3     1  UNL1        0.1270
      2  C          8.4940   -1.9070   -2.8810 C.2     1  UNL1        0.3030
      3  O          9.5750   -2.5130   -3.0870 O.2     1  UNL1       -0.2520
      4  O          7.3360   -2.4470   -3.4150 O.3     1  UNL1       -0.4810
      5  H          6.6010   -2.7800   -2.7840 H       1  UNL1        0.2960
      6  C          7.0530   -0.1240   -2.1210 C.3     1  UNL1        0.0470
      7  C          6.4700    0.0860   -0.7960 C.2     1  UNL1       -0.0470
      8  C          5.8110    1.2550   -0.4950 C.2     1  UNL1        0.0040
      9  C          6.5860   -0.9030    0.1520 C.2     1  UNL1        0.0040
     10  C          5.2790    1.3870    0.7890 C.2     1  UNL1        0.0000
     11  C          6.0590   -0.7710    1.4220 C.2     1  UNL1        0.0000
     12  C          5.3980    0.3970    1.7320 C.2     1  UNL1        0.0000
@<TRIPOS>BOND
     1     4     2    1
     2     4     5    1
     3     3     2    2
     4     2     1    1
     5     6     1    1
     6     6     7    1
     7     7     8    2
     8     7     9    1
     9     8    10    1
    10     9    11    2
    11    10    12    2
    12    11    12    1
