@<TRIPOS>MOLECULE
/home/cewinharhar/GITHUB/reincatalyze/data/processed/docking_pred/2023-May-05-1615_maxeplen10_maxtrainstep1000_seadep16_gamma099_lrac9e-4_lrcr1e-3/b9a0748b4c4cb53be71f33acfe76cbadf25e0c0f_ligand_2.pdbqt
 12 12 0 0 0
SMALL
GASTEIGER

@<TRIPOS>ATOM
      1  C          8.2200   -0.4900   -2.2820 C.3     1  UNL1        0.1270
      2  C          8.2790   -1.8040   -2.9650 C.2     1  UNL1        0.3030
      3  O          7.2330   -2.3990   -3.3210 O.2     1  UNL1       -0.2520
      4  O          9.4950   -2.4120   -3.2290 O.3     1  UNL1       -0.4810
      5  H         10.3470   -1.8440   -3.2450 H       1  UNL1        0.2960
      6  C          6.9610   -0.4370   -1.4710 C.3     1  UNL1        0.0470
      7  C          6.7970    0.7990   -0.7080 C.2     1  UNL1       -0.0470
      8  C          7.8690    1.3800   -0.0700 C.2     1  UNL1        0.0040
      9  C          5.5540    1.3830   -0.6350 C.2     1  UNL1        0.0040
     10  C          7.6390    2.5610    0.6390 C.2     1  UNL1        0.0000
     11  C          5.3280    2.5500    0.0670 C.2     1  UNL1        0.0000
     12  C          6.3960    3.1380    0.7100 C.2     1  UNL1        0.0000
@<TRIPOS>BOND
     1     3     2    2
     2     5     4    1
     3     4     2    1
     4     2     1    1
     5     1     6    1
     6     6     7    1
     7     7     9    2
     8     7     8    1
     9     9    11    1
    10     8    10    2
    11    11    12    2
    12    10    12    1
