@<TRIPOS>MOLECULE
/home/cewinharhar/GITHUB/reincatalyze/data/processed/docking_pred/2023-May-05-1615_maxeplen10_maxtrainstep1000_seadep16_gamma099_lrac9e-4_lrcr1e-3/b9a0748b4c4cb53be71f33acfe76cbadf25e0c0f_ligand_2.pdbqt
 12 12 0 0 0
SMALL
GASTEIGER

@<TRIPOS>ATOM
      1  C          7.3490   -0.3360   -2.1990 C.3     1  UNL1        0.1270
      2  C          8.7640   -0.7720   -2.2590 C.2     1  UNL1        0.3030
      3  O          9.6780   -0.0880   -1.7360 O.2     1  UNL1       -0.2520
      4  O          9.1180   -1.9510   -2.8950 O.3     1  UNL1       -0.4810
      5  H          9.8950   -1.9470   -3.5610 H       1  UNL1        0.2960
      6  C          6.9270   -0.3000   -0.7620 C.3     1  UNL1        0.0470
      7  C          6.6400    1.0420   -0.2600 C.2     1  UNL1       -0.0470
      8  C          5.3990    1.6090   -0.4390 C.2     1  UNL1        0.0040
      9  C          7.6270    1.7380    0.3990 C.2     1  UNL1        0.0040
     10  C          5.1950    2.8950    0.0670 C.2     1  UNL1        0.0000
     11  C          7.4230    3.0090    0.8980 C.2     1  UNL1        0.0000
     12  C          6.1830    3.5850    0.7230 C.2     1  UNL1        0.0000
@<TRIPOS>BOND
     1     5     4    1
     2     4     2    1
     3     2     1    1
     4     2     3    2
     5     1     6    1
     6     6     7    1
     7     8     7    2
     8     8    10    1
     9     7     9    1
    10    10    12    2
    11     9    11    2
    12    12    11    1
