MODEL 1
REMARK VINA RESULT:      -7.1      0.000      0.000
REMARK SMILES O=C(O)CCc1ccccc1
REMARK SMILES IDX 4 1 2 2 1 3 3 4 5 6 6 7 7 8 11 9 8 10 10 11 9 12
REMARK H PARENT 3 5
REMARK Flexibility Score: inf
ROOT
ATOM      1  C   UNL     1       8.455  -0.653  -2.093  1.00  0.00     0.127 C 
ENDROOT
BRANCH   1   2
ATOM      2  C   UNL     1       8.494  -1.907  -2.881  1.00  0.00     0.303 C 
ATOM      3  O   UNL     1       9.575  -2.513  -3.087  1.00  0.00    -0.252 OA
BRANCH   2   4
ATOM      4  O   UNL     1       7.336  -2.447  -3.415  1.00  0.00    -0.481 OA
ATOM      5  H   UNL     1       6.601  -2.780  -2.784  1.00  0.00     0.296 HD
ENDBRANCH   2   4
ENDBRANCH   1   2
BRANCH   1   6
ATOM      6  C   UNL     1       7.053  -0.124  -2.121  1.00  0.00     0.047 C 
BRANCH   6   7
ATOM      7  C   UNL     1       6.470   0.086  -0.796  1.00  0.00    -0.047 A 
ATOM      8  C   UNL     1       5.811   1.255  -0.495  1.00  0.00     0.004 A 
ATOM      9  C   UNL     1       6.586  -0.903   0.152  1.00  0.00     0.004 A 
ATOM     10  C   UNL     1       5.279   1.387   0.789  1.00  0.00     0.000 A 
ATOM     11  C   UNL     1       6.059  -0.771   1.422  1.00  0.00     0.000 A 
ATOM     12  C   UNL     1       5.398   0.397   1.732  1.00  0.00     0.000 A 
ENDBRANCH   6   7
ENDBRANCH   1   6
TORSDOF 4
ENDMDL
MODEL 2
REMARK VINA RESULT:      -6.6      1.366      2.192
REMARK SMILES O=C(O)CCc1ccccc1
REMARK SMILES IDX 4 1 2 2 1 3 3 4 5 6 6 7 7 8 11 9 8 10 10 11 9 12
REMARK H PARENT 3 5
REMARK Flexibility Score: inf
ROOT
ATOM      1  C   UNL     1       8.220  -0.490  -2.282  1.00  0.00     0.127 C 
ENDROOT
BRANCH   1   2
ATOM      2  C   UNL     1       8.279  -1.804  -2.965  1.00  0.00     0.303 C 
ATOM      3  O   UNL     1       7.233  -2.399  -3.321  1.00  0.00    -0.252 OA
BRANCH   2   4
ATOM      4  O   UNL     1       9.495  -2.412  -3.229  1.00  0.00    -0.481 OA
ATOM      5  H   UNL     1      10.347  -1.844  -3.245  1.00  0.00     0.296 HD
ENDBRANCH   2   4
ENDBRANCH   1   2
BRANCH   1   6
ATOM      6  C   UNL     1       6.961  -0.437  -1.471  1.00  0.00     0.047 C 
BRANCH   6   7
ATOM      7  C   UNL     1       6.797   0.799  -0.708  1.00  0.00    -0.047 A 
ATOM      8  C   UNL     1       7.869   1.380  -0.070  1.00  0.00     0.004 A 
ATOM      9  C   UNL     1       5.554   1.383  -0.635  1.00  0.00     0.004 A 
ATOM     10  C   UNL     1       7.639   2.561   0.639  1.00  0.00     0.000 A 
ATOM     11  C   UNL     1       5.328   2.550   0.067  1.00  0.00     0.000 A 
ATOM     12  C   UNL     1       6.396   3.138   0.710  1.00  0.00     0.000 A 
ENDBRANCH   6   7
ENDBRANCH   1   6
TORSDOF 4
ENDMDL
