@<TRIPOS>MOLECULE
/home/cewinharhar/GITHUB/reincatalyze/data/processed/docking_pred/2023-May-05-1615_maxeplen10_maxtrainstep1000_seadep16_gamma099_lrac9e-4_lrcr1e-3/bb509c9d750c31c787a0dfaad7ceec12964b61ea_ligand_2.pdbqt
 12 12 0 0 0
SMALL
GASTEIGER

@<TRIPOS>ATOM
      1  C          8.4130   -0.6720   -2.0480 C.3     1  UNL1        0.1270
      2  C          8.4530   -1.9150   -2.8540 C.2     1  UNL1        0.3030
      3  O          9.5300   -2.5320   -3.0460 O.2     1  UNL1       -0.2520
      4  O          7.2990   -2.4320   -3.4190 O.3     1  UNL1       -0.4810
      5  H          6.8030   -3.1890   -2.9400 H       1  UNL1        0.2960
      6  C          7.0120   -0.1420   -2.0690 C.3     1  UNL1        0.0470
      7  C          6.4400    0.0800   -0.7430 C.2     1  UNL1       -0.0470
      8  C          6.5470   -0.8780    0.2390 C.2     1  UNL1        0.0040
      9  C          5.7900    1.2640   -0.4810 C.2     1  UNL1        0.0040
     10  C          5.9780   -0.5980    1.4830 C.2     1  UNL1        0.0000
     11  C          5.2270    1.5390    0.7490 C.2     1  UNL1        0.0000
     12  C          5.3300    0.5840    1.7380 C.2     1  UNL1        0.0000
@<TRIPOS>BOND
     1     4     5    1
     2     4     2    1
     3     3     2    2
     4     2     1    1
     5     6     1    1
     6     6     7    1
     7     7     9    2
     8     7     8    1
     9     9    11    1
    10     8    10    2
    11    11    12    2
    12    10    12    1
