MODEL 1
REMARK VINA RESULT:      -7.3      0.000      0.000
REMARK SMILES O=C(O)CCc1ccccc1
REMARK SMILES IDX 4 1 2 2 1 3 3 4 5 6 6 7 7 8 11 9 8 10 10 11 9 12
REMARK H PARENT 3 5
REMARK Flexibility Score: inf
ROOT
ATOM      1  C   UNL     1       8.413  -0.672  -2.048  1.00  0.00     0.127 C 
ENDROOT
BRANCH   1   2
ATOM      2  C   UNL     1       8.453  -1.915  -2.854  1.00  0.00     0.303 C 
ATOM      3  O   UNL     1       9.530  -2.532  -3.046  1.00  0.00    -0.252 OA
BRANCH   2   4
ATOM      4  O   UNL     1       7.299  -2.432  -3.419  1.00  0.00    -0.481 OA
ATOM      5  H   UNL     1       6.803  -3.189  -2.940  1.00  0.00     0.296 HD
ENDBRANCH   2   4
ENDBRANCH   1   2
BRANCH   1   6
ATOM      6  C   UNL     1       7.012  -0.142  -2.069  1.00  0.00     0.047 C 
BRANCH   6   7
ATOM      7  C   UNL     1       6.440   0.080  -0.743  1.00  0.00    -0.047 A 
ATOM      8  C   UNL     1       6.547  -0.878   0.239  1.00  0.00     0.004 A 
ATOM      9  C   UNL     1       5.790   1.264  -0.481  1.00  0.00     0.004 A 
ATOM     10  C   UNL     1       5.978  -0.598   1.483  1.00  0.00     0.000 A 
ATOM     11  C   UNL     1       5.227   1.539   0.749  1.00  0.00     0.000 A 
ATOM     12  C   UNL     1       5.330   0.584   1.738  1.00  0.00     0.000 A 
ENDBRANCH   6   7
ENDBRANCH   1   6
TORSDOF 4
ENDMDL
