@<TRIPOS>MOLECULE
/home/cewinharhar/GITHUB/reincatalyze/data/processed/docking_pred/2023-May-05-1615_maxeplen10_maxtrainstep1000_seadep16_gamma099_lrac9e-4_lrcr1e-3/bb509c9d750c31c787a0dfaad7ceec12964b61ea_ligand_2.pdbqt
 12 12 0 0 0
SMALL
GASTEIGER

@<TRIPOS>ATOM
      1  C          5.8450    0.8220    0.5770 C.3     1  UNL1        0.1270
      2  C          5.2880    0.4190    1.8900 C.2     1  UNL1        0.3030
      3  O          5.8580   -0.4430    2.6020 O.2     1  UNL1       -0.2520
      4  O          4.1170    0.9850    2.3680 O.3     1  UNL1       -0.4810
      5  H          3.8040    0.7640    3.3170 H       1  UNL1        0.2960
      6  C          6.5070   -0.3730   -0.0400 C.3     1  UNL1        0.0470
      7  C          7.9570   -0.2450   -0.1760 C.2     1  UNL1       -0.0470
      8  C          8.5050    0.7430   -0.9600 C.2     1  UNL1        0.0040
      9  C          8.7740   -1.1260    0.4940 C.2     1  UNL1        0.0040
     10  C          9.8980    0.8070   -1.0430 C.2     1  UNL1        0.0000
     11  C         10.1510   -1.0620    0.4110 C.2     1  UNL1        0.0000
     12  C         10.7080   -0.0750   -0.3740 C.2     1  UNL1        0.0000
@<TRIPOS>BOND
     1    10     8    1
     2    10    12    2
     3     8     7    2
     4    12    11    1
     5     7     6    1
     6     7     9    1
     7     6     1    1
     8    11     9    2
     9     1     2    1
    10     2     4    1
    11     2     3    2
    12     4     5    1
