@<TRIPOS>MOLECULE
/home/cewinharhar/GITHUB/reincatalyze/data/processed/docking_pred/2023-May-05-1615_maxeplen10_maxtrainstep1000_seadep16_gamma099_lrac9e-4_lrcr1e-3/bb8285001221c2ec88d34c7e342a921234d5c761_ligand_2.pdbqt
 12 12 0 0 0
SMALL
GASTEIGER

@<TRIPOS>ATOM
      1  C          8.3990   -0.6550   -2.0770 C.3     1  UNL1        0.1270
      2  C          8.3700   -1.9030   -2.8750 C.2     1  UNL1        0.3030
      3  O          7.2840   -2.4080   -3.2540 O.2     1  UNL1       -0.2520
      4  O          9.5440   -2.5500   -3.2250 O.3     1  UNL1       -0.4810
      5  H          9.8370   -3.3770   -2.6970 H       1  UNL1        0.2960
      6  C          7.0210   -0.0680   -2.0690 C.3     1  UNL1        0.0470
      7  C          6.4550    0.1030   -0.7320 C.2     1  UNL1       -0.0470
      8  C          5.7990    1.2620   -0.3900 C.2     1  UNL1        0.0040
      9  C          6.5820   -0.9130    0.1860 C.2     1  UNL1        0.0040
     10  C          5.2820    1.3570    0.9050 C.2     1  UNL1        0.0000
     11  C          6.0710   -0.8190    1.4650 C.2     1  UNL1        0.0000
     12  C          5.4130    0.3400    1.8170 C.2     1  UNL1        0.0000
@<TRIPOS>BOND
     1     3     2    2
     2     4     2    1
     3     4     5    1
     4     2     1    1
     5     1     6    1
     6     6     7    1
     7     7     8    2
     8     7     9    1
     9     8    10    1
    10     9    11    2
    11    10    12    2
    12    11    12    1
