@<TRIPOS>MOLECULE
/home/cewinharhar/GITHUB/reincatalyze/data/processed/docking_pred/2023-May-05-1615_maxeplen10_maxtrainstep1000_seadep16_gamma099_lrac9e-4_lrcr1e-3/bde4f716ac8ce10fa2b7126593b1b8cc9fcb83f2_ligand_2.pdbqt
 12 12 0 0 0
SMALL
GASTEIGER

@<TRIPOS>ATOM
      1  C          8.4040   -0.6620   -2.0700 C.3     1  UNL1        0.1270
      2  C          8.3750   -1.9050   -2.8760 C.2     1  UNL1        0.3030
      3  O          7.2880   -2.4120   -3.2510 O.2     1  UNL1       -0.2520
      4  O          9.5490   -2.5450   -3.2380 O.3     1  UNL1       -0.4810
      5  H         10.3330   -2.5630   -2.5790 H       1  UNL1        0.2960
      6  C          7.0280   -0.0700   -2.0670 C.3     1  UNL1        0.0470
      7  C          6.4560    0.0990   -0.7320 C.2     1  UNL1       -0.0470
      8  C          5.8030    1.2600   -0.3880 C.2     1  UNL1        0.0040
      9  C          6.5760   -0.9210    0.1830 C.2     1  UNL1        0.0040
     10  C          5.2810    1.3510    0.9040 C.2     1  UNL1        0.0000
     11  C          6.0590   -0.8290    1.4600 C.2     1  UNL1        0.0000
     12  C          5.4040    0.3310    1.8130 C.2     1  UNL1        0.0000
@<TRIPOS>BOND
     1     3     2    2
     2     4     2    1
     3     4     5    1
     4     2     1    1
     5     1     6    1
     6     6     7    1
     7     7     8    2
     8     7     9    1
     9     8    10    1
    10     9    11    2
    11    10    12    2
    12    11    12    1
