MODEL 1
REMARK VINA RESULT:      -7.0      0.000      0.000
REMARK SMILES O=C(O)CCc1ccccc1
REMARK SMILES IDX 4 1 2 2 1 3 3 4 5 6 6 7 7 8 11 9 8 10 10 11 9 12
REMARK H PARENT 3 5
REMARK Flexibility Score: inf
ROOT
ATOM      1  C   UNL     1       8.403  -0.656  -2.077  1.00  0.00     0.127 C 
ENDROOT
BRANCH   1   2
ATOM      2  C   UNL     1       8.371  -1.901  -2.880  1.00  0.00     0.303 C 
ATOM      3  O   UNL     1       7.284  -2.409  -3.251  1.00  0.00    -0.252 OA
BRANCH   2   4
ATOM      4  O   UNL     1       9.545  -2.540  -3.245  1.00  0.00    -0.481 OA
ATOM      5  H   UNL     1       9.650  -3.541  -3.058  1.00  0.00     0.296 HD
ENDBRANCH   2   4
ENDBRANCH   1   2
BRANCH   1   6
ATOM      6  C   UNL     1       7.026  -0.064  -2.073  1.00  0.00     0.047 C 
BRANCH   6   7
ATOM      7  C   UNL     1       6.452   0.097  -0.738  1.00  0.00    -0.047 A 
ATOM      8  C   UNL     1       5.798   1.255  -0.389  1.00  0.00     0.004 A 
ATOM      9  C   UNL     1       6.571  -0.928   0.172  1.00  0.00     0.004 A 
ATOM     10  C   UNL     1       5.273   1.340   0.903  1.00  0.00     0.000 A 
ATOM     11  C   UNL     1       6.053  -0.843   1.449  1.00  0.00     0.000 A 
ATOM     12  C   UNL     1       5.396   0.314   1.807  1.00  0.00     0.000 A 
ENDBRANCH   6   7
ENDBRANCH   1   6
TORSDOF 4
ENDMDL
MODEL 2
REMARK VINA RESULT:      -6.8      1.420      2.179
REMARK SMILES O=C(O)CCc1ccccc1
REMARK SMILES IDX 4 1 2 2 1 3 3 4 5 6 6 7 7 8 11 9 8 10 10 11 9 12
REMARK H PARENT 3 5
REMARK Flexibility Score: inf
ROOT
ATOM      1  C   UNL     1       8.315  -0.512  -2.319  1.00  0.00     0.127 C 
ENDROOT
BRANCH   1   2
ATOM      2  C   UNL     1       8.409  -1.849  -2.952  1.00  0.00     0.303 C 
ATOM      3  O   UNL     1       9.513  -2.435  -3.073  1.00  0.00    -0.252 OA
BRANCH   2   4
ATOM      4  O   UNL     1       7.277  -2.489  -3.430  1.00  0.00    -0.481 OA
ATOM      5  H   UNL     1       7.346  -3.462  -3.740  1.00  0.00     0.296 HD
ENDBRANCH   2   4
ENDBRANCH   1   2
BRANCH   1   6
ATOM      6  C   UNL     1       6.975  -0.396  -1.660  1.00  0.00     0.047 C 
BRANCH   6   7
ATOM      7  C   UNL     1       6.832   0.780  -0.805  1.00  0.00    -0.047 A 
ATOM      8  C   UNL     1       7.925   1.327  -0.173  1.00  0.00     0.004 A 
ATOM      9  C   UNL     1       5.587   1.341  -0.637  1.00  0.00     0.004 A 
ATOM     10  C   UNL     1       7.715   2.452   0.628  1.00  0.00     0.000 A 
ATOM     11  C   UNL     1       5.382   2.453   0.156  1.00  0.00     0.000 A 
ATOM     12  C   UNL     1       6.471   3.007   0.793  1.00  0.00     0.000 A 
ENDBRANCH   6   7
ENDBRANCH   1   6
TORSDOF 4
ENDMDL
