@<TRIPOS>MOLECULE
/home/cewinharhar/GITHUB/reincatalyze/data/processed/docking_pred/2023-May-05-1615_maxeplen10_maxtrainstep1000_seadep16_gamma099_lrac9e-4_lrcr1e-3/be159ddb300952c005bf82764a5ce22912cca304_ligand_2.pdbqt
 12 12 0 0 0
SMALL
GASTEIGER

@<TRIPOS>ATOM
      1  C          8.4030   -0.6560   -2.0770 C.3     1  UNL1        0.1270
      2  C          8.3710   -1.9010   -2.8800 C.2     1  UNL1        0.3030
      3  O          7.2840   -2.4090   -3.2510 O.2     1  UNL1       -0.2520
      4  O          9.5450   -2.5400   -3.2450 O.3     1  UNL1       -0.4810
      5  H          9.6500   -3.5410   -3.0580 H       1  UNL1        0.2960
      6  C          7.0260   -0.0640   -2.0730 C.3     1  UNL1        0.0470
      7  C          6.4520    0.0970   -0.7380 C.2     1  UNL1       -0.0470
      8  C          5.7980    1.2550   -0.3890 C.2     1  UNL1        0.0040
      9  C          6.5710   -0.9280    0.1720 C.2     1  UNL1        0.0040
     10  C          5.2730    1.3400    0.9030 C.2     1  UNL1        0.0000
     11  C          6.0530   -0.8430    1.4490 C.2     1  UNL1        0.0000
     12  C          5.3960    0.3140    1.8070 C.2     1  UNL1        0.0000
@<TRIPOS>BOND
     1     3     2    2
     2     4     5    1
     3     4     2    1
     4     2     1    1
     5     1     6    1
     6     6     7    1
     7     7     8    2
     8     7     9    1
     9     8    10    1
    10     9    11    2
    11    10    12    2
    12    11    12    1
