@<TRIPOS>MOLECULE
/home/cewinharhar/GITHUB/reincatalyze/data/processed/docking_pred/2023-May-05-1615_maxeplen10_maxtrainstep1000_seadep16_gamma099_lrac9e-4_lrcr1e-3/be159ddb300952c005bf82764a5ce22912cca304_ligand_2.pdbqt
 12 12 0 0 0
SMALL
GASTEIGER

@<TRIPOS>ATOM
      1  C          8.3150   -0.5120   -2.3190 C.3     1  UNL1        0.1270
      2  C          8.4090   -1.8490   -2.9520 C.2     1  UNL1        0.3030
      3  O          9.5130   -2.4350   -3.0730 O.2     1  UNL1       -0.2520
      4  O          7.2770   -2.4890   -3.4300 O.3     1  UNL1       -0.4810
      5  H          7.3460   -3.4620   -3.7400 H       1  UNL1        0.2960
      6  C          6.9750   -0.3960   -1.6600 C.3     1  UNL1        0.0470
      7  C          6.8320    0.7800   -0.8050 C.2     1  UNL1       -0.0470
      8  C          7.9250    1.3270   -0.1730 C.2     1  UNL1        0.0040
      9  C          5.5870    1.3410   -0.6370 C.2     1  UNL1        0.0040
     10  C          7.7150    2.4520    0.6280 C.2     1  UNL1        0.0000
     11  C          5.3820    2.4530    0.1560 C.2     1  UNL1        0.0000
     12  C          6.4710    3.0070    0.7930 C.2     1  UNL1        0.0000
@<TRIPOS>BOND
     1     5     4    1
     2     4     2    1
     3     3     2    2
     4     2     1    1
     5     1     6    1
     6     6     7    1
     7     7     9    2
     8     7     8    1
     9     9    11    1
    10     8    10    2
    11    11    12    2
    12    10    12    1
