@<TRIPOS>MOLECULE
/home/cewinharhar/GITHUB/reincatalyze/data/processed/docking_pred/2023-May-05-1615_maxeplen10_maxtrainstep1000_seadep16_gamma099_lrac9e-4_lrcr1e-3/bef029ec7f2d3d0301694813bb63cef4e6663bb8_ligand_2.pdbqt
 12 12 0 0 0
SMALL
GASTEIGER

@<TRIPOS>ATOM
      1  C          8.3150   -0.6920   -2.1600 C.3     1  UNL1        0.1270
      2  C          8.4370   -1.9530   -2.9300 C.2     1  UNL1        0.3030
      3  O          9.5520   -2.5020   -3.1060 O.2     1  UNL1       -0.2520
      4  O          7.3190   -2.5610   -3.4780 O.3     1  UNL1       -0.4810
      5  H          6.7720   -3.2120   -2.9080 H       1  UNL1        0.2960
      6  C          6.8880   -0.5400   -1.7290 C.3     1  UNL1        0.0470
      7  C          6.6810   -0.6990   -0.2910 C.2     1  UNL1       -0.0470
      8  C          7.2810   -1.7280    0.3960 C.2     1  UNL1        0.0040
      9  C          5.8760    0.1960    0.3750 C.2     1  UNL1        0.0040
     10  C          7.0400   -1.8190    1.7690 C.2     1  UNL1        0.0000
     11  C          5.6380    0.1050    1.7320 C.2     1  UNL1        0.0000
     12  C          6.2360   -0.9230    2.4280 C.2     1  UNL1        0.0000
@<TRIPOS>BOND
     1     4     2    1
     2     4     5    1
     3     3     2    2
     4     2     1    1
     5     1     6    1
     6     6     7    1
     7     7     9    2
     8     7     8    1
     9     9    11    1
    10     8    10    2
    11    11    12    2
    12    10    12    1
