@<TRIPOS>MOLECULE
/home/cewinharhar/GITHUB/reincatalyze/data/processed/docking_pred/2023-May-05-1615_maxeplen10_maxtrainstep1000_seadep16_gamma099_lrac9e-4_lrcr1e-3/bef029ec7f2d3d0301694813bb63cef4e6663bb8_ligand_2.pdbqt
 12 12 0 0 0
SMALL
GASTEIGER

@<TRIPOS>ATOM
      1  C          5.0980   -0.1310    2.0520 C.3     1  UNL1        0.1270
      2  C          4.4230    1.1870    1.9870 C.2     1  UNL1        0.3030
      3  O          4.9520    2.1610    1.3960 O.2     1  UNL1       -0.2520
      4  O          3.1850    1.3800    2.5790 O.3     1  UNL1       -0.4810
      5  H          2.6960    2.2680    2.4380 H       1  UNL1        0.2960
      6  C          6.5490    0.0670    1.7320 C.3     1  UNL1        0.0470
      7  C          7.0140   -0.7020    0.5790 C.2     1  UNL1       -0.0470
      8  C          6.6210   -0.3640   -0.6960 C.2     1  UNL1        0.0040
      9  C          7.8550   -1.7710    0.7810 C.2     1  UNL1        0.0040
     10  C          7.1050   -1.1420   -1.7500 C.2     1  UNL1        0.0000
     11  C          8.3320   -2.5390   -0.2630 C.2     1  UNL1        0.0000
     12  C          7.9430   -2.2090   -1.5430 C.2     1  UNL1        0.0000
@<TRIPOS>BOND
     1    10    12    2
     2    10     8    1
     3    12    11    1
     4     8     7    2
     5    11     9    2
     6     7     9    1
     7     7     6    1
     8     3     2    2
     9     6     1    1
    10     2     1    1
    11     2     4    1
    12     5     4    1
