MODEL 1
REMARK VINA RESULT:      -6.5      0.000      0.000
REMARK SMILES O=C(O)CCc1ccccc1
REMARK SMILES IDX 4 1 2 2 1 3 3 4 5 6 6 7 7 8 11 9 8 10 10 11 9 12
REMARK H PARENT 3 5
REMARK Flexibility Score: inf
ROOT
ATOM      1  C   UNL     1       8.315  -0.692  -2.160  1.00  0.00     0.127 C 
ENDROOT
BRANCH   1   2
ATOM      2  C   UNL     1       8.437  -1.953  -2.930  1.00  0.00     0.303 C 
ATOM      3  O   UNL     1       9.552  -2.502  -3.106  1.00  0.00    -0.252 OA
BRANCH   2   4
ATOM      4  O   UNL     1       7.319  -2.561  -3.478  1.00  0.00    -0.481 OA
ATOM      5  H   UNL     1       6.772  -3.212  -2.908  1.00  0.00     0.296 HD
ENDBRANCH   2   4
ENDBRANCH   1   2
BRANCH   1   6
ATOM      6  C   UNL     1       6.888  -0.540  -1.729  1.00  0.00     0.047 C 
BRANCH   6   7
ATOM      7  C   UNL     1       6.681  -0.699  -0.291  1.00  0.00    -0.047 A 
ATOM      8  C   UNL     1       7.281  -1.728   0.396  1.00  0.00     0.004 A 
ATOM      9  C   UNL     1       5.876   0.196   0.375  1.00  0.00     0.004 A 
ATOM     10  C   UNL     1       7.040  -1.819   1.769  1.00  0.00     0.000 A 
ATOM     11  C   UNL     1       5.638   0.105   1.732  1.00  0.00     0.000 A 
ATOM     12  C   UNL     1       6.236  -0.923   2.428  1.00  0.00     0.000 A 
ENDBRANCH   6   7
ENDBRANCH   1   6
TORSDOF 4
ENDMDL
MODEL 2
REMARK VINA RESULT:      -6.3      3.197      4.947
REMARK SMILES O=C(O)CCc1ccccc1
REMARK SMILES IDX 4 1 2 2 1 3 3 4 5 6 6 7 7 8 11 9 8 10 10 11 9 12
REMARK H PARENT 3 5
REMARK Flexibility Score: inf
ROOT
ATOM      1  C   UNL     1       5.919  -0.891   1.755  1.00  0.00     0.127 C 
ENDROOT
BRANCH   1   2
ATOM      2  C   UNL     1       5.367   0.454   2.042  1.00  0.00     0.303 C 
ATOM      3  O   UNL     1       4.195   0.600   2.468  1.00  0.00    -0.252 OA
BRANCH   2   4
ATOM      4  O   UNL     1       6.134   1.592   1.846  1.00  0.00    -0.481 OA
ATOM      5  H   UNL     1       6.843   1.598   1.108  1.00  0.00     0.296 HD
ENDBRANCH   2   4
ENDBRANCH   1   2
BRANCH   1   6
ATOM      6  C   UNL     1       7.384  -0.750   1.476  1.00  0.00     0.047 C 
BRANCH   6   7
ATOM      7  C   UNL     1       7.712  -0.651   0.055  1.00  0.00    -0.047 A 
ATOM      8  C   UNL     1       8.852  -0.004  -0.361  1.00  0.00     0.004 A 
ATOM      9  C   UNL     1       6.866  -1.217  -0.871  1.00  0.00     0.004 A 
ATOM     10  C   UNL     1       9.103   0.051  -1.734  1.00  0.00     0.000 A 
ATOM     11  C   UNL     1       7.115  -1.162  -2.228  1.00  0.00     0.000 A 
ATOM     12  C   UNL     1       8.255  -0.514  -2.652  1.00  0.00     0.000 A 
ENDBRANCH   6   7
ENDBRANCH   1   6
TORSDOF 4
ENDMDL
MODEL 3
REMARK VINA RESULT:      -6.1      3.456      5.110
REMARK SMILES O=C(O)CCc1ccccc1
REMARK SMILES IDX 4 1 2 2 1 3 3 4 5 6 6 7 7 8 11 9 8 10 10 11 9 12
REMARK H PARENT 3 5
REMARK Flexibility Score: inf
ROOT
ATOM      1  C   UNL     1       5.098  -0.131   2.052  1.00  0.00     0.127 C 
ENDROOT
BRANCH   1   2
ATOM      2  C   UNL     1       4.423   1.187   1.987  1.00  0.00     0.303 C 
ATOM      3  O   UNL     1       4.952   2.161   1.396  1.00  0.00    -0.252 OA
BRANCH   2   4
ATOM      4  O   UNL     1       3.185   1.380   2.579  1.00  0.00    -0.481 OA
ATOM      5  H   UNL     1       2.696   2.268   2.438  1.00  0.00     0.296 HD
ENDBRANCH   2   4
ENDBRANCH   1   2
BRANCH   1   6
ATOM      6  C   UNL     1       6.549   0.067   1.732  1.00  0.00     0.047 C 
BRANCH   6   7
ATOM      7  C   UNL     1       7.014  -0.702   0.579  1.00  0.00    -0.047 A 
ATOM      8  C   UNL     1       6.621  -0.364  -0.696  1.00  0.00     0.004 A 
ATOM      9  C   UNL     1       7.855  -1.771   0.781  1.00  0.00     0.004 A 
ATOM     10  C   UNL     1       7.105  -1.142  -1.750  1.00  0.00     0.000 A 
ATOM     11  C   UNL     1       8.332  -2.539  -0.263  1.00  0.00     0.000 A 
ATOM     12  C   UNL     1       7.943  -2.209  -1.543  1.00  0.00     0.000 A 
ENDBRANCH   6   7
ENDBRANCH   1   6
TORSDOF 4
ENDMDL
