@<TRIPOS>MOLECULE
/home/cewinharhar/GITHUB/reincatalyze/data/processed/docking_pred/2023-May-05-1615_maxeplen10_maxtrainstep1000_seadep16_gamma099_lrac9e-4_lrcr1e-3/bef029ec7f2d3d0301694813bb63cef4e6663bb8_ligand_2.pdbqt
 12 12 0 0 0
SMALL
GASTEIGER

@<TRIPOS>ATOM
      1  C          5.9190   -0.8910    1.7550 C.3     1  UNL1        0.1270
      2  C          5.3670    0.4540    2.0420 C.2     1  UNL1        0.3030
      3  O          4.1950    0.6000    2.4680 O.2     1  UNL1       -0.2520
      4  O          6.1340    1.5920    1.8460 O.3     1  UNL1       -0.4810
      5  H          6.8430    1.5980    1.1080 H       1  UNL1        0.2960
      6  C          7.3840   -0.7500    1.4760 C.3     1  UNL1        0.0470
      7  C          7.7120   -0.6510    0.0550 C.2     1  UNL1       -0.0470
      8  C          8.8520   -0.0040   -0.3610 C.2     1  UNL1        0.0040
      9  C          6.8660   -1.2170   -0.8710 C.2     1  UNL1        0.0040
     10  C          9.1030    0.0510   -1.7340 C.2     1  UNL1        0.0000
     11  C          7.1150   -1.1620   -2.2280 C.2     1  UNL1        0.0000
     12  C          8.2550   -0.5140   -2.6520 C.2     1  UNL1        0.0000
@<TRIPOS>BOND
     1    12    11    2
     2    12    10    1
     3    11     9    1
     4    10     8    2
     5     9     7    2
     6     8     7    1
     7     7     6    1
     8     5     4    1
     9     6     1    1
    10     1     2    1
    11     4     2    1
    12     2     3    2
