@<TRIPOS>MOLECULE
/home/cewinharhar/GITHUB/reincatalyze/data/processed/docking_pred/2023-May-05-1615_maxeplen10_maxtrainstep1000_seadep16_gamma099_lrac9e-4_lrcr1e-3/bf1bd72bf83e0bbc7f208f1f88a3802cf16c22f1_ligand_2.pdbqt
 12 12 0 0 0
SMALL
GASTEIGER

@<TRIPOS>ATOM
      1  C          8.0170   -1.2930   -1.3980 C.3     1  UNL1        0.1270
      2  C          8.5410   -1.6690   -2.7320 C.2     1  UNL1        0.3030
      3  O          9.0680   -2.7920   -2.9310 O.2     1  UNL1       -0.2520
      4  O          8.4660   -0.7880   -3.7990 O.3     1  UNL1       -0.4810
      5  H          7.6130   -0.7590   -4.3640 H       1  UNL1        0.2960
      6  C          7.2080   -0.0400   -1.5460 C.3     1  UNL1        0.0470
      7  C          6.4020    0.2900   -0.3720 C.2     1  UNL1       -0.0470
      8  C          6.4060   -0.5260    0.7350 C.2     1  UNL1        0.0040
      9  C          5.6360    1.4330   -0.3840 C.2     1  UNL1        0.0040
     10  C          5.6130   -0.1480    1.8210 C.2     1  UNL1        0.0000
     11  C          4.8520    1.8040    0.6910 C.2     1  UNL1        0.0000
     12  C          4.8500    0.9920    1.8040 C.2     1  UNL1        0.0000
@<TRIPOS>BOND
     1     5     4    1
     2     4     2    1
     3     3     2    2
     4     2     1    1
     5     6     1    1
     6     6     7    1
     7     9     7    2
     8     9    11    1
     9     7     8    1
    10    11    12    2
    11     8    10    2
    12    12    10    1
