MODEL 1
REMARK VINA RESULT:      -7.3      0.000      0.000
REMARK SMILES O=C(O)CCc1ccccc1
REMARK SMILES IDX 4 1 2 2 1 3 3 4 5 6 6 7 7 8 11 9 8 10 10 11 9 12
REMARK H PARENT 3 5
REMARK Flexibility Score: inf
ROOT
ATOM      1  C   UNL     1       8.424  -0.644  -2.081  1.00  0.00     0.127 C 
ENDROOT
BRANCH   1   2
ATOM      2  C   UNL     1       8.454  -1.899  -2.869  1.00  0.00     0.303 C 
ATOM      3  O   UNL     1       9.526  -2.528  -3.050  1.00  0.00    -0.252 OA
BRANCH   2   4
ATOM      4  O   UNL     1       7.296  -2.414  -3.429  1.00  0.00    -0.481 OA
ATOM      5  H   UNL     1       6.635  -2.922  -2.834  1.00  0.00     0.296 HD
ENDBRANCH   2   4
ENDBRANCH   1   2
BRANCH   1   6
ATOM      6  C   UNL     1       7.021  -0.119  -2.085  1.00  0.00     0.047 C 
BRANCH   6   7
ATOM      7  C   UNL     1       6.456   0.077  -0.751  1.00  0.00    -0.047 A 
ATOM      8  C   UNL     1       6.559  -0.904   0.208  1.00  0.00     0.004 A 
ATOM      9  C   UNL     1       5.817   1.260  -0.460  1.00  0.00     0.004 A 
ATOM     10  C   UNL     1       5.996  -0.647   1.460  1.00  0.00     0.000 A 
ATOM     11  C   UNL     1       5.261   1.512   0.778  1.00  0.00     0.000 A 
ATOM     12  C   UNL     1       5.360   0.535   1.744  1.00  0.00     0.000 A 
ENDBRANCH   6   7
ENDBRANCH   1   6
TORSDOF 4
ENDMDL
