@<TRIPOS>MOLECULE
/home/cewinharhar/GITHUB/reincatalyze/data/processed/docking_pred/2023-May-05-1615_maxeplen10_maxtrainstep1000_seadep16_gamma099_lrac9e-4_lrcr1e-3/bf1bd72bf83e0bbc7f208f1f88a3802cf16c22f1_ligand_2.pdbqt
 12 12 0 0 0
SMALL
GASTEIGER

@<TRIPOS>ATOM
      1  C          8.4240   -0.6440   -2.0810 C.3     1  UNL1        0.1270
      2  C          8.4540   -1.8990   -2.8690 C.2     1  UNL1        0.3030
      3  O          9.5260   -2.5280   -3.0500 O.2     1  UNL1       -0.2520
      4  O          7.2960   -2.4140   -3.4290 O.3     1  UNL1       -0.4810
      5  H          6.6350   -2.9220   -2.8340 H       1  UNL1        0.2960
      6  C          7.0210   -0.1190   -2.0850 C.3     1  UNL1        0.0470
      7  C          6.4560    0.0770   -0.7510 C.2     1  UNL1       -0.0470
      8  C          6.5590   -0.9040    0.2080 C.2     1  UNL1        0.0040
      9  C          5.8170    1.2600   -0.4600 C.2     1  UNL1        0.0040
     10  C          5.9960   -0.6470    1.4600 C.2     1  UNL1        0.0000
     11  C          5.2610    1.5120    0.7780 C.2     1  UNL1        0.0000
     12  C          5.3600    0.5350    1.7440 C.2     1  UNL1        0.0000
@<TRIPOS>BOND
     1     4     2    1
     2     4     5    1
     3     3     2    2
     4     2     1    1
     5     6     1    1
     6     6     7    1
     7     7     9    2
     8     7     8    1
     9     9    11    1
    10     8    10    2
    11    11    12    2
    12    10    12    1
