@<TRIPOS>MOLECULE
/home/cewinharhar/GITHUB/reincatalyze/data/processed/docking_pred/2023-May-05-1615_maxeplen10_maxtrainstep1000_seadep16_gamma099_lrac9e-4_lrcr1e-3/bfaa3bc067c86e8b5ef89a85d12e30cfe25fe09e_ligand_2.pdbqt
 12 12 0 0 0
SMALL
GASTEIGER

@<TRIPOS>ATOM
      1  C          8.4030   -0.6530   -2.0810 C.3     1  UNL1        0.1270
      2  C          8.3730   -1.9020   -2.8770 C.2     1  UNL1        0.3030
      3  O          7.2870   -2.4100   -3.2500 O.2     1  UNL1       -0.2520
      4  O          9.5480   -2.5460   -3.2330 O.3     1  UNL1       -0.4810
      5  H          9.6350   -2.9470   -4.1700 H       1  UNL1        0.2960
      6  C          7.0240   -0.0660   -2.0730 C.3     1  UNL1        0.0470
      7  C          6.4570    0.1010   -0.7360 C.2     1  UNL1       -0.0470
      8  C          5.8030    1.2600   -0.3890 C.2     1  UNL1        0.0040
      9  C          6.5830   -0.9190    0.1790 C.2     1  UNL1        0.0040
     10  C          5.2860    1.3510    0.9050 C.2     1  UNL1        0.0000
     11  C          6.0710   -0.8280    1.4580 C.2     1  UNL1        0.0000
     12  C          5.4140    0.3310    1.8130 C.2     1  UNL1        0.0000
@<TRIPOS>BOND
     1     5     4    1
     2     3     2    2
     3     4     2    1
     4     2     1    1
     5     1     6    1
     6     6     7    1
     7     7     8    2
     8     7     9    1
     9     8    10    1
    10     9    11    2
    11    10    12    2
    12    11    12    1
