@<TRIPOS>MOLECULE
/home/cewinharhar/GITHUB/reincatalyze/data/processed/docking_pred/2023-May-05-1615_maxeplen10_maxtrainstep1000_seadep16_gamma099_lrac9e-4_lrcr1e-3/c00c8b20774af87dd702fd508d588995eeb45aaa_ligand_2.pdbqt
 12 12 0 0 0
SMALL
GASTEIGER

@<TRIPOS>ATOM
      1  C          8.1780   -2.0420    0.7970 C.3     1  UNL1        0.1270
      2  C          8.3930   -3.4900    1.0280 C.2     1  UNL1        0.3030
      3  O          9.4870   -4.0390    0.7460 O.2     1  UNL1       -0.2520
      4  O          7.3890   -4.2800    1.5630 O.3     1  UNL1       -0.4810
      5  H          7.4530   -4.5790    2.5400 H       1  UNL1        0.2960
      6  C          6.9010   -1.6420    1.4710 C.3     1  UNL1        0.0470
      7  C          6.3110   -0.4120    0.9460 C.2     1  UNL1       -0.0470
      8  C          5.5180    0.3820    1.7400 C.2     1  UNL1        0.0040
      9  C          6.5600   -0.0530   -0.3590 C.2     1  UNL1        0.0040
     10  C          4.9880    1.5430    1.1720 C.2     1  UNL1        0.0000
     11  C          6.0350    1.0950   -0.9190 C.2     1  UNL1        0.0000
     12  C          5.2380    1.8960   -0.1300 C.2     1  UNL1        0.0000
@<TRIPOS>BOND
     1    11     9    1
     2    11    12    2
     3     9     7    2
     4    12    10    1
     5     3     2    2
     6     1     2    1
     7     1     6    1
     8     7     6    1
     9     7     8    1
    10     2     4    1
    11    10     8    2
    12     4     5    1
