@<TRIPOS>MOLECULE
/home/cewinharhar/GITHUB/reincatalyze/data/processed/docking_pred/2023-May-05-1615_maxeplen10_maxtrainstep1000_seadep16_gamma099_lrac9e-4_lrcr1e-3/c054a7f490e8e5c171bc57af56a9ae5cb4d717f8_ligand_2.pdbqt
 12 12 0 0 0
SMALL
GASTEIGER

@<TRIPOS>ATOM
      1  C          8.4510   -0.6840   -2.0480 C.3     1  UNL1        0.1270
      2  C          8.4770   -1.9220   -2.8620 C.2     1  UNL1        0.3030
      3  O          9.5510   -2.5350   -3.0800 O.2     1  UNL1       -0.2520
      4  O          7.3120   -2.4380   -3.4080 O.3     1  UNL1       -0.4810
      5  H          7.0290   -3.3930   -3.1730 H       1  UNL1        0.2960
      6  C          7.0570   -0.1360   -2.0690 C.3     1  UNL1        0.0470
      7  C          6.4700    0.0480   -0.7430 C.2     1  UNL1       -0.0470
      8  C          5.8150    1.2140   -0.4190 C.2     1  UNL1        0.0040
      9  C          6.5760   -0.9630    0.1840 C.2     1  UNL1        0.0040
     10  C          5.2780    1.3200    0.8660 C.2     1  UNL1        0.0000
     11  C          6.0440   -0.8560    1.4540 C.2     1  UNL1        0.0000
     12  C          5.3880    0.3090    1.7870 C.2     1  UNL1        0.0000
@<TRIPOS>BOND
     1     4     5    1
     2     4     2    1
     3     3     2    2
     4     2     1    1
     5     6     1    1
     6     6     7    1
     7     7     8    2
     8     7     9    1
     9     8    10    1
    10     9    11    2
    11    10    12    2
    12    11    12    1
