MODEL 1
REMARK VINA RESULT:      -7.1      0.000      0.000
REMARK SMILES O=C(O)CCc1ccccc1
REMARK SMILES IDX 4 1 2 2 1 3 3 4 5 6 6 7 7 8 11 9 8 10 10 11 9 12
REMARK H PARENT 3 5
REMARK Flexibility Score: inf
ROOT
ATOM      1  C   UNL     1       8.451  -0.684  -2.048  1.00  0.00     0.127 C 
ENDROOT
BRANCH   1   2
ATOM      2  C   UNL     1       8.477  -1.922  -2.862  1.00  0.00     0.303 C 
ATOM      3  O   UNL     1       9.551  -2.535  -3.080  1.00  0.00    -0.252 OA
BRANCH   2   4
ATOM      4  O   UNL     1       7.312  -2.438  -3.408  1.00  0.00    -0.481 OA
ATOM      5  H   UNL     1       7.029  -3.393  -3.173  1.00  0.00     0.296 HD
ENDBRANCH   2   4
ENDBRANCH   1   2
BRANCH   1   6
ATOM      6  C   UNL     1       7.057  -0.136  -2.069  1.00  0.00     0.047 C 
BRANCH   6   7
ATOM      7  C   UNL     1       6.470   0.048  -0.743  1.00  0.00    -0.047 A 
ATOM      8  C   UNL     1       5.815   1.214  -0.419  1.00  0.00     0.004 A 
ATOM      9  C   UNL     1       6.576  -0.963   0.184  1.00  0.00     0.004 A 
ATOM     10  C   UNL     1       5.278   1.320   0.866  1.00  0.00     0.000 A 
ATOM     11  C   UNL     1       6.044  -0.856   1.454  1.00  0.00     0.000 A 
ATOM     12  C   UNL     1       5.388   0.309   1.787  1.00  0.00     0.000 A 
ENDBRANCH   6   7
ENDBRANCH   1   6
TORSDOF 4
ENDMDL
MODEL 2
REMARK VINA RESULT:      -6.6      1.403      2.217
REMARK SMILES O=C(O)CCc1ccccc1
REMARK SMILES IDX 4 1 2 2 1 3 3 4 5 6 6 7 7 8 11 9 8 10 10 11 9 12
REMARK H PARENT 3 5
REMARK Flexibility Score: inf
ROOT
ATOM      1  C   UNL     1       8.316  -0.591  -2.131  1.00  0.00     0.127 C 
ENDROOT
BRANCH   1   2
ATOM      2  C   UNL     1       8.327  -1.856  -2.904  1.00  0.00     0.303 C 
ATOM      3  O   UNL     1       7.258  -2.399  -3.278  1.00  0.00    -0.252 OA
BRANCH   2   4
ATOM      4  O   UNL     1       9.521  -2.476  -3.234  1.00  0.00    -0.481 OA
ATOM      5  H   UNL     1      10.297  -2.457  -2.566  1.00  0.00     0.296 HD
ENDBRANCH   2   4
ENDBRANCH   1   2
BRANCH   1   6
ATOM      6  C   UNL     1       6.968  -0.439  -1.495  1.00  0.00     0.047 C 
BRANCH   6   7
ATOM      7  C   UNL     1       6.811   0.790  -0.720  1.00  0.00    -0.047 A 
ATOM      8  C   UNL     1       7.890   1.370  -0.095  1.00  0.00     0.004 A 
ATOM      9  C   UNL     1       5.566   1.368  -0.623  1.00  0.00     0.004 A 
ATOM     10  C   UNL     1       7.667   2.545   0.627  1.00  0.00     0.000 A 
ATOM     11  C   UNL     1       5.347   2.529   0.092  1.00  0.00     0.000 A 
ATOM     12  C   UNL     1       6.423   3.116   0.722  1.00  0.00     0.000 A 
ENDBRANCH   6   7
ENDBRANCH   1   6
TORSDOF 4
ENDMDL
