@<TRIPOS>MOLECULE
/home/cewinharhar/GITHUB/reincatalyze/data/processed/docking_pred/2023-May-05-1615_maxeplen10_maxtrainstep1000_seadep16_gamma099_lrac9e-4_lrcr1e-3/c054a7f490e8e5c171bc57af56a9ae5cb4d717f8_ligand_2.pdbqt
 12 12 0 0 0
SMALL
GASTEIGER

@<TRIPOS>ATOM
      1  C          8.3160   -0.5910   -2.1310 C.3     1  UNL1        0.1270
      2  C          8.3270   -1.8560   -2.9040 C.2     1  UNL1        0.3030
      3  O          7.2580   -2.3990   -3.2780 O.2     1  UNL1       -0.2520
      4  O          9.5210   -2.4760   -3.2340 O.3     1  UNL1       -0.4810
      5  H         10.2970   -2.4570   -2.5660 H       1  UNL1        0.2960
      6  C          6.9680   -0.4390   -1.4950 C.3     1  UNL1        0.0470
      7  C          6.8110    0.7900   -0.7200 C.2     1  UNL1       -0.0470
      8  C          7.8900    1.3700   -0.0950 C.2     1  UNL1        0.0040
      9  C          5.5660    1.3680   -0.6230 C.2     1  UNL1        0.0040
     10  C          7.6670    2.5450    0.6270 C.2     1  UNL1        0.0000
     11  C          5.3470    2.5290    0.0920 C.2     1  UNL1        0.0000
     12  C          6.4230    3.1160    0.7220 C.2     1  UNL1        0.0000
@<TRIPOS>BOND
     1     3     2    2
     2     4     2    1
     3     4     5    1
     4     2     1    1
     5     1     6    1
     6     6     7    1
     7     7     9    2
     8     7     8    1
     9     9    11    1
    10     8    10    2
    11    11    12    2
    12    10    12    1
