@<TRIPOS>MOLECULE
/home/cewinharhar/GITHUB/reincatalyze/data/processed/docking_pred/2023-May-05-1615_maxeplen10_maxtrainstep1000_seadep16_gamma099_lrac9e-4_lrcr1e-3/c2b16f598521213e119e3a09a49f7e8c9c89cc3b_ligand_2.pdbqt
 12 12 0 0 0
SMALL
GASTEIGER

@<TRIPOS>ATOM
      1  C          8.1020   -6.0380   11.5820 C.3     1  UNL1        0.1270
      2  C          8.3580   -4.5940   11.7960 C.2     1  UNL1        0.3030
      3  O          9.3550   -4.2000   12.4490 O.2     1  UNL1       -0.2520
      4  O          7.5000   -3.6370   11.2780 O.3     1  UNL1       -0.4810
      5  H          7.7150   -3.2080   10.3740 H       1  UNL1        0.2960
      6  C          8.7460   -6.4450   10.2920 C.3     1  UNL1        0.0470
      7  C         10.0100   -7.1600   10.4580 C.2     1  UNL1       -0.0470
      8  C         11.2010   -6.4760   10.5250 C.2     1  UNL1        0.0040
      9  C          9.9980   -8.5330   10.5480 C.2     1  UNL1        0.0040
     10  C         12.3700   -7.2230   10.6860 C.2     1  UNL1        0.0000
     11  C         11.1550   -9.2700   10.7060 C.2     1  UNL1        0.0000
     12  C         12.3530   -8.5930   10.7740 C.2     1  UNL1        0.0000
@<TRIPOS>BOND
     1     6     7    1
     2     6     1    1
     3     5     4    1
     4     7     8    2
     5     7     9    1
     6     8    10    1
     7     9    11    2
     8    10    12    2
     9    11    12    1
    10     4     2    1
    11     1     2    1
    12     2     3    2
