@<TRIPOS>MOLECULE
/home/cewinharhar/GITHUB/reincatalyze/data/processed/docking_pred/2023-May-05-1615_maxeplen10_maxtrainstep1000_seadep16_gamma099_lrac9e-4_lrcr1e-3/c2b16f598521213e119e3a09a49f7e8c9c89cc3b_ligand_2.pdbqt
 12 12 0 0 0
SMALL
GASTEIGER

@<TRIPOS>ATOM
      1  C          6.2890   -0.5520    2.7310 C.3     1  UNL1        0.1270
      2  C          7.0930   -1.4880    1.9090 C.2     1  UNL1        0.3030
      3  O          8.2580   -1.1960    1.5430 O.2     1  UNL1       -0.2520
      4  O          6.5780   -2.7140    1.5210 O.3     1  UNL1       -0.4810
      5  H          6.6550   -3.0030    0.5420 H       1  UNL1        0.2960
      6  C          5.2020    0.0150    1.8700 C.3     1  UNL1        0.0470
      7  C          5.5160    1.3250    1.3020 C.2     1  UNL1       -0.0470
      8  C          4.8510    1.7870    0.1900 C.2     1  UNL1        0.0040
      9  C          6.4870    2.0990    1.8950 C.2     1  UNL1        0.0040
     10  C          5.2020    3.0480   -0.2980 C.2     1  UNL1        0.0000
     11  C          6.8330    3.3450    1.4120 C.2     1  UNL1        0.0000
     12  C          6.1730    3.8150    0.2970 C.2     1  UNL1        0.0000
@<TRIPOS>BOND
     1    10     8    1
     2    10    12    2
     3     8     7    2
     4    12    11    1
     5     5     4    1
     6     7     6    1
     7     7     9    1
     8    11     9    2
     9     4     2    1
    10     3     2    2
    11     6     1    1
    12     2     1    1
