@<TRIPOS>MOLECULE
/home/cewinharhar/GITHUB/reincatalyze/data/processed/docking_pred/2023-May-05-1615_maxeplen10_maxtrainstep1000_seadep16_gamma099_lrac9e-4_lrcr1e-3/c2b16f598521213e119e3a09a49f7e8c9c89cc3b_ligand_2.pdbqt
 12 12 0 0 0
SMALL
GASTEIGER

@<TRIPOS>ATOM
      1  C          7.9760   -6.4350   10.9920 C.3     1  UNL1        0.1270
      2  C          8.3470   -5.0100   11.1620 C.2     1  UNL1        0.3030
      3  O          7.6490   -4.0930   10.6630 O.2     1  UNL1       -0.2520
      4  O          9.4780   -4.6510   11.8770 O.3     1  UNL1       -0.4810
      5  H         10.1390   -5.3770   12.1660 H       1  UNL1        0.2960
      6  C          8.5050   -7.2020   12.1650 C.3     1  UNL1        0.0470
      7  C          9.3560   -8.3340   11.8010 C.2     1  UNL1       -0.0470
      8  C          9.2360   -9.5410   12.4490 C.2     1  UNL1        0.0040
      9  C         10.2830   -8.1810   10.7950 C.2     1  UNL1        0.0040
     10  C         10.0810  -10.5790   12.0480 C.2     1  UNL1        0.0000
     11  C         11.1170   -9.2080   10.4000 C.2     1  UNL1        0.0000
     12  C         11.0040  -10.4200   11.0450 C.2     1  UNL1        0.0000
@<TRIPOS>BOND
     1    11     9    1
     2    11    12    2
     3     3     2    2
     4     9     7    2
     5     1     2    1
     6     1     6    1
     7    12    10    1
     8     2     4    1
     9     7     6    1
    10     7     8    1
    11     4     5    1
    12    10     8    2
