@<TRIPOS>MOLECULE
/home/cewinharhar/GITHUB/reincatalyze/data/processed/docking_pred/2023-May-05-1615_maxeplen10_maxtrainstep1000_seadep16_gamma099_lrac9e-4_lrcr1e-3/c2b16f598521213e119e3a09a49f7e8c9c89cc3b_ligand_2.pdbqt
 12 12 0 0 0
SMALL
GASTEIGER

@<TRIPOS>ATOM
      1  C         12.3490   -7.8540   10.4620 C.3     1  UNL1        0.1270
      2  C         13.6020   -7.8270    9.6700 C.2     1  UNL1        0.3030
      3  O         14.7040   -8.1400   10.1840 O.2     1  UNL1       -0.2520
      4  O         13.5900   -7.4520    8.3360 O.3     1  UNL1       -0.4810
      5  H         13.6900   -8.1710    7.6130 H       1  UNL1        0.2960
      6  C         12.1370   -6.4950   11.0550 C.3     1  UNL1        0.0470
      7  C         10.7320   -6.1100   11.1710 C.2     1  UNL1       -0.0470
      8  C         10.3250   -5.2130   12.1320 C.2     1  UNL1        0.0040
      9  C          9.8130   -6.6530   10.3030 C.2     1  UNL1        0.0040
     10  C          8.9670   -4.8900   12.1840 C.2     1  UNL1        0.0000
     11  C          8.4710   -6.3330   10.3560 C.2     1  UNL1        0.0000
     12  C          8.0550   -5.4360   11.3160 C.2     1  UNL1        0.0000
@<TRIPOS>BOND
     1     5     4    1
     2     4     2    1
     3     2     3    2
     4     2     1    1
     5     9    11    1
     6     9     7    2
     7    11    12    2
     8     1     6    1
     9     6     7    1
    10     7     8    1
    11    12    10    1
    12     8    10    2
