MODEL 1
REMARK VINA RESULT:      -5.6      0.000      0.000
REMARK SMILES O=C(O)CCc1ccccc1
REMARK SMILES IDX 4 1 2 2 1 3 3 4 5 6 6 7 7 8 11 9 8 10 10 11 9 12
REMARK H PARENT 3 5
REMARK Flexibility Score: inf
ROOT
ATOM      1  C   UNL     1       6.289  -0.552   2.731  1.00  0.00     0.127 C 
ENDROOT
BRANCH   1   2
ATOM      2  C   UNL     1       7.093  -1.488   1.909  1.00  0.00     0.303 C 
ATOM      3  O   UNL     1       8.258  -1.196   1.543  1.00  0.00    -0.252 OA
BRANCH   2   4
ATOM      4  O   UNL     1       6.578  -2.714   1.521  1.00  0.00    -0.481 OA
ATOM      5  H   UNL     1       6.655  -3.003   0.542  1.00  0.00     0.296 HD
ENDBRANCH   2   4
ENDBRANCH   1   2
BRANCH   1   6
ATOM      6  C   UNL     1       5.202   0.015   1.870  1.00  0.00     0.047 C 
BRANCH   6   7
ATOM      7  C   UNL     1       5.516   1.325   1.302  1.00  0.00    -0.047 A 
ATOM      8  C   UNL     1       4.851   1.787   0.190  1.00  0.00     0.004 A 
ATOM      9  C   UNL     1       6.487   2.099   1.895  1.00  0.00     0.004 A 
ATOM     10  C   UNL     1       5.202   3.048  -0.298  1.00  0.00     0.000 A 
ATOM     11  C   UNL     1       6.833   3.345   1.412  1.00  0.00     0.000 A 
ATOM     12  C   UNL     1       6.173   3.815   0.297  1.00  0.00     0.000 A 
ENDBRANCH   6   7
ENDBRANCH   1   6
TORSDOF 4
ENDMDL
MODEL 2
REMARK VINA RESULT:      -3.7     11.804     14.337
REMARK SMILES O=C(O)CCc1ccccc1
REMARK SMILES IDX 4 1 2 2 1 3 3 4 5 6 6 7 7 8 11 9 8 10 10 11 9 12
REMARK H PARENT 3 5
REMARK Flexibility Score: inf
ROOT
ATOM      1  C   UNL     1       7.976  -6.435  10.992  1.00  0.00     0.127 C 
ENDROOT
BRANCH   1   2
ATOM      2  C   UNL     1       8.347  -5.010  11.162  1.00  0.00     0.303 C 
ATOM      3  O   UNL     1       7.649  -4.093  10.663  1.00  0.00    -0.252 OA
BRANCH   2   4
ATOM      4  O   UNL     1       9.478  -4.651  11.877  1.00  0.00    -0.481 OA
ATOM      5  H   UNL     1      10.139  -5.377  12.166  1.00  0.00     0.296 HD
ENDBRANCH   2   4
ENDBRANCH   1   2
BRANCH   1   6
ATOM      6  C   UNL     1       8.505  -7.202  12.165  1.00  0.00     0.047 C 
BRANCH   6   7
ATOM      7  C   UNL     1       9.356  -8.334  11.801  1.00  0.00    -0.047 A 
ATOM      8  C   UNL     1       9.236  -9.541  12.449  1.00  0.00     0.004 A 
ATOM      9  C   UNL     1      10.283  -8.181  10.795  1.00  0.00     0.004 A 
ATOM     10  C   UNL     1      10.081 -10.579  12.048  1.00  0.00     0.000 A 
ATOM     11  C   UNL     1      11.117  -9.208  10.400  1.00  0.00     0.000 A 
ATOM     12  C   UNL     1      11.004 -10.420  11.045  1.00  0.00     0.000 A 
ENDBRANCH   6   7
ENDBRANCH   1   6
TORSDOF 4
ENDMDL
MODEL 3
REMARK VINA RESULT:      -3.6     12.151     13.244
REMARK SMILES O=C(O)CCc1ccccc1
REMARK SMILES IDX 4 1 2 2 1 3 3 4 5 6 6 7 7 8 11 9 8 10 10 11 9 12
REMARK H PARENT 3 5
REMARK Flexibility Score: inf
ROOT
ATOM      1  C   UNL     1      12.349  -7.854  10.462  1.00  0.00     0.127 C 
ENDROOT
BRANCH   1   2
ATOM      2  C   UNL     1      13.602  -7.827   9.670  1.00  0.00     0.303 C 
ATOM      3  O   UNL     1      14.704  -8.140  10.184  1.00  0.00    -0.252 OA
BRANCH   2   4
ATOM      4  O   UNL     1      13.590  -7.452   8.336  1.00  0.00    -0.481 OA
ATOM      5  H   UNL     1      13.690  -8.171   7.613  1.00  0.00     0.296 HD
ENDBRANCH   2   4
ENDBRANCH   1   2
BRANCH   1   6
ATOM      6  C   UNL     1      12.137  -6.495  11.055  1.00  0.00     0.047 C 
BRANCH   6   7
ATOM      7  C   UNL     1      10.732  -6.110  11.171  1.00  0.00    -0.047 A 
ATOM      8  C   UNL     1      10.325  -5.213  12.132  1.00  0.00     0.004 A 
ATOM      9  C   UNL     1       9.813  -6.653  10.303  1.00  0.00     0.004 A 
ATOM     10  C   UNL     1       8.967  -4.890  12.184  1.00  0.00     0.000 A 
ATOM     11  C   UNL     1       8.471  -6.333  10.356  1.00  0.00     0.000 A 
ATOM     12  C   UNL     1       8.055  -5.436  11.316  1.00  0.00     0.000 A 
ENDBRANCH   6   7
ENDBRANCH   1   6
TORSDOF 4
ENDMDL
MODEL 4
REMARK VINA RESULT:      -3.6     12.050     13.509
REMARK SMILES O=C(O)CCc1ccccc1
REMARK SMILES IDX 4 1 2 2 1 3 3 4 5 6 6 7 7 8 11 9 8 10 10 11 9 12
REMARK H PARENT 3 5
REMARK Flexibility Score: inf
ROOT
ATOM      1  C   UNL     1       8.102  -6.038  11.582  1.00  0.00     0.127 C 
ENDROOT
BRANCH   1   2
ATOM      2  C   UNL     1       8.358  -4.594  11.796  1.00  0.00     0.303 C 
ATOM      3  O   UNL     1       9.355  -4.200  12.449  1.00  0.00    -0.252 OA
BRANCH   2   4
ATOM      4  O   UNL     1       7.500  -3.637  11.278  1.00  0.00    -0.481 OA
ATOM      5  H   UNL     1       7.715  -3.208  10.374  1.00  0.00     0.296 HD
ENDBRANCH   2   4
ENDBRANCH   1   2
BRANCH   1   6
ATOM      6  C   UNL     1       8.746  -6.445  10.292  1.00  0.00     0.047 C 
BRANCH   6   7
ATOM      7  C   UNL     1      10.010  -7.160  10.458  1.00  0.00    -0.047 A 
ATOM      8  C   UNL     1      11.201  -6.476  10.525  1.00  0.00     0.004 A 
ATOM      9  C   UNL     1       9.998  -8.533  10.548  1.00  0.00     0.004 A 
ATOM     10  C   UNL     1      12.370  -7.223  10.686  1.00  0.00     0.000 A 
ATOM     11  C   UNL     1      11.155  -9.270  10.706  1.00  0.00     0.000 A 
ATOM     12  C   UNL     1      12.353  -8.593  10.774  1.00  0.00     0.000 A 
ENDBRANCH   6   7
ENDBRANCH   1   6
TORSDOF 4
ENDMDL
