@<TRIPOS>MOLECULE
/home/cewinharhar/GITHUB/reincatalyze/data/processed/docking_pred/2023-May-05-1615_maxeplen10_maxtrainstep1000_seadep16_gamma099_lrac9e-4_lrcr1e-3/c584487daa348165e33ca71579c90fd99cb4babd_ligand_2.pdbqt
 12 12 0 0 0
SMALL
GASTEIGER

@<TRIPOS>ATOM
      1  C          8.1660   -2.0410    0.8430 C.3     1  UNL1        0.1270
      2  C          8.3740   -3.4940    1.0480 C.2     1  UNL1        0.3030
      3  O          9.4610   -4.0450    0.7440 O.2     1  UNL1       -0.2520
      4  O          7.3720   -4.2860    1.5840 O.3     1  UNL1       -0.4810
      5  H          7.3900   -4.5110    2.5820 H       1  UNL1        0.2960
      6  C          6.8460   -1.6650    1.4440 C.3     1  UNL1        0.0470
      7  C          6.2860   -0.4210    0.9180 C.2     1  UNL1       -0.0470
      8  C          5.4960    0.3820    1.7070 C.2     1  UNL1        0.0040
      9  C          6.5600   -0.0570   -0.3800 C.2     1  UNL1        0.0040
     10  C          4.9960    1.5570    1.1400 C.2     1  UNL1        0.0000
     11  C          6.0650    1.1040   -0.9390 C.2     1  UNL1        0.0000
     12  C          5.2720    1.9140   -0.1560 C.2     1  UNL1        0.0000
@<TRIPOS>BOND
     1    11     9    1
     2    11    12    2
     3     9     7    2
     4    12    10    1
     5     3     2    2
     6     1     2    1
     7     1     6    1
     8     7     6    1
     9     7     8    1
    10     2     4    1
    11    10     8    2
    12     4     5    1
