@<TRIPOS>MOLECULE
/home/cewinharhar/GITHUB/reincatalyze/data/processed/docking_pred/2023-May-05-1615_maxeplen10_maxtrainstep1000_seadep16_gamma099_lrac9e-4_lrcr1e-3/c61eb663c2c3330cf201d691d278f59eb7eebd68_ligand_2.pdbqt
 12 12 0 0 0
SMALL
GASTEIGER

@<TRIPOS>ATOM
      1  C          8.4030   -0.6620   -2.0700 C.3     1  UNL1        0.1270
      2  C          8.3730   -1.9040   -2.8770 C.2     1  UNL1        0.3030
      3  O          7.2870   -2.4120   -3.2500 O.2     1  UNL1       -0.2520
      4  O          9.5480   -2.5420   -3.2410 O.3     1  UNL1       -0.4810
      5  H         10.4170   -2.0020   -3.2870 H       1  UNL1        0.2960
      6  C          7.0260   -0.0700   -2.0670 C.3     1  UNL1        0.0470
      7  C          6.4540    0.0990   -0.7320 C.2     1  UNL1       -0.0470
      8  C          5.8020    1.2590   -0.3870 C.2     1  UNL1        0.0040
      9  C          6.5730   -0.9220    0.1830 C.2     1  UNL1        0.0040
     10  C          5.2790    1.3510    0.9050 C.2     1  UNL1        0.0000
     11  C          6.0570   -0.8300    1.4600 C.2     1  UNL1        0.0000
     12  C          5.4020    0.3300    1.8130 C.2     1  UNL1        0.0000
@<TRIPOS>BOND
     1     5     4    1
     2     3     2    2
     3     4     2    1
     4     2     1    1
     5     1     6    1
     6     6     7    1
     7     7     8    2
     8     7     9    1
     9     8    10    1
    10     9    11    2
    11    10    12    2
    12    11    12    1
