MODEL 1
REMARK VINA RESULT:      -7.4      0.000      0.000
REMARK SMILES O=C(O)CCc1ccccc1
REMARK SMILES IDX 4 1 2 2 1 3 3 4 5 6 6 7 7 8 11 9 8 10 10 11 9 12
REMARK H PARENT 3 5
REMARK Flexibility Score: inf
ROOT
ATOM      1  C   UNL     1       8.439  -0.634  -2.148  1.00  0.00     0.127 C 
ENDROOT
BRANCH   1   2
ATOM      2  C   UNL     1       8.477  -1.905  -2.910  1.00  0.00     0.303 C 
ATOM      3  O   UNL     1       9.555  -2.525  -3.088  1.00  0.00    -0.252 OA
BRANCH   2   4
ATOM      4  O   UNL     1       7.321  -2.445  -3.449  1.00  0.00    -0.481 OA
ATOM      5  H   UNL     1       6.748  -3.073  -2.878  1.00  0.00     0.296 HD
ENDBRANCH   2   4
ENDBRANCH   1   2
BRANCH   1   6
ATOM      6  C   UNL     1       7.025  -0.139  -2.131  1.00  0.00     0.047 C 
BRANCH   6   7
ATOM      7  C   UNL     1       6.481   0.059  -0.788  1.00  0.00    -0.047 A 
ATOM      8  C   UNL     1       5.842   1.231  -0.454  1.00  0.00     0.004 A 
ATOM      9  C   UNL     1       6.612  -0.943   0.144  1.00  0.00     0.004 A 
ATOM     10  C   UNL     1       5.346   1.351   0.846  1.00  0.00     0.000 A 
ATOM     11  C   UNL     1       6.122  -0.823   1.429  1.00  0.00     0.000 A 
ATOM     12  C   UNL     1       5.481   0.348   1.772  1.00  0.00     0.000 A 
ENDBRANCH   6   7
ENDBRANCH   1   6
TORSDOF 4
ENDMDL
