@<TRIPOS>MOLECULE
/home/cewinharhar/GITHUB/reincatalyze/data/processed/docking_pred/2023-May-05-1615_maxeplen10_maxtrainstep1000_seadep16_gamma099_lrac9e-4_lrcr1e-3/c8a10dea28a77dd5a54e6b3bff917c6d12aef46d_ligand_2.pdbqt
 12 12 0 0 0
SMALL
GASTEIGER

@<TRIPOS>ATOM
      1  C          8.4390   -0.6340   -2.1480 C.3     1  UNL1        0.1270
      2  C          8.4770   -1.9050   -2.9100 C.2     1  UNL1        0.3030
      3  O          9.5550   -2.5250   -3.0880 O.2     1  UNL1       -0.2520
      4  O          7.3210   -2.4450   -3.4490 O.3     1  UNL1       -0.4810
      5  H          6.7480   -3.0730   -2.8780 H       1  UNL1        0.2960
      6  C          7.0250   -0.1390   -2.1310 C.3     1  UNL1        0.0470
      7  C          6.4810    0.0590   -0.7880 C.2     1  UNL1       -0.0470
      8  C          5.8420    1.2310   -0.4540 C.2     1  UNL1        0.0040
      9  C          6.6120   -0.9430    0.1440 C.2     1  UNL1        0.0040
     10  C          5.3460    1.3510    0.8460 C.2     1  UNL1        0.0000
     11  C          6.1220   -0.8230    1.4290 C.2     1  UNL1        0.0000
     12  C          5.4810    0.3480    1.7720 C.2     1  UNL1        0.0000
@<TRIPOS>BOND
     1     4     2    1
     2     4     5    1
     3     3     2    2
     4     2     1    1
     5     1     6    1
     6     6     7    1
     7     7     8    2
     8     7     9    1
     9     8    10    1
    10     9    11    2
    11    10    12    2
    12    11    12    1
