@<TRIPOS>MOLECULE
/home/cewinharhar/GITHUB/reincatalyze/data/processed/docking_pred/2023-May-05-1615_maxeplen10_maxtrainstep1000_seadep16_gamma099_lrac9e-4_lrcr1e-3/ca2511eb0ea692a115cf18c67ef7ccdfaa736476_ligand_2.pdbqt
 12 12 0 0 0
SMALL
GASTEIGER

@<TRIPOS>ATOM
      1  C          9.9710    1.7310    1.4240 C.3     1  UNL1        0.1270
      2  C         10.7880    0.7030    0.7380 C.2     1  UNL1        0.3030
      3  O         11.3470   -0.2190    1.3820 O.2     1  UNL1       -0.2520
      4  O         10.9580    0.7310   -0.6360 O.3     1  UNL1       -0.4810
      5  H         11.8160    1.1310   -1.0270 H       1  UNL1        0.2960
      6  C          8.6870    1.0960    1.8650 C.3     1  UNL1        0.0470
      7  C          7.5080    1.5800    1.1500 C.2     1  UNL1       -0.0470
      8  C          6.7670    0.7310    0.3610 C.2     1  UNL1        0.0040
      9  C          7.1410    2.9000    1.2750 C.2     1  UNL1        0.0040
     10  C          5.6520    1.2610   -0.2920 C.2     1  UNL1        0.0000
     11  C          6.0390    3.4220    0.6280 C.2     1  UNL1        0.0000
     12  C          5.2910    2.5790   -0.1650 C.2     1  UNL1        0.0000
@<TRIPOS>BOND
     1     5     4    1
     2     4     2    1
     3    10    12    2
     4    10     8    1
     5    12    11    1
     6     8     7    2
     7    11     9    2
     8     2     3    2
     9     2     1    1
    10     7     9    1
    11     7     6    1
    12     1     6    1
