@<TRIPOS>MOLECULE
/home/cewinharhar/GITHUB/reincatalyze/data/processed/docking_pred/2023-May-05-1615_maxeplen10_maxtrainstep1000_seadep16_gamma099_lrac9e-4_lrcr1e-3/ca2511eb0ea692a115cf18c67ef7ccdfaa736476_ligand_2.pdbqt
 12 12 0 0 0
SMALL
GASTEIGER

@<TRIPOS>ATOM
      1  C          8.3010   -0.5830   -2.1480 C.3     1  UNL1        0.1270
      2  C          8.3240   -1.8540   -2.9110 C.2     1  UNL1        0.3030
      3  O          7.2610   -2.4040   -3.2890 O.2     1  UNL1       -0.2520
      4  O          9.5230   -2.4710   -3.2270 O.3     1  UNL1       -0.4810
      5  H          9.7110   -3.4130   -2.8730 H       1  UNL1        0.2960
      6  C          6.9300   -0.4050   -1.5700 C.3     1  UNL1        0.0470
      7  C          6.7810    0.7970   -0.7520 C.2     1  UNL1       -0.0470
      8  C          5.5550    1.4040   -0.6100 C.2     1  UNL1        0.0040
      9  C          7.8860    1.3200   -0.1190 C.2     1  UNL1        0.0040
     10  C          5.4860    2.5480    0.1870 C.2     1  UNL1        0.0000
     11  C          7.8160    2.4520    0.6680 C.2     1  UNL1        0.0000
     12  C          6.5910    3.0660    0.8150 C.2     1  UNL1        0.0000
@<TRIPOS>BOND
     1     3     2    2
     2     4     2    1
     3     4     5    1
     4     2     1    1
     5     1     6    1
     6     6     7    1
     7     7     8    2
     8     7     9    1
     9     8    10    1
    10     9    11    2
    11    10    12    2
    12    11    12    1
