@<TRIPOS>MOLECULE
/home/cewinharhar/GITHUB/reincatalyze/data/processed/docking_pred/2023-May-05-1615_maxeplen10_maxtrainstep1000_seadep16_gamma099_lrac9e-4_lrcr1e-3/cb79d4b49cb2e7af28552c4e2a37cc688e9725fc_ligand_2.pdbqt
 12 12 0 0 0
SMALL
GASTEIGER

@<TRIPOS>ATOM
      1  C          8.1830   -1.0930    0.0350 C.3     1  UNL1        0.1270
      2  C          7.9030   -2.3570    0.7550 C.2     1  UNL1        0.3030
      3  O          8.7200   -3.3110    0.7370 O.2     1  UNL1       -0.2520
      4  O          6.7280   -2.5210    1.4710 O.3     1  UNL1       -0.4810
      5  H          5.9450   -3.0200    1.0400 H       1  UNL1        0.2960
      6  C          6.8840   -0.5360   -0.4620 C.3     1  UNL1        0.0470
      7  C          6.6610    0.8630   -0.1040 C.2     1  UNL1       -0.0470
      8  C          7.6640    1.6110    0.4680 C.2     1  UNL1        0.0040
      9  C          5.4320    1.4320   -0.3480 C.2     1  UNL1        0.0040
     10  C          7.3810    2.9420    0.7830 C.2     1  UNL1        0.0000
     11  C          5.1540    2.7480   -0.0360 C.2     1  UNL1        0.0000
     12  C          6.1530    3.5030    0.5380 C.2     1  UNL1        0.0000
@<TRIPOS>BOND
     1     6     7    1
     2     6     1    1
     3     9     7    2
     4     9    11    1
     5     7     8    1
     6    11    12    2
     7     1     2    1
     8     8    10    2
     9    12    10    1
    10     3     2    2
    11     2     4    1
    12     5     4    1
