@<TRIPOS>MOLECULE
/home/cewinharhar/GITHUB/reincatalyze/data/processed/docking_pred/2023-May-05-1615_maxeplen10_maxtrainstep1000_seadep16_gamma099_lrac9e-4_lrcr1e-3/cb79d4b49cb2e7af28552c4e2a37cc688e9725fc_ligand_2.pdbqt
 12 12 0 0 0
SMALL
GASTEIGER

@<TRIPOS>ATOM
      1  C          7.3180   -0.3940   -2.1760 C.3     1  UNL1        0.1270
      2  C          8.7410   -0.7970   -2.2660 C.2     1  UNL1        0.3030
      3  O          9.6510   -0.0890   -1.7680 O.2     1  UNL1       -0.2520
      4  O          9.1070   -1.9710   -2.9050 O.3     1  UNL1       -0.4810
      5  H         10.0640   -2.0740   -3.2540 H       1  UNL1        0.2960
      6  C          6.9380   -0.3320   -0.7280 C.3     1  UNL1        0.0470
      7  C          6.6460    1.0170   -0.2470 C.2     1  UNL1       -0.0470
      8  C          5.4020    1.5760   -0.4300 C.2     1  UNL1        0.0040
      9  C          7.6320    1.7280    0.3970 C.2     1  UNL1        0.0040
     10  C          5.1940    2.8690    0.0560 C.2     1  UNL1        0.0000
     11  C          7.4240    3.0060    0.8770 C.2     1  UNL1        0.0000
     12  C          6.1810    3.5730    0.6970 C.2     1  UNL1        0.0000
@<TRIPOS>BOND
     1     5     4    1
     2     4     2    1
     3     2     1    1
     4     2     3    2
     5     1     6    1
     6     6     7    1
     7     8     7    2
     8     8    10    1
     9     7     9    1
    10    10    12    2
    11     9    11    2
    12    12    11    1
