@<TRIPOS>MOLECULE
/home/cewinharhar/GITHUB/reincatalyze/data/processed/docking_pred/2023-May-05-1615_maxeplen10_maxtrainstep1000_seadep16_gamma099_lrac9e-4_lrcr1e-3/cb79d4b49cb2e7af28552c4e2a37cc688e9725fc_ligand_2.pdbqt
 12 12 0 0 0
SMALL
GASTEIGER

@<TRIPOS>ATOM
      1  C         10.0040    1.8330    1.2480 C.3     1  UNL1        0.1270
      2  C         10.7800    0.7160    0.6580 C.2     1  UNL1        0.3030
      3  O         11.2840   -0.1790    1.3810 O.2     1  UNL1       -0.2520
      4  O         10.9700    0.6290   -0.7110 O.3     1  UNL1       -0.4810
      5  H         11.1200   -0.2890   -1.1390 H       1  UNL1        0.2960
      6  C          8.7450    1.2730    1.8350 C.3     1  UNL1        0.0470
      7  C          7.5320    1.6500    1.1110 C.2     1  UNL1       -0.0470
      8  C          6.8240    0.7160    0.3900 C.2     1  UNL1        0.0040
      9  C          7.1010    2.9560    1.1580 C.2     1  UNL1        0.0040
     10  C          5.6740    1.1470   -0.2760 C.2     1  UNL1        0.0000
     11  C          5.9640    3.3800    0.4980 C.2     1  UNL1        0.0000
     12  C          5.2500    2.4510   -0.2260 C.2     1  UNL1        0.0000
@<TRIPOS>BOND
     1     5     4    1
     2     4     2    1
     3    10    12    2
     4    10     8    1
     5    12    11    1
     6     8     7    2
     7    11     9    2
     8     2     1    1
     9     2     3    2
    10     7     9    1
    11     7     6    1
    12     1     6    1
