@<TRIPOS>MOLECULE
/home/cewinharhar/GITHUB/reincatalyze/data/processed/docking_pred/2023-May-05-1615_maxeplen10_maxtrainstep1000_seadep16_gamma099_lrac9e-4_lrcr1e-3/cb79d4b49cb2e7af28552c4e2a37cc688e9725fc_ligand_2.pdbqt
 12 12 0 0 0
SMALL
GASTEIGER

@<TRIPOS>ATOM
      1  C          7.6600   -0.3460    1.0700 C.3     1  UNL1        0.1270
      2  C          6.6420   -1.1070    1.8320 C.2     1  UNL1        0.3030
      3  O          5.8690   -0.5330    2.6380 O.2     1  UNL1       -0.2520
      4  O          6.5140   -2.4770    1.6740 O.3     1  UNL1       -0.4810
      5  H          6.9720   -2.9350    0.8800 H       1  UNL1        0.2960
      6  C          8.0180    0.8790    1.8560 C.3     1  UNL1        0.0470
      7  C          9.4360    0.9720    2.1980 C.2     1  UNL1       -0.0470
      8  C          9.8830    1.9130    3.0970 C.2     1  UNL1        0.0040
      9  C         10.3270    0.1040    1.6110 C.2     1  UNL1        0.0040
     10  C         11.2510    1.9440    3.3770 C.2     1  UNL1        0.0000
     11  C         11.6790    0.1370    1.8880 C.2     1  UNL1        0.0000
     12  C         12.1350    1.0760    2.7870 C.2     1  UNL1        0.0000
@<TRIPOS>BOND
     1     5     4    1
     2     1     2    1
     3     1     6    1
     4     9    11    1
     5     9     7    2
     6     4     2    1
     7     2     3    2
     8     6     7    1
     9    11    12    2
    10     7     8    1
    11    12    10    1
    12     8    10    2
