MODEL 1
REMARK VINA RESULT:      -7.3      0.000      0.000
REMARK SMILES O=C(O)CCc1ccccc1
REMARK SMILES IDX 4 1 2 2 1 3 3 4 5 6 6 7 7 8 11 9 8 10 10 11 9 12
REMARK H PARENT 3 5
REMARK Flexibility Score: inf
ROOT
ATOM      1  C   UNL     1       8.404  -0.666  -2.065  1.00  0.00     0.127 C 
ENDROOT
BRANCH   1   2
ATOM      2  C   UNL     1       8.374  -1.907  -2.874  1.00  0.00     0.303 C 
ATOM      3  O   UNL     1       7.288  -2.413  -3.250  1.00  0.00    -0.252 OA
BRANCH   2   4
ATOM      4  O   UNL     1       9.549  -2.545  -3.239  1.00  0.00    -0.481 OA
ATOM      5  H   UNL     1      10.095  -3.034  -2.525  1.00  0.00     0.296 HD
ENDBRANCH   2   4
ENDBRANCH   1   2
BRANCH   1   6
ATOM      6  C   UNL     1       7.028  -0.072  -2.063  1.00  0.00     0.047 C 
BRANCH   6   7
ATOM      7  C   UNL     1       6.455   0.097  -0.729  1.00  0.00    -0.047 A 
ATOM      8  C   UNL     1       5.803   1.259  -0.386  1.00  0.00     0.004 A 
ATOM      9  C   UNL     1       6.572  -0.923   0.186  1.00  0.00     0.004 A 
ATOM     10  C   UNL     1       5.279   1.351   0.906  1.00  0.00     0.000 A 
ATOM     11  C   UNL     1       6.054  -0.830   1.463  1.00  0.00     0.000 A 
ATOM     12  C   UNL     1       5.400   0.330   1.815  1.00  0.00     0.000 A 
ENDBRANCH   6   7
ENDBRANCH   1   6
TORSDOF 4
ENDMDL
