@<TRIPOS>MOLECULE
/home/cewinharhar/GITHUB/reincatalyze/data/processed/docking_pred/2023-May-05-1615_maxeplen10_maxtrainstep1000_seadep16_gamma099_lrac9e-4_lrcr1e-3/cd4c5e941d02e4868d4085413ee1ba9fc9c4a187_ligand_2.pdbqt
 12 12 0 0 0
SMALL
GASTEIGER

@<TRIPOS>ATOM
      1  C          8.4050   -0.6550   -2.0790 C.3     1  UNL1        0.1270
      2  C          8.3730   -1.9040   -2.8760 C.2     1  UNL1        0.3030
      3  O          7.2870   -2.4090   -3.2510 O.2     1  UNL1       -0.2520
      4  O          9.5470   -2.5500   -3.2290 O.3     1  UNL1       -0.4810
      5  H         10.1200   -2.1690   -3.9870 H       1  UNL1        0.2960
      6  C          7.0270   -0.0660   -2.0710 C.3     1  UNL1        0.0470
      7  C          6.4600    0.1030   -0.7340 C.2     1  UNL1       -0.0470
      8  C          5.8060    1.2630   -0.3890 C.2     1  UNL1        0.0040
      9  C          6.5850   -0.9160    0.1820 C.2     1  UNL1        0.0040
     10  C          5.2890    1.3550    0.9050 C.2     1  UNL1        0.0000
     11  C          6.0730   -0.8240    1.4610 C.2     1  UNL1        0.0000
     12  C          5.4170    0.3350    1.8150 C.2     1  UNL1        0.0000
@<TRIPOS>BOND
     1     5     4    1
     2     3     2    2
     3     4     2    1
     4     2     1    1
     5     1     6    1
     6     6     7    1
     7     7     8    2
     8     7     9    1
     9     8    10    1
    10     9    11    2
    11    10    12    2
    12    11    12    1
