@<TRIPOS>MOLECULE
/home/cewinharhar/GITHUB/reincatalyze/data/processed/docking_pred/2023-May-05-1615_maxeplen10_maxtrainstep1000_seadep16_gamma099_lrac9e-4_lrcr1e-3/cdc825ac9d1cfd0e1f917a20457d8153cb4f8d56_ligand_2.pdbqt
 12 12 0 0 0
SMALL
GASTEIGER

@<TRIPOS>ATOM
      1  C          8.3060   -0.5240   -2.2760 C.3     1  UNL1        0.1270
      2  C          8.3990   -1.8450   -2.9420 C.2     1  UNL1        0.3030
      3  O          9.5030   -2.4300   -3.0750 O.2     1  UNL1       -0.2520
      4  O          7.2680   -2.4710   -3.4390 O.3     1  UNL1       -0.4810
      5  H          7.1530   -2.5690   -4.4510 H       1  UNL1        0.2960
      6  C          7.0350   -0.4860   -1.4830 C.3     1  UNL1        0.0470
      7  C          6.8430    0.7500   -0.7270 C.2     1  UNL1       -0.0470
      8  C          7.9040    1.3660   -0.1050 C.2     1  UNL1        0.0040
      9  C          5.5840    1.2970   -0.6430 C.2     1  UNL1        0.0040
     10  C          7.6480    2.5440    0.6000 C.2     1  UNL1        0.0000
     11  C          5.3320    2.4620    0.0540 C.2     1  UNL1        0.0000
     12  C          6.3890    3.0850    0.6810 C.2     1  UNL1        0.0000
@<TRIPOS>BOND
     1     5     4    1
     2     4     2    1
     3     3     2    2
     4     2     1    1
     5     1     6    1
     6     6     7    1
     7     7     9    2
     8     7     8    1
     9     9    11    1
    10     8    10    2
    11    11    12    2
    12    10    12    1
