@<TRIPOS>MOLECULE
/home/cewinharhar/GITHUB/reincatalyze/data/processed/docking_pred/2023-May-05-1615_maxeplen10_maxtrainstep1000_seadep16_gamma099_lrac9e-4_lrcr1e-3/cf36f354a35629e8f67fe5763b2daf9f978d0e2b_ligand_2.pdbqt
 12 12 0 0 0
SMALL
GASTEIGER

@<TRIPOS>ATOM
      1  C          7.2620   -1.2720   -2.1740 C.3     1  UNL1        0.1270
      2  C          8.6990   -1.3100   -2.5310 C.2     1  UNL1        0.3030
      3  O          9.4980   -0.4350   -2.1130 O.2     1  UNL1       -0.2520
      4  O          9.2030   -2.3160   -3.3400 O.3     1  UNL1       -0.4810
      5  H         10.0770   -2.7810   -3.0760 H       1  UNL1        0.2960
      6  C          7.1460   -1.3340   -0.6810 C.3     1  UNL1        0.0470
      7  C          6.3920   -0.2260   -0.0970 C.2     1  UNL1       -0.0470
      8  C          5.9650   -0.2780    1.2100 C.2     1  UNL1        0.0040
      9  C          6.1130    0.8770   -0.8690 C.2     1  UNL1        0.0040
     10  C          5.2500    0.8160    1.7020 C.2     1  UNL1        0.0000
     11  C          5.4070    1.9580   -0.3810 C.2     1  UNL1        0.0000
     12  C          4.9740    1.9140    0.9270 C.2     1  UNL1        0.0000
@<TRIPOS>BOND
     1     4     5    1
     2     4     2    1
     3     2     1    1
     4     2     3    2
     5     1     6    1
     6     9    11    1
     7     9     7    2
     8     6     7    1
     9    11    12    2
    10     7     8    1
    11    12    10    1
    12     8    10    2
