@<TRIPOS>MOLECULE
/home/cewinharhar/GITHUB/reincatalyze/data/processed/docking_pred/2023-May-05-1615_maxeplen10_maxtrainstep1000_seadep16_gamma099_lrac9e-4_lrcr1e-3/cf36f354a35629e8f67fe5763b2daf9f978d0e2b_ligand_2.pdbqt
 12 12 0 0 0
SMALL
GASTEIGER

@<TRIPOS>ATOM
      1  C          8.4000   -0.6480   -2.0860 C.3     1  UNL1        0.1270
      2  C          8.3700   -1.9000   -2.8780 C.2     1  UNL1        0.3030
      3  O          7.2840   -2.4050   -3.2550 O.2     1  UNL1       -0.2520
      4  O          9.5440   -2.5490   -3.2250 O.3     1  UNL1       -0.4810
      5  H          9.6230   -3.5580   -3.0700 H       1  UNL1        0.2960
      6  C          7.0200   -0.0640   -2.0750 C.3     1  UNL1        0.0470
      7  C          6.4570    0.1040   -0.7370 C.2     1  UNL1       -0.0470
      8  C          5.7990    1.2610   -0.3910 C.2     1  UNL1        0.0040
      9  C          6.5880   -0.9140    0.1800 C.2     1  UNL1        0.0040
     10  C          5.2850    1.3530    0.9050 C.2     1  UNL1        0.0000
     11  C          6.0800   -0.8220    1.4600 C.2     1  UNL1        0.0000
     12  C          5.4200    0.3350    1.8150 C.2     1  UNL1        0.0000
@<TRIPOS>BOND
     1     3     2    2
     2     4     5    1
     3     4     2    1
     4     2     1    1
     5     1     6    1
     6     6     7    1
     7     7     8    2
     8     7     9    1
     9     8    10    1
    10     9    11    2
    11    10    12    2
    12    11    12    1
