MODEL 1
REMARK VINA RESULT:      -7.3      0.000      0.000
REMARK SMILES O=C(O)CCc1ccccc1
REMARK SMILES IDX 4 1 2 2 1 3 3 4 5 6 6 7 7 8 11 9 8 10 10 11 9 12
REMARK H PARENT 3 5
REMARK Flexibility Score: inf
ROOT
ATOM      1  C   UNL     1       8.400  -0.648  -2.086  1.00  0.00     0.127 C 
ENDROOT
BRANCH   1   2
ATOM      2  C   UNL     1       8.370  -1.900  -2.878  1.00  0.00     0.303 C 
ATOM      3  O   UNL     1       7.284  -2.405  -3.255  1.00  0.00    -0.252 OA
BRANCH   2   4
ATOM      4  O   UNL     1       9.544  -2.549  -3.225  1.00  0.00    -0.481 OA
ATOM      5  H   UNL     1       9.623  -3.558  -3.070  1.00  0.00     0.296 HD
ENDBRANCH   2   4
ENDBRANCH   1   2
BRANCH   1   6
ATOM      6  C   UNL     1       7.020  -0.064  -2.075  1.00  0.00     0.047 C 
BRANCH   6   7
ATOM      7  C   UNL     1       6.457   0.104  -0.737  1.00  0.00    -0.047 A 
ATOM      8  C   UNL     1       5.799   1.261  -0.391  1.00  0.00     0.004 A 
ATOM      9  C   UNL     1       6.588  -0.914   0.180  1.00  0.00     0.004 A 
ATOM     10  C   UNL     1       5.285   1.353   0.905  1.00  0.00     0.000 A 
ATOM     11  C   UNL     1       6.080  -0.822   1.460  1.00  0.00     0.000 A 
ATOM     12  C   UNL     1       5.420   0.335   1.815  1.00  0.00     0.000 A 
ENDBRANCH   6   7
ENDBRANCH   1   6
TORSDOF 4
ENDMDL
