@<TRIPOS>MOLECULE
/home/cewinharhar/GITHUB/reincatalyze/data/processed/docking_pred/2023-May-05-1615_maxeplen10_maxtrainstep1000_seadep16_gamma099_lrac9e-4_lrcr1e-3/d17de8b65df071edc80e577bc10846f04a34e0dd_ligand_2.pdbqt
 12 12 0 0 0
SMALL
GASTEIGER

@<TRIPOS>ATOM
      1  C          8.4570   -0.6620   -2.0800 C.3     1  UNL1        0.1270
      2  C          8.4760   -1.9100   -2.8800 C.2     1  UNL1        0.3030
      3  O          9.5450   -2.5350   -3.0850 O.2     1  UNL1       -0.2520
      4  O          7.3090   -2.4210   -3.4250 O.3     1  UNL1       -0.4810
      5  H          7.0760   -3.4060   -3.2750 H       1  UNL1        0.2960
      6  C          7.0610   -0.1180   -2.0890 C.3     1  UNL1        0.0470
      7  C          6.4800    0.0520   -0.7590 C.2     1  UNL1       -0.0470
      8  C          5.8300    1.2150   -0.4180 C.2     1  UNL1        0.0040
      9  C          6.5880   -0.9700    0.1560 C.2     1  UNL1        0.0040
     10  C          5.2980    1.3080    0.8700 C.2     1  UNL1        0.0000
     11  C          6.0620   -0.8770    1.4290 C.2     1  UNL1        0.0000
     12  C          5.4100    0.2860    1.7790 C.2     1  UNL1        0.0000
@<TRIPOS>BOND
     1     4     5    1
     2     4     2    1
     3     3     2    2
     4     2     1    1
     5     6     1    1
     6     6     7    1
     7     7     8    2
     8     7     9    1
     9     8    10    1
    10     9    11    2
    11    10    12    2
    12    11    12    1
