MODEL 1
REMARK VINA RESULT:      -7.2      0.000      0.000
REMARK SMILES O=C(O)CCc1ccccc1
REMARK SMILES IDX 4 1 2 2 1 3 3 4 5 6 6 7 7 8 11 9 8 10 10 11 9 12
REMARK H PARENT 3 5
REMARK Flexibility Score: inf
ROOT
ATOM      1  C   UNL     1       8.457  -0.662  -2.080  1.00  0.00     0.127 C 
ENDROOT
BRANCH   1   2
ATOM      2  C   UNL     1       8.476  -1.910  -2.880  1.00  0.00     0.303 C 
ATOM      3  O   UNL     1       9.545  -2.535  -3.085  1.00  0.00    -0.252 OA
BRANCH   2   4
ATOM      4  O   UNL     1       7.309  -2.421  -3.425  1.00  0.00    -0.481 OA
ATOM      5  H   UNL     1       7.076  -3.406  -3.275  1.00  0.00     0.296 HD
ENDBRANCH   2   4
ENDBRANCH   1   2
BRANCH   1   6
ATOM      6  C   UNL     1       7.061  -0.118  -2.089  1.00  0.00     0.047 C 
BRANCH   6   7
ATOM      7  C   UNL     1       6.480   0.052  -0.759  1.00  0.00    -0.047 A 
ATOM      8  C   UNL     1       5.830   1.215  -0.418  1.00  0.00     0.004 A 
ATOM      9  C   UNL     1       6.588  -0.970   0.156  1.00  0.00     0.004 A 
ATOM     10  C   UNL     1       5.298   1.308   0.870  1.00  0.00     0.000 A 
ATOM     11  C   UNL     1       6.062  -0.877   1.429  1.00  0.00     0.000 A 
ATOM     12  C   UNL     1       5.410   0.286   1.779  1.00  0.00     0.000 A 
ENDBRANCH   6   7
ENDBRANCH   1   6
TORSDOF 4
ENDMDL
MODEL 2
REMARK VINA RESULT:      -6.4      1.347      2.097
REMARK SMILES O=C(O)CCc1ccccc1
REMARK SMILES IDX 4 1 2 2 1 3 3 4 5 6 6 7 7 8 11 9 8 10 10 11 9 12
REMARK H PARENT 3 5
REMARK Flexibility Score: inf
ROOT
ATOM      1  C   UNL     1       7.173  -1.006  -2.183  1.00  0.00     0.127 C 
ENDROOT
BRANCH   1   2
ATOM      2  C   UNL     1       8.611  -1.224  -2.464  1.00  0.00     0.303 C 
ATOM      3  O   UNL     1       9.485  -0.427  -2.042  1.00  0.00    -0.252 OA
BRANCH   2   4
ATOM      4  O   UNL     1       9.032  -2.318  -3.203  1.00  0.00    -0.481 OA
ATOM      5  H   UNL     1       9.355  -2.179  -4.165  1.00  0.00     0.296 HD
ENDBRANCH   2   4
ENDBRANCH   1   2
BRANCH   1   6
ATOM      6  C   UNL     1       6.973  -1.034  -0.699  1.00  0.00     0.047 C 
BRANCH   6   7
ATOM      7  C   UNL     1       6.644   0.267  -0.118  1.00  0.00    -0.047 A 
ATOM      8  C   UNL     1       7.248   0.692   1.043  1.00  0.00     0.004 A 
ATOM      9  C   UNL     1       5.721   1.069  -0.748  1.00  0.00     0.004 A 
ATOM     10  C   UNL     1       6.886   1.946   1.539  1.00  0.00     0.000 A 
ATOM     11  C   UNL     1       5.365   2.309  -0.255  1.00  0.00     0.000 A 
ATOM     12  C   UNL     1       5.964   2.742   0.907  1.00  0.00     0.000 A 
ENDBRANCH   6   7
ENDBRANCH   1   6
TORSDOF 4
ENDMDL
