@<TRIPOS>MOLECULE
/home/cewinharhar/GITHUB/reincatalyze/data/processed/docking_pred/2023-May-05-1615_maxeplen10_maxtrainstep1000_seadep16_gamma099_lrac9e-4_lrcr1e-3/d17de8b65df071edc80e577bc10846f04a34e0dd_ligand_2.pdbqt
 12 12 0 0 0
SMALL
GASTEIGER

@<TRIPOS>ATOM
      1  C          7.1730   -1.0060   -2.1830 C.3     1  UNL1        0.1270
      2  C          8.6110   -1.2240   -2.4640 C.2     1  UNL1        0.3030
      3  O          9.4850   -0.4270   -2.0420 O.2     1  UNL1       -0.2520
      4  O          9.0320   -2.3180   -3.2030 O.3     1  UNL1       -0.4810
      5  H          9.3550   -2.1790   -4.1650 H       1  UNL1        0.2960
      6  C          6.9730   -1.0340   -0.6990 C.3     1  UNL1        0.0470
      7  C          6.6440    0.2670   -0.1180 C.2     1  UNL1       -0.0470
      8  C          7.2480    0.6920    1.0430 C.2     1  UNL1        0.0040
      9  C          5.7210    1.0690   -0.7480 C.2     1  UNL1        0.0040
     10  C          6.8860    1.9460    1.5390 C.2     1  UNL1        0.0000
     11  C          5.3650    2.3090   -0.2550 C.2     1  UNL1        0.0000
     12  C          5.9640    2.7420    0.9070 C.2     1  UNL1        0.0000
@<TRIPOS>BOND
     1     5     4    1
     2     4     2    1
     3     2     1    1
     4     2     3    2
     5     1     6    1
     6     9    11    1
     7     9     7    2
     8     6     7    1
     9    11    12    2
    10     7     8    1
    11    12    10    1
    12     8    10    2
