@<TRIPOS>MOLECULE
/home/cewinharhar/GITHUB/reincatalyze/data/processed/docking_pred/2023-May-05-1615_maxeplen10_maxtrainstep1000_seadep16_gamma099_lrac9e-4_lrcr1e-3/d18fc177cce43baae8a65556dd45e7572e61ad5e_ligand_2.pdbqt
 12 12 0 0 0
SMALL
GASTEIGER

@<TRIPOS>ATOM
      1  C          8.4500   -0.6720   -2.0740 C.3     1  UNL1        0.1270
      2  C          8.4640   -1.9130   -2.8830 C.2     1  UNL1        0.3030
      3  O          9.5290   -2.5480   -3.0830 O.2     1  UNL1       -0.2520
      4  O          7.2970   -2.4080   -3.4440 O.3     1  UNL1       -0.4810
      5  H          6.4740   -1.8020   -3.5050 H       1  UNL1        0.2960
      6  C          7.0540   -0.1280   -2.0700 C.3     1  UNL1        0.0470
      7  C          6.4820    0.0340   -0.7350 C.2     1  UNL1       -0.0470
      8  C          5.8310    1.1940   -0.3840 C.2     1  UNL1        0.0040
      9  C          6.6000   -0.9910    0.1750 C.2     1  UNL1        0.0040
     10  C          5.3090    1.2790    0.9080 C.2     1  UNL1        0.0000
     11  C          6.0830   -0.9050    1.4520 C.2     1  UNL1        0.0000
     12  C          5.4300    0.2540    1.8120 C.2     1  UNL1        0.0000
@<TRIPOS>BOND
     1     5     4    1
     2     4     2    1
     3     3     2    2
     4     2     1    1
     5     1     6    1
     6     6     7    1
     7     7     8    2
     8     7     9    1
     9     8    10    1
    10     9    11    2
    11    10    12    2
    12    11    12    1
