MODEL 1
REMARK VINA RESULT:      -7.1      0.000      0.000
REMARK SMILES O=C(O)CCc1ccccc1
REMARK SMILES IDX 4 1 2 2 1 3 3 4 5 6 6 7 7 8 11 9 8 10 10 11 9 12
REMARK H PARENT 3 5
REMARK Flexibility Score: inf
ROOT
ATOM      1  C   UNL     1       8.450  -0.672  -2.074  1.00  0.00     0.127 C 
ENDROOT
BRANCH   1   2
ATOM      2  C   UNL     1       8.464  -1.913  -2.883  1.00  0.00     0.303 C 
ATOM      3  O   UNL     1       9.529  -2.548  -3.083  1.00  0.00    -0.252 OA
BRANCH   2   4
ATOM      4  O   UNL     1       7.297  -2.408  -3.444  1.00  0.00    -0.481 OA
ATOM      5  H   UNL     1       6.474  -1.802  -3.505  1.00  0.00     0.296 HD
ENDBRANCH   2   4
ENDBRANCH   1   2
BRANCH   1   6
ATOM      6  C   UNL     1       7.054  -0.128  -2.070  1.00  0.00     0.047 C 
BRANCH   6   7
ATOM      7  C   UNL     1       6.482   0.034  -0.735  1.00  0.00    -0.047 A 
ATOM      8  C   UNL     1       5.831   1.194  -0.384  1.00  0.00     0.004 A 
ATOM      9  C   UNL     1       6.600  -0.991   0.175  1.00  0.00     0.004 A 
ATOM     10  C   UNL     1       5.309   1.279   0.908  1.00  0.00     0.000 A 
ATOM     11  C   UNL     1       6.083  -0.905   1.452  1.00  0.00     0.000 A 
ATOM     12  C   UNL     1       5.430   0.254   1.812  1.00  0.00     0.000 A 
ENDBRANCH   6   7
ENDBRANCH   1   6
TORSDOF 4
ENDMDL
MODEL 2
REMARK VINA RESULT:      -6.7      1.427      2.233
REMARK SMILES O=C(O)CCc1ccccc1
REMARK SMILES IDX 4 1 2 2 1 3 3 4 5 6 6 7 7 8 11 9 8 10 10 11 9 12
REMARK H PARENT 3 5
REMARK Flexibility Score: inf
ROOT
ATOM      1  C   UNL     1       8.272  -0.535  -2.228  1.00  0.00     0.127 C 
ENDROOT
BRANCH   1   2
ATOM      2  C   UNL     1       8.310  -1.833  -2.942  1.00  0.00     0.303 C 
ATOM      3  O   UNL     1       7.253  -2.408  -3.303  1.00  0.00    -0.252 OA
BRANCH   2   4
ATOM      4  O   UNL     1       9.517  -2.449  -3.231  1.00  0.00    -0.481 OA
ATOM      5  H   UNL     1       9.712  -3.376  -2.842  1.00  0.00     0.296 HD
ENDBRANCH   2   4
ENDBRANCH   1   2
BRANCH   1   6
ATOM      6  C   UNL     1       6.956  -0.426  -1.519  1.00  0.00     0.047 C 
BRANCH   6   7
ATOM      7  C   UNL     1       6.804   0.798  -0.734  1.00  0.00    -0.047 A 
ATOM      8  C   UNL     1       7.885   1.370  -0.105  1.00  0.00     0.004 A 
ATOM      9  C   UNL     1       5.560   1.378  -0.630  1.00  0.00     0.004 A 
ATOM     10  C   UNL     1       7.666   2.539   0.627  1.00  0.00     0.000 A 
ATOM     11  C   UNL     1       5.345   2.534   0.094  1.00  0.00     0.000 A 
ATOM     12  C   UNL     1       6.424   3.113   0.728  1.00  0.00     0.000 A 
ENDBRANCH   6   7
ENDBRANCH   1   6
TORSDOF 4
ENDMDL
