@<TRIPOS>MOLECULE
/home/cewinharhar/GITHUB/reincatalyze/data/processed/docking_pred/2023-May-05-1615_maxeplen10_maxtrainstep1000_seadep16_gamma099_lrac9e-4_lrcr1e-3/d18fc177cce43baae8a65556dd45e7572e61ad5e_ligand_2.pdbqt
 12 12 0 0 0
SMALL
GASTEIGER

@<TRIPOS>ATOM
      1  C          8.2720   -0.5350   -2.2280 C.3     1  UNL1        0.1270
      2  C          8.3100   -1.8330   -2.9420 C.2     1  UNL1        0.3030
      3  O          7.2530   -2.4080   -3.3030 O.2     1  UNL1       -0.2520
      4  O          9.5170   -2.4490   -3.2310 O.3     1  UNL1       -0.4810
      5  H          9.7120   -3.3760   -2.8420 H       1  UNL1        0.2960
      6  C          6.9560   -0.4260   -1.5190 C.3     1  UNL1        0.0470
      7  C          6.8040    0.7980   -0.7340 C.2     1  UNL1       -0.0470
      8  C          7.8850    1.3700   -0.1050 C.2     1  UNL1        0.0040
      9  C          5.5600    1.3780   -0.6300 C.2     1  UNL1        0.0040
     10  C          7.6660    2.5390    0.6270 C.2     1  UNL1        0.0000
     11  C          5.3450    2.5340    0.0940 C.2     1  UNL1        0.0000
     12  C          6.4240    3.1130    0.7280 C.2     1  UNL1        0.0000
@<TRIPOS>BOND
     1     3     2    2
     2     4     2    1
     3     4     5    1
     4     2     1    1
     5     1     6    1
     6     6     7    1
     7     7     9    2
     8     7     8    1
     9     9    11    1
    10     8    10    2
    11    11    12    2
    12    10    12    1
