@<TRIPOS>MOLECULE
/home/cewinharhar/GITHUB/reincatalyze/data/processed/docking_pred/2023-May-05-1615_maxeplen10_maxtrainstep1000_seadep16_gamma099_lrac9e-4_lrcr1e-3/d27e6afc186b75c76b7fe435f4b9560b42cd14a2_ligand_2.pdbqt
 12 12 0 0 0
SMALL
GASTEIGER

@<TRIPOS>ATOM
      1  C          8.4060   -0.6610   -2.0700 C.3     1  UNL1        0.1270
      2  C          8.3750   -1.9060   -2.8750 C.2     1  UNL1        0.3030
      3  O          7.2890   -2.4120   -3.2490 O.2     1  UNL1       -0.2520
      4  O          9.5500   -2.5470   -3.2360 O.3     1  UNL1       -0.4810
      5  H          9.6520   -3.5480   -3.0490 H       1  UNL1        0.2960
      6  C          7.0300   -0.0690   -2.0670 C.3     1  UNL1        0.0470
      7  C          6.4580    0.1010   -0.7330 C.2     1  UNL1       -0.0470
      8  C          5.8050    1.2610   -0.3890 C.2     1  UNL1        0.0040
      9  C          6.5790   -0.9190    0.1830 C.2     1  UNL1        0.0040
     10  C          5.2830    1.3540    0.9030 C.2     1  UNL1        0.0000
     11  C          6.0620   -0.8260    1.4610 C.2     1  UNL1        0.0000
     12  C          5.4060    0.3340    1.8130 C.2     1  UNL1        0.0000
@<TRIPOS>BOND
     1     3     2    2
     2     4     5    1
     3     4     2    1
     4     2     1    1
     5     1     6    1
     6     6     7    1
     7     7     8    2
     8     7     9    1
     9     8    10    1
    10     9    11    2
    11    10    12    2
    12    11    12    1
