@<TRIPOS>MOLECULE
/home/cewinharhar/GITHUB/reincatalyze/data/processed/docking_pred/2023-May-05-1615_maxeplen10_maxtrainstep1000_seadep16_gamma099_lrac9e-4_lrcr1e-3/d27e6afc186b75c76b7fe435f4b9560b42cd14a2_ligand_2.pdbqt
 12 12 0 0 0
SMALL
GASTEIGER

@<TRIPOS>ATOM
      1  C          8.2660   -0.5320   -2.2210 C.3     1  UNL1        0.1270
      2  C          8.3030   -1.8280   -2.9400 C.2     1  UNL1        0.3030
      3  O          7.2460   -2.4000   -3.3040 O.2     1  UNL1       -0.2520
      4  O          9.5090   -2.4440   -3.2300 O.3     1  UNL1       -0.4810
      5  H         10.3530   -2.1560   -2.7270 H       1  UNL1        0.2960
      6  C          6.9830   -0.4570   -1.4520 C.3     1  UNL1        0.0470
      7  C          6.8120    0.7850   -0.7000 C.2     1  UNL1       -0.0470
      8  C          7.8810    1.3810   -0.0730 C.2     1  UNL1        0.0040
      9  C          5.5640    1.3590   -0.6270 C.2     1  UNL1        0.0040
     10  C          7.6450    2.5670    0.6260 C.2     1  UNL1        0.0000
     11  C          5.3320    2.5320    0.0640 C.2     1  UNL1        0.0000
     12  C          6.3980    3.1340    0.6960 C.2     1  UNL1        0.0000
@<TRIPOS>BOND
     1     3     2    2
     2     4     2    1
     3     4     5    1
     4     2     1    1
     5     1     6    1
     6     6     7    1
     7     7     9    2
     8     7     8    1
     9     9    11    1
    10     8    10    2
    11    11    12    2
    12    10    12    1
