@<TRIPOS>MOLECULE
/home/cewinharhar/GITHUB/reincatalyze/data/processed/docking_pred/2023-May-05-1615_maxeplen10_maxtrainstep1000_seadep16_gamma099_lrac9e-4_lrcr1e-3/d29de17412cd01c0ee6022e9d720ef028927a1a9_ligand_2.pdbqt
 12 12 0 0 0
SMALL
GASTEIGER

@<TRIPOS>ATOM
      1  C          8.4010   -0.6470   -2.0880 C.3     1  UNL1        0.1270
      2  C          8.3720   -1.9000   -2.8800 C.2     1  UNL1        0.3030
      3  O          7.2860   -2.4070   -3.2540 O.2     1  UNL1       -0.2520
      4  O          9.5460   -2.5470   -3.2290 O.3     1  UNL1       -0.4810
      5  H          9.6350   -2.9510   -4.1650 H       1  UNL1        0.2960
      6  C          7.0210   -0.0640   -2.0770 C.3     1  UNL1        0.0470
      7  C          6.4560    0.1020   -0.7390 C.2     1  UNL1       -0.0470
      8  C          5.8000    1.2600   -0.3920 C.2     1  UNL1        0.0040
      9  C          6.5860   -0.9170    0.1760 C.2     1  UNL1        0.0040
     10  C          5.2850    1.3500    0.9040 C.2     1  UNL1        0.0000
     11  C          6.0760   -0.8270    1.4560 C.2     1  UNL1        0.0000
     12  C          5.4180    0.3300    1.8120 C.2     1  UNL1        0.0000
@<TRIPOS>BOND
     1     5     4    1
     2     3     2    2
     3     4     2    1
     4     2     1    1
     5     1     6    1
     6     6     7    1
     7     7     8    2
     8     7     9    1
     9     8    10    1
    10     9    11    2
    11    10    12    2
    12    11    12    1
