@<TRIPOS>MOLECULE
/home/cewinharhar/GITHUB/reincatalyze/data/processed/docking_pred/2023-May-05-1615_maxeplen10_maxtrainstep1000_seadep16_gamma099_lrac9e-4_lrcr1e-3/d32515ef85c53a65d829162c3cbbbf13c46f52f9_ligand_2.pdbqt
 12 12 0 0 0
SMALL
GASTEIGER

@<TRIPOS>ATOM
      1  C          8.4050   -0.6590   -2.0730 C.3     1  UNL1        0.1270
      2  C          8.3740   -1.9040   -2.8760 C.2     1  UNL1        0.3030
      3  O          7.2870   -2.4100   -3.2500 O.2     1  UNL1       -0.2520
      4  O          9.5480   -2.5470   -3.2360 O.3     1  UNL1       -0.4810
      5  H         10.3020   -2.6340   -2.5490 H       1  UNL1        0.2960
      6  C          7.0280   -0.0670   -2.0690 C.3     1  UNL1        0.0470
      7  C          6.4580    0.1010   -0.7330 C.2     1  UNL1       -0.0470
      8  C          5.8020    1.2600   -0.3900 C.2     1  UNL1        0.0040
      9  C          6.5810   -0.9190    0.1820 C.2     1  UNL1        0.0040
     10  C          5.2810    1.3510    0.9030 C.2     1  UNL1        0.0000
     11  C          6.0660   -0.8270    1.4600 C.2     1  UNL1        0.0000
     12  C          5.4080    0.3320    1.8130 C.2     1  UNL1        0.0000
@<TRIPOS>BOND
     1     3     2    2
     2     4     2    1
     3     4     5    1
     4     2     1    1
     5     1     6    1
     6     6     7    1
     7     7     8    2
     8     7     9    1
     9     8    10    1
    10     9    11    2
    11    10    12    2
    12    11    12    1
