@<TRIPOS>MOLECULE
/home/cewinharhar/GITHUB/reincatalyze/data/processed/docking_pred/2023-May-05-1615_maxeplen10_maxtrainstep1000_seadep16_gamma099_lrac9e-4_lrcr1e-3/d4292dbdc665c4d20b6271b363b9823f318ec372_ligand_2.pdbqt
 12 12 0 0 0
SMALL
GASTEIGER

@<TRIPOS>ATOM
      1  C          8.4050   -0.6630   -2.0670 C.3     1  UNL1        0.1270
      2  C          8.3750   -1.9020   -2.8780 C.2     1  UNL1        0.3030
      3  O          7.2880   -2.4150   -3.2430 O.2     1  UNL1       -0.2520
      4  O          9.5490   -2.5330   -3.2560 O.3     1  UNL1       -0.4810
      5  H         10.4020   -1.9770   -3.3700 H       1  UNL1        0.2960
      6  C          7.0310   -0.0660   -2.0660 C.3     1  UNL1        0.0470
      7  C          6.4570    0.1050   -0.7330 C.2     1  UNL1       -0.0470
      8  C          5.8050    1.2670   -0.3910 C.2     1  UNL1        0.0040
      9  C          6.5740   -0.9150    0.1840 C.2     1  UNL1        0.0040
     10  C          5.2810    1.3600    0.9000 C.2     1  UNL1        0.0000
     11  C          6.0550   -0.8200    1.4600 C.2     1  UNL1        0.0000
     12  C          5.4010    0.3410    1.8100 C.2     1  UNL1        0.0000
@<TRIPOS>BOND
     1     5     4    1
     2     4     2    1
     3     3     2    2
     4     2     1    1
     5     1     6    1
     6     6     7    1
     7     7     8    2
     8     7     9    1
     9     8    10    1
    10     9    11    2
    11    10    12    2
    12    11    12    1
