@<TRIPOS>MOLECULE
/home/cewinharhar/GITHUB/reincatalyze/data/processed/docking_pred/2023-May-05-1615_maxeplen10_maxtrainstep1000_seadep16_gamma099_lrac9e-4_lrcr1e-3/d4c602a3745b48528a2ec664cc6a2c0711254731_ligand_2.pdbqt
 12 12 0 0 0
SMALL
GASTEIGER

@<TRIPOS>ATOM
      1  C          8.4030   -0.6560   -2.0770 C.3     1  UNL1        0.1270
      2  C          8.3710   -1.9040   -2.8750 C.2     1  UNL1        0.3030
      3  O          7.2850   -2.4080   -3.2530 O.2     1  UNL1       -0.2520
      4  O          9.5450   -2.5520   -3.2270 O.3     1  UNL1       -0.4810
      5  H          9.5080   -3.3280   -3.8930 H       1  UNL1        0.2960
      6  C          7.0250   -0.0670   -2.0700 C.3     1  UNL1        0.0470
      7  C          6.4580    0.1040   -0.7330 C.2     1  UNL1       -0.0470
      8  C          5.8020    1.2630   -0.3900 C.2     1  UNL1        0.0040
      9  C          6.5850   -0.9130    0.1850 C.2     1  UNL1        0.0040
     10  C          5.2850    1.3560    0.9040 C.2     1  UNL1        0.0000
     11  C          6.0740   -0.8190    1.4640 C.2     1  UNL1        0.0000
     12  C          5.4160    0.3390    1.8160 C.2     1  UNL1        0.0000
@<TRIPOS>BOND
     1     5     4    1
     2     3     2    2
     3     4     2    1
     4     2     1    1
     5     1     6    1
     6     6     7    1
     7     7     8    2
     8     7     9    1
     9     8    10    1
    10     9    11    2
    11    10    12    2
    12    11    12    1
