@<TRIPOS>MOLECULE
/home/cewinharhar/GITHUB/reincatalyze/data/processed/docking_pred/2023-May-05-1615_maxeplen10_maxtrainstep1000_seadep16_gamma099_lrac9e-4_lrcr1e-3/d7d9c72b52c2e0a01b4806f6bcc2a503b8c9528b_ligand_2.pdbqt
 12 12 0 0 0
SMALL
GASTEIGER

@<TRIPOS>ATOM
      1  C          8.3220   -0.6960   -2.1590 C.3     1  UNL1        0.1270
      2  C          8.4380   -1.9570   -2.9280 C.2     1  UNL1        0.3030
      3  O          9.5500   -2.5150   -3.1000 O.2     1  UNL1       -0.2520
      4  O          7.3180   -2.5570   -3.4810 O.3     1  UNL1       -0.4810
      5  H          7.4370   -3.2570   -4.2180 H       1  UNL1        0.2960
      6  C          6.8950   -0.5360   -1.7290 C.3     1  UNL1        0.0470
      7  C          6.6860   -0.7010   -0.2920 C.2     1  UNL1       -0.0470
      8  C          7.2820   -1.7350    0.3920 C.2     1  UNL1        0.0040
      9  C          5.8830    0.1950    0.3770 C.2     1  UNL1        0.0040
     10  C          7.0380   -1.8300    1.7640 C.2     1  UNL1        0.0000
     11  C          5.6430    0.0990    1.7330 C.2     1  UNL1        0.0000
     12  C          6.2360   -0.9350    2.4250 C.2     1  UNL1        0.0000
@<TRIPOS>BOND
     1     5     4    1
     2     4     2    1
     3     3     2    2
     4     2     1    1
     5     1     6    1
     6     6     7    1
     7     7     9    2
     8     7     8    1
     9     9    11    1
    10     8    10    2
    11    11    12    2
    12    10    12    1
