MODEL 1
REMARK VINA RESULT:      -6.5      0.000      0.000
REMARK SMILES O=C(O)CCc1ccccc1
REMARK SMILES IDX 4 1 2 2 1 3 3 4 5 6 6 7 7 8 11 9 8 10 10 11 9 12
REMARK H PARENT 3 5
REMARK Flexibility Score: inf
ROOT
ATOM      1  C   UNL     1       8.322  -0.696  -2.159  1.00  0.00     0.127 C 
ENDROOT
BRANCH   1   2
ATOM      2  C   UNL     1       8.438  -1.957  -2.928  1.00  0.00     0.303 C 
ATOM      3  O   UNL     1       9.550  -2.515  -3.100  1.00  0.00    -0.252 OA
BRANCH   2   4
ATOM      4  O   UNL     1       7.318  -2.557  -3.481  1.00  0.00    -0.481 OA
ATOM      5  H   UNL     1       7.437  -3.257  -4.218  1.00  0.00     0.296 HD
ENDBRANCH   2   4
ENDBRANCH   1   2
BRANCH   1   6
ATOM      6  C   UNL     1       6.895  -0.536  -1.729  1.00  0.00     0.047 C 
BRANCH   6   7
ATOM      7  C   UNL     1       6.686  -0.701  -0.292  1.00  0.00    -0.047 A 
ATOM      8  C   UNL     1       7.282  -1.735   0.392  1.00  0.00     0.004 A 
ATOM      9  C   UNL     1       5.883   0.195   0.377  1.00  0.00     0.004 A 
ATOM     10  C   UNL     1       7.038  -1.830   1.764  1.00  0.00     0.000 A 
ATOM     11  C   UNL     1       5.643   0.099   1.733  1.00  0.00     0.000 A 
ATOM     12  C   UNL     1       6.236  -0.935   2.425  1.00  0.00     0.000 A 
ENDBRANCH   6   7
ENDBRANCH   1   6
TORSDOF 4
ENDMDL
MODEL 2
REMARK VINA RESULT:      -6.3      3.198      4.948
REMARK SMILES O=C(O)CCc1ccccc1
REMARK SMILES IDX 4 1 2 2 1 3 3 4 5 6 6 7 7 8 11 9 8 10 10 11 9 12
REMARK H PARENT 3 5
REMARK Flexibility Score: inf
ROOT
ATOM      1  C   UNL     1       5.912  -0.898   1.739  1.00  0.00     0.127 C 
ENDROOT
BRANCH   1   2
ATOM      2  C   UNL     1       5.362   0.445   2.039  1.00  0.00     0.303 C 
ATOM      3  O   UNL     1       4.194   0.587   2.477  1.00  0.00    -0.252 OA
BRANCH   2   4
ATOM      4  O   UNL     1       6.125   1.585   1.843  1.00  0.00    -0.481 OA
ATOM      5  H   UNL     1       6.502   1.781   0.912  1.00  0.00     0.296 HD
ENDBRANCH   2   4
ENDBRANCH   1   2
BRANCH   1   6
ATOM      6  C   UNL     1       7.379  -0.756   1.468  1.00  0.00     0.047 C 
BRANCH   6   7
ATOM      7  C   UNL     1       7.714  -0.651   0.049  1.00  0.00    -0.047 A 
ATOM      8  C   UNL     1       8.859  -0.006  -0.358  1.00  0.00     0.004 A 
ATOM      9  C   UNL     1       6.869  -1.208  -0.884  1.00  0.00     0.004 A 
ATOM     10  C   UNL     1       9.116   0.055  -1.729  1.00  0.00     0.000 A 
ATOM     11  C   UNL     1       7.125  -1.146  -2.239  1.00  0.00     0.000 A 
ATOM     12  C   UNL     1       8.270  -0.501  -2.655  1.00  0.00     0.000 A 
ENDBRANCH   6   7
ENDBRANCH   1   6
TORSDOF 4
ENDMDL
MODEL 3
REMARK VINA RESULT:      -6.1      3.461      5.109
REMARK SMILES O=C(O)CCc1ccccc1
REMARK SMILES IDX 4 1 2 2 1 3 3 4 5 6 6 7 7 8 11 9 8 10 10 11 9 12
REMARK H PARENT 3 5
REMARK Flexibility Score: inf
ROOT
ATOM      1  C   UNL     1       5.077  -0.122   2.035  1.00  0.00     0.127 C 
ENDROOT
BRANCH   1   2
ATOM      2  C   UNL     1       4.406   1.199   1.974  1.00  0.00     0.303 C 
ATOM      3  O   UNL     1       4.936   2.170   1.380  1.00  0.00    -0.252 OA
BRANCH   2   4
ATOM      4  O   UNL     1       3.173   1.397   2.574  1.00  0.00    -0.481 OA
ATOM      5  H   UNL     1       2.726   2.316   2.507  1.00  0.00     0.296 HD
ENDBRANCH   2   4
ENDBRANCH   1   2
BRANCH   1   6
ATOM      6  C   UNL     1       6.532   0.075   1.737  1.00  0.00     0.047 C 
BRANCH   6   7
ATOM      7  C   UNL     1       7.015  -0.701   0.596  1.00  0.00    -0.047 A 
ATOM      8  C   UNL     1       6.657  -0.361  -0.688  1.00  0.00     0.004 A 
ATOM      9  C   UNL     1       7.838  -1.780   0.819  1.00  0.00     0.004 A 
ATOM     10  C   UNL     1       7.157  -1.146  -1.730  1.00  0.00     0.000 A 
ATOM     11  C   UNL     1       8.331  -2.556  -0.212  1.00  0.00     0.000 A 
ATOM     12  C   UNL     1       7.976  -2.222  -1.502  1.00  0.00     0.000 A 
ENDBRANCH   6   7
ENDBRANCH   1   6
TORSDOF 4
ENDMDL
