@<TRIPOS>MOLECULE
/home/cewinharhar/GITHUB/reincatalyze/data/processed/docking_pred/2023-May-05-1615_maxeplen10_maxtrainstep1000_seadep16_gamma099_lrac9e-4_lrcr1e-3/d7d9c72b52c2e0a01b4806f6bcc2a503b8c9528b_ligand_2.pdbqt
 12 12 0 0 0
SMALL
GASTEIGER

@<TRIPOS>ATOM
      1  C          5.9120   -0.8980    1.7390 C.3     1  UNL1        0.1270
      2  C          5.3620    0.4450    2.0390 C.2     1  UNL1        0.3030
      3  O          4.1940    0.5870    2.4770 O.2     1  UNL1       -0.2520
      4  O          6.1250    1.5850    1.8430 O.3     1  UNL1       -0.4810
      5  H          6.5020    1.7810    0.9120 H       1  UNL1        0.2960
      6  C          7.3790   -0.7560    1.4680 C.3     1  UNL1        0.0470
      7  C          7.7140   -0.6510    0.0490 C.2     1  UNL1       -0.0470
      8  C          8.8590   -0.0060   -0.3580 C.2     1  UNL1        0.0040
      9  C          6.8690   -1.2080   -0.8840 C.2     1  UNL1        0.0040
     10  C          9.1160    0.0550   -1.7290 C.2     1  UNL1        0.0000
     11  C          7.1250   -1.1460   -2.2390 C.2     1  UNL1        0.0000
     12  C          8.2700   -0.5010   -2.6550 C.2     1  UNL1        0.0000
@<TRIPOS>BOND
     1    12    11    2
     2    12    10    1
     3    11     9    1
     4    10     8    2
     5     9     7    2
     6     8     7    1
     7     7     6    1
     8     5     4    1
     9     6     1    1
    10     1     2    1
    11     4     2    1
    12     2     3    2
