@<TRIPOS>MOLECULE
/home/cewinharhar/GITHUB/reincatalyze/data/processed/docking_pred/2023-May-05-1615_maxeplen10_maxtrainstep1000_seadep16_gamma099_lrac9e-4_lrcr1e-3/d7d9c72b52c2e0a01b4806f6bcc2a503b8c9528b_ligand_2.pdbqt
 12 12 0 0 0
SMALL
GASTEIGER

@<TRIPOS>ATOM
      1  C          5.0770   -0.1220    2.0350 C.3     1  UNL1        0.1270
      2  C          4.4060    1.1990    1.9740 C.2     1  UNL1        0.3030
      3  O          4.9360    2.1700    1.3800 O.2     1  UNL1       -0.2520
      4  O          3.1730    1.3970    2.5740 O.3     1  UNL1       -0.4810
      5  H          2.7260    2.3160    2.5070 H       1  UNL1        0.2960
      6  C          6.5320    0.0750    1.7370 C.3     1  UNL1        0.0470
      7  C          7.0150   -0.7010    0.5960 C.2     1  UNL1       -0.0470
      8  C          6.6570   -0.3610   -0.6880 C.2     1  UNL1        0.0040
      9  C          7.8380   -1.7800    0.8190 C.2     1  UNL1        0.0040
     10  C          7.1570   -1.1460   -1.7300 C.2     1  UNL1        0.0000
     11  C          8.3310   -2.5560   -0.2120 C.2     1  UNL1        0.0000
     12  C          7.9760   -2.2220   -1.5020 C.2     1  UNL1        0.0000
@<TRIPOS>BOND
     1    10    12    2
     2    10     8    1
     3    12    11    1
     4     8     7    2
     5    11     9    2
     6     7     9    1
     7     7     6    1
     8     3     2    2
     9     6     1    1
    10     2     1    1
    11     2     4    1
    12     5     4    1
