@<TRIPOS>MOLECULE
/home/cewinharhar/GITHUB/reincatalyze/data/processed/docking_pred/2023-May-05-1615_maxeplen10_maxtrainstep1000_seadep16_gamma099_lrac9e-4_lrcr1e-3/d98db6e7330c4682e6208573911aa9edae27e8f4_ligand_2.pdbqt
 12 12 0 0 0
SMALL
GASTEIGER

@<TRIPOS>ATOM
      1  C          8.3220   -0.6030   -2.1200 C.3     1  UNL1        0.1270
      2  C          8.3310   -1.8630   -2.9000 C.2     1  UNL1        0.3030
      3  O          7.2620   -2.4010   -3.2790 O.2     1  UNL1       -0.2520
      4  O          9.5250   -2.4840   -3.2320 O.3     1  UNL1       -0.4810
      5  H          9.5040   -3.4180   -3.6500 H       1  UNL1        0.2960
      6  C          6.9700   -0.4460   -1.4940 C.3     1  UNL1        0.0470
      7  C          6.8110    0.7860   -0.7230 C.2     1  UNL1       -0.0470
      8  C          7.8900    1.3700   -0.1000 C.2     1  UNL1        0.0040
      9  C          5.5650    1.3610   -0.6260 C.2     1  UNL1        0.0040
     10  C          7.6650    2.5460    0.6180 C.2     1  UNL1        0.0000
     11  C          5.3450    2.5240    0.0850 C.2     1  UNL1        0.0000
     12  C          6.4200    3.1150    0.7130 C.2     1  UNL1        0.0000
@<TRIPOS>BOND
     1     5     4    1
     2     3     2    2
     3     4     2    1
     4     2     1    1
     5     1     6    1
     6     6     7    1
     7     7     9    2
     8     7     8    1
     9     9    11    1
    10     8    10    2
    11    11    12    2
    12    10    12    1
