@<TRIPOS>MOLECULE
/home/cewinharhar/GITHUB/reincatalyze/data/processed/docking_pred/2023-May-05-1615_maxeplen10_maxtrainstep1000_seadep16_gamma099_lrac9e-4_lrcr1e-3/da55d276f49f8aea3f2b333b6115ea57fe53d1b0_ligand_2.pdbqt
 12 12 0 0 0
SMALL
GASTEIGER

@<TRIPOS>ATOM
      1  C          8.3990   -0.6430   -2.0930 C.3     1  UNL1        0.1270
      2  C          8.3700   -1.8980   -2.8800 C.2     1  UNL1        0.3030
      3  O          7.2840   -2.4080   -3.2510 O.2     1  UNL1       -0.2520
      4  O          9.5450   -2.5450   -3.2290 O.3     1  UNL1       -0.4810
      5  H          9.6920   -3.5130   -2.9300 H       1  UNL1        0.2960
      6  C          7.0180   -0.0630   -2.0800 C.3     1  UNL1        0.0470
      7  C          6.4550    0.1030   -0.7410 C.2     1  UNL1       -0.0470
      8  C          5.7980    1.2610   -0.3930 C.2     1  UNL1        0.0040
      9  C          6.5870   -0.9160    0.1730 C.2     1  UNL1        0.0040
     10  C          5.2850    1.3500    0.9030 C.2     1  UNL1        0.0000
     11  C          6.0790   -0.8260    1.4540 C.2     1  UNL1        0.0000
     12  C          5.4200    0.3300    1.8110 C.2     1  UNL1        0.0000
@<TRIPOS>BOND
     1     3     2    2
     2     4     5    1
     3     4     2    1
     4     2     1    1
     5     1     6    1
     6     6     7    1
     7     7     8    2
     8     7     9    1
     9     8    10    1
    10     9    11    2
    11    10    12    2
    12    11    12    1
