@<TRIPOS>MOLECULE
/home/cewinharhar/GITHUB/reincatalyze/data/processed/docking_pred/2023-May-05-1615_maxeplen10_maxtrainstep1000_seadep16_gamma099_lrac9e-4_lrcr1e-3/da55d276f49f8aea3f2b333b6115ea57fe53d1b0_ligand_2.pdbqt
 12 12 0 0 0
SMALL
GASTEIGER

@<TRIPOS>ATOM
      1  C          7.2530   -1.2450   -2.1910 C.3     1  UNL1        0.1270
      2  C          8.6920   -1.2990   -2.5420 C.2     1  UNL1        0.3030
      3  O          9.4970   -0.4310   -2.1220 O.2     1  UNL1       -0.2520
      4  O          9.1890   -2.3130   -3.3450 O.3     1  UNL1       -0.4810
      5  H          9.9520   -2.1070   -3.9960 H       1  UNL1        0.2960
      6  C          7.1280   -1.3330   -0.7010 C.3     1  UNL1        0.0470
      7  C          6.3800   -0.2290   -0.1010 C.2     1  UNL1       -0.0470
      8  C          5.9540   -0.2970    1.2050 C.2     1  UNL1        0.0040
      9  C          6.1050    0.8860   -0.8580 C.2     1  UNL1        0.0040
     10  C          5.2450    0.7950    1.7130 C.2     1  UNL1        0.0000
     11  C          5.4040    1.9630   -0.3550 C.2     1  UNL1        0.0000
     12  C          4.9730    1.9040    0.9520 C.2     1  UNL1        0.0000
@<TRIPOS>BOND
     1     5     4    1
     2     4     2    1
     3     2     1    1
     4     2     3    2
     5     1     6    1
     6     9    11    1
     7     9     7    2
     8     6     7    1
     9    11    12    2
    10     7     8    1
    11    12    10    1
    12     8    10    2
