@<TRIPOS>MOLECULE
/home/cewinharhar/GITHUB/reincatalyze/data/processed/docking_pred/2023-May-05-1615_maxeplen10_maxtrainstep1000_seadep16_gamma099_lrac9e-4_lrcr1e-3/db02e8dbba2ca978bde564db4603195d7659b46f_ligand_2.pdbqt
 12 12 0 0 0
SMALL
GASTEIGER

@<TRIPOS>ATOM
      1  C          8.4540   -0.6660   -2.0780 C.3     1  UNL1        0.1270
      2  C          8.4660   -1.9110   -2.8810 C.2     1  UNL1        0.3030
      3  O          9.5320   -2.5400   -3.0920 O.2     1  UNL1       -0.2520
      4  O          7.2950   -2.4170   -3.4240 O.3     1  UNL1       -0.4810
      5  H          6.6410   -1.7800   -3.8860 H       1  UNL1        0.2960
      6  C          7.0620   -0.1130   -2.0870 C.3     1  UNL1        0.0470
      7  C          6.4840    0.0640   -0.7560 C.2     1  UNL1       -0.0470
      8  C          5.8380    1.2310   -0.4190 C.2     1  UNL1        0.0040
      9  C          6.5910   -0.9540    0.1640 C.2     1  UNL1        0.0040
     10  C          5.3090    1.3310    0.8700 C.2     1  UNL1        0.0000
     11  C          6.0680   -0.8530    1.4380 C.2     1  UNL1        0.0000
     12  C          5.4200    0.3130    1.7830 C.2     1  UNL1        0.0000
@<TRIPOS>BOND
     1     5     4    1
     2     4     2    1
     3     3     2    2
     4     2     1    1
     5     6     1    1
     6     6     7    1
     7     7     8    2
     8     7     9    1
     9     8    10    1
    10     9    11    2
    11    10    12    2
    12    11    12    1
