@<TRIPOS>MOLECULE
/home/cewinharhar/GITHUB/reincatalyze/data/processed/docking_pred/2023-May-05-1615_maxeplen10_maxtrainstep1000_seadep16_gamma099_lrac9e-4_lrcr1e-3/db57195a81496af8cffcd6b4d9524a1fe0637e4f_ligand_2.pdbqt
 12 12 0 0 0
SMALL
GASTEIGER

@<TRIPOS>ATOM
      1  C          8.3080   -0.5750   -2.1660 C.3     1  UNL1        0.1270
      2  C          8.3270   -1.8520   -2.9160 C.2     1  UNL1        0.3030
      3  O          7.2620   -2.4070   -3.2840 O.2     1  UNL1       -0.2520
      4  O          9.5250   -2.4720   -3.2320 O.3     1  UNL1       -0.4810
      5  H          9.8870   -2.4040   -4.1870 H       1  UNL1        0.2960
      6  C          6.9540   -0.4140   -1.5430 C.3     1  UNL1        0.0470
      7  C          6.8090    0.8000   -0.7410 C.2     1  UNL1       -0.0470
      8  C          7.8950    1.3610   -0.1120 C.2     1  UNL1        0.0040
      9  C          5.5670    1.3810   -0.6220 C.2     1  UNL1        0.0040
     10  C          7.6830    2.5210    0.6370 C.2     1  UNL1        0.0000
     11  C          5.3590    2.5270    0.1190 C.2     1  UNL1        0.0000
     12  C          6.4420    3.0960    0.7530 C.2     1  UNL1        0.0000
@<TRIPOS>BOND
     1     5     4    1
     2     3     2    2
     3     4     2    1
     4     2     1    1
     5     1     6    1
     6     6     7    1
     7     7     9    2
     8     7     8    1
     9     9    11    1
    10     8    10    2
    11    11    12    2
    12    10    12    1
