@<TRIPOS>MOLECULE
/home/cewinharhar/GITHUB/reincatalyze/data/processed/docking_pred/2023-May-05-1615_maxeplen10_maxtrainstep1000_seadep16_gamma099_lrac9e-4_lrcr1e-3/db57195a81496af8cffcd6b4d9524a1fe0637e4f_ligand_2.pdbqt
 12 12 0 0 0
SMALL
GASTEIGER

@<TRIPOS>ATOM
      1  C          8.4050   -0.6630   -2.0680 C.3     1  UNL1        0.1270
      2  C          8.3740   -1.9060   -2.8750 C.2     1  UNL1        0.3030
      3  O          7.2880   -2.4110   -3.2510 O.2     1  UNL1       -0.2520
      4  O          9.5480   -2.5480   -3.2350 O.3     1  UNL1       -0.4810
      5  H          9.9000   -2.4480   -4.1920 H       1  UNL1        0.2960
      6  C          7.0300   -0.0690   -2.0660 C.3     1  UNL1        0.0470
      7  C          6.4580    0.1000   -0.7310 C.2     1  UNL1       -0.0470
      8  C          5.8030    1.2610   -0.3880 C.2     1  UNL1        0.0040
      9  C          6.5790   -0.9190    0.1850 C.2     1  UNL1        0.0040
     10  C          5.2810    1.3530    0.9040 C.2     1  UNL1        0.0000
     11  C          6.0620   -0.8260    1.4620 C.2     1  UNL1        0.0000
     12  C          5.4060    0.3340    1.8140 C.2     1  UNL1        0.0000
@<TRIPOS>BOND
     1     5     4    1
     2     3     2    2
     3     4     2    1
     4     2     1    1
     5     1     6    1
     6     6     7    1
     7     7     8    2
     8     7     9    1
     9     8    10    1
    10     9    11    2
    11    10    12    2
    12    11    12    1
