MODEL 1
REMARK VINA RESULT:      -7.2      0.000      0.000
REMARK SMILES O=C(O)CCc1ccccc1
REMARK SMILES IDX 4 1 2 2 1 3 3 4 5 6 6 7 7 8 11 9 8 10 10 11 9 12
REMARK H PARENT 3 5
REMARK Flexibility Score: inf
ROOT
ATOM      1  C   UNL     1       8.428  -0.674  -2.031  1.00  0.00     0.127 C 
ENDROOT
BRANCH   1   2
ATOM      2  C   UNL     1       8.379  -1.906  -2.855  1.00  0.00     0.303 C 
ATOM      3  O   UNL     1       7.285  -2.398  -3.225  1.00  0.00    -0.252 OA
BRANCH   2   4
ATOM      4  O   UNL     1       9.545  -2.550  -3.238  1.00  0.00    -0.481 OA
ATOM      5  H   UNL     1      10.431  -2.284  -2.801  1.00  0.00     0.296 HD
ENDBRANCH   2   4
ENDBRANCH   1   2
BRANCH   1   6
ATOM      6  C   UNL     1       7.068  -0.046  -2.043  1.00  0.00     0.047 C 
BRANCH   6   7
ATOM      7  C   UNL     1       6.450   0.059  -0.723  1.00  0.00    -0.047 A 
ATOM      8  C   UNL     1       6.528  -0.980   0.175  1.00  0.00     0.004 A 
ATOM      9  C   UNL     1       5.787   1.216  -0.382  1.00  0.00     0.004 A 
ATOM     10  C   UNL     1       5.915  -0.810   1.419  1.00  0.00     0.000 A 
ATOM     11  C   UNL     1       5.182   1.382   0.848  1.00  0.00     0.000 A 
ATOM     12  C   UNL     1       5.255   0.345   1.753  1.00  0.00     0.000 A 
ENDBRANCH   6   7
ENDBRANCH   1   6
TORSDOF 4
ENDMDL
