@<TRIPOS>MOLECULE
/home/cewinharhar/GITHUB/reincatalyze/data/processed/docking_pred/2023-May-05-1615_maxeplen10_maxtrainstep1000_seadep16_gamma099_lrac9e-4_lrcr1e-3/db6d960fae65c9d90f474a1e8ae318b6f28ec3f2_ligand_2.pdbqt
 12 12 0 0 0
SMALL
GASTEIGER

@<TRIPOS>ATOM
      1  C          8.4280   -0.6740   -2.0310 C.3     1  UNL1        0.1270
      2  C          8.3790   -1.9060   -2.8550 C.2     1  UNL1        0.3030
      3  O          7.2850   -2.3980   -3.2250 O.2     1  UNL1       -0.2520
      4  O          9.5450   -2.5500   -3.2380 O.3     1  UNL1       -0.4810
      5  H         10.4310   -2.2840   -2.8010 H       1  UNL1        0.2960
      6  C          7.0680   -0.0460   -2.0430 C.3     1  UNL1        0.0470
      7  C          6.4500    0.0590   -0.7230 C.2     1  UNL1       -0.0470
      8  C          6.5280   -0.9800    0.1750 C.2     1  UNL1        0.0040
      9  C          5.7870    1.2160   -0.3820 C.2     1  UNL1        0.0040
     10  C          5.9150   -0.8100    1.4190 C.2     1  UNL1        0.0000
     11  C          5.1820    1.3820    0.8480 C.2     1  UNL1        0.0000
     12  C          5.2550    0.3450    1.7530 C.2     1  UNL1        0.0000
@<TRIPOS>BOND
     1     4     2    1
     2     4     5    1
     3     3     2    2
     4     2     1    1
     5     6     1    1
     6     6     7    1
     7     7     9    2
     8     7     8    1
     9     9    11    1
    10     8    10    2
    11    11    12    2
    12    10    12    1
