@<TRIPOS>MOLECULE
/home/cewinharhar/GITHUB/reincatalyze/data/processed/docking_pred/2023-May-05-1615_maxeplen10_maxtrainstep1000_seadep16_gamma099_lrac9e-4_lrcr1e-3/db6d960fae65c9d90f474a1e8ae318b6f28ec3f2_ligand_2.pdbqt
 12 12 0 0 0
SMALL
GASTEIGER

@<TRIPOS>ATOM
      1  C          7.2490   -1.2230   -2.1990 C.3     1  UNL1        0.1270
      2  C          8.6880   -1.2900   -2.5450 C.2     1  UNL1        0.3030
      3  O          9.5000   -0.4300   -2.1220 O.2     1  UNL1       -0.2520
      4  O          9.1790   -2.3070   -3.3480 O.3     1  UNL1       -0.4810
      5  H          8.6330   -2.6120   -4.1590 H       1  UNL1        0.2960
      6  C          7.1170   -1.3290   -0.7110 C.3     1  UNL1        0.0470
      7  C          6.3700   -0.2310   -0.1000 C.2     1  UNL1       -0.0470
      8  C          5.9440   -0.3110    1.2060 C.2     1  UNL1        0.0040
      9  C          6.0950    0.8910   -0.8460 C.2     1  UNL1        0.0040
     10  C          5.2360    0.7760    1.7240 C.2     1  UNL1        0.0000
     11  C          5.3950    1.9640   -0.3330 C.2     1  UNL1        0.0000
     12  C          4.9640    1.8920    0.9750 C.2     1  UNL1        0.0000
@<TRIPOS>BOND
     1     5     4    1
     2     4     2    1
     3     2     1    1
     4     2     3    2
     5     1     6    1
     6     9    11    1
     7     9     7    2
     8     6     7    1
     9    11    12    2
    10     7     8    1
    11    12    10    1
    12     8    10    2
