@<TRIPOS>MOLECULE
/home/cewinharhar/GITHUB/reincatalyze/data/processed/docking_pred/2023-May-05-1615_maxeplen10_maxtrainstep1000_seadep16_gamma099_lrac9e-4_lrcr1e-3/dba3942d2f0306a5a819952336ad453bb769fd78_ligand_2.pdbqt
 12 12 0 0 0
SMALL
GASTEIGER

@<TRIPOS>ATOM
      1  C          8.4020   -0.6600   -2.0710 C.3     1  UNL1        0.1270
      2  C          8.3710   -1.9060   -2.8730 C.2     1  UNL1        0.3030
      3  O          7.2850   -2.4090   -3.2540 O.2     1  UNL1       -0.2520
      4  O          9.5450   -2.5510   -3.2270 O.3     1  UNL1       -0.4810
      5  H          9.6430   -3.5520   -3.0380 H       1  UNL1        0.2960
      6  C          7.0240   -0.0700   -2.0650 C.3     1  UNL1        0.0470
      7  C          6.4560    0.1010   -0.7290 C.2     1  UNL1       -0.0470
      8  C          5.8020    1.2620   -0.3870 C.2     1  UNL1        0.0040
      9  C          6.5800   -0.9160    0.1890 C.2     1  UNL1        0.0040
     10  C          5.2840    1.3560    0.9070 C.2     1  UNL1        0.0000
     11  C          6.0670   -0.8210    1.4670 C.2     1  UNL1        0.0000
     12  C          5.4110    0.3390    1.8180 C.2     1  UNL1        0.0000
@<TRIPOS>BOND
     1     3     2    2
     2     4     5    1
     3     4     2    1
     4     2     1    1
     5     1     6    1
     6     6     7    1
     7     7     8    2
     8     7     9    1
     9     8    10    1
    10     9    11    2
    11    10    12    2
    12    11    12    1
