MODEL 1
REMARK VINA RESULT:      -6.5      0.000      0.000
REMARK SMILES O=C(O)CCc1ccccc1
REMARK SMILES IDX 4 1 2 2 1 3 3 4 5 6 6 7 7 8 11 9 8 10 10 11 9 12
REMARK H PARENT 3 5
REMARK Flexibility Score: inf
ROOT
ATOM      1  C   UNL     1       8.314  -0.689  -2.165  1.00  0.00     0.127 C 
ENDROOT
BRANCH   1   2
ATOM      2  C   UNL     1       8.435  -1.952  -2.930  1.00  0.00     0.303 C 
ATOM      3  O   UNL     1       9.551  -2.502  -3.105  1.00  0.00    -0.252 OA
BRANCH   2   4
ATOM      4  O   UNL     1       7.317  -2.561  -3.477  1.00  0.00    -0.481 OA
ATOM      5  H   UNL     1       7.091  -3.523  -3.211  1.00  0.00     0.296 HD
ENDBRANCH   2   4
ENDBRANCH   1   2
BRANCH   1   6
ATOM      6  C   UNL     1       6.888  -0.536  -1.732  1.00  0.00     0.047 C 
BRANCH   6   7
ATOM      7  C   UNL     1       6.682  -0.698  -0.294  1.00  0.00    -0.047 A 
ATOM      8  C   UNL     1       7.284  -1.728   0.391  1.00  0.00     0.004 A 
ATOM      9  C   UNL     1       5.876   0.195   0.374  1.00  0.00     0.004 A 
ATOM     10  C   UNL     1       7.044  -1.822   1.764  1.00  0.00     0.000 A 
ATOM     11  C   UNL     1       5.640   0.101   1.731  1.00  0.00     0.000 A 
ATOM     12  C   UNL     1       6.239  -0.929   2.424  1.00  0.00     0.000 A 
ENDBRANCH   6   7
ENDBRANCH   1   6
TORSDOF 4
ENDMDL
MODEL 2
REMARK VINA RESULT:      -6.3      3.196      4.945
REMARK SMILES O=C(O)CCc1ccccc1
REMARK SMILES IDX 4 1 2 2 1 3 3 4 5 6 6 7 7 8 11 9 8 10 10 11 9 12
REMARK H PARENT 3 5
REMARK Flexibility Score: inf
ROOT
ATOM      1  C   UNL     1       5.943  -0.881   1.779  1.00  0.00     0.127 C 
ENDROOT
BRANCH   1   2
ATOM      2  C   UNL     1       5.381   0.463   2.049  1.00  0.00     0.303 C 
ATOM      3  O   UNL     1       4.200   0.606   2.452  1.00  0.00    -0.252 OA
BRANCH   2   4
ATOM      4  O   UNL     1       6.147   1.603   1.864  1.00  0.00    -0.481 OA
ATOM      5  H   UNL     1       6.665   1.993   2.657  1.00  0.00     0.296 HD
ENDBRANCH   2   4
ENDBRANCH   1   2
BRANCH   1   6
ATOM      6  C   UNL     1       7.405  -0.730   1.486  1.00  0.00     0.047 C 
BRANCH   6   7
ATOM      7  C   UNL     1       7.719  -0.635   0.061  1.00  0.00    -0.047 A 
ATOM      8  C   UNL     1       8.866  -0.007  -0.366  1.00  0.00     0.004 A 
ATOM      9  C   UNL     1       6.853  -1.185  -0.855  1.00  0.00     0.004 A 
ATOM     10  C   UNL     1       9.103   0.045  -1.741  1.00  0.00     0.000 A 
ATOM     11  C   UNL     1       7.088  -1.132  -2.215  1.00  0.00     0.000 A 
ATOM     12  C   UNL     1       8.235  -0.504  -2.651  1.00  0.00     0.000 A 
ENDBRANCH   6   7
ENDBRANCH   1   6
TORSDOF 4
ENDMDL
MODEL 3
REMARK VINA RESULT:      -6.1      3.449      5.104
REMARK SMILES O=C(O)CCc1ccccc1
REMARK SMILES IDX 4 1 2 2 1 3 3 4 5 6 6 7 7 8 11 9 8 10 10 11 9 12
REMARK H PARENT 3 5
REMARK Flexibility Score: inf
ROOT
ATOM      1  C   UNL     1       5.107  -0.131   2.047  1.00  0.00     0.127 C 
ENDROOT
BRANCH   1   2
ATOM      2  C   UNL     1       4.424   1.182   1.972  1.00  0.00     0.303 C 
ATOM      3  O   UNL     1       4.940   2.151   1.362  1.00  0.00    -0.252 OA
BRANCH   2   4
ATOM      4  O   UNL     1       3.192   1.377   2.576  1.00  0.00    -0.481 OA
ATOM      5  H   UNL     1       2.735   2.290   2.500  1.00  0.00     0.296 HD
ENDBRANCH   2   4
ENDBRANCH   1   2
BRANCH   1   6
ATOM      6  C   UNL     1       6.555   0.073   1.722  1.00  0.00     0.047 C 
BRANCH   6   7
ATOM      7  C   UNL     1       7.019  -0.696   0.568  1.00  0.00    -0.047 A 
ATOM      8  C   UNL     1       6.627  -0.358  -0.706  1.00  0.00     0.004 A 
ATOM      9  C   UNL     1       7.859  -1.767   0.769  1.00  0.00     0.004 A 
ATOM     10  C   UNL     1       7.110  -1.136  -1.761  1.00  0.00     0.000 A 
ATOM     11  C   UNL     1       8.335  -2.536  -0.275  1.00  0.00     0.000 A 
ATOM     12  C   UNL     1       7.946  -2.204  -1.555  1.00  0.00     0.000 A 
ENDBRANCH   6   7
ENDBRANCH   1   6
TORSDOF 4
ENDMDL
