@<TRIPOS>MOLECULE
/home/cewinharhar/GITHUB/reincatalyze/data/processed/docking_pred/2023-May-05-1615_maxeplen10_maxtrainstep1000_seadep16_gamma099_lrac9e-4_lrcr1e-3/dca47ac415302ce9f1313af6aebf6be1e2794cfe_ligand_2.pdbqt
 12 12 0 0 0
SMALL
GASTEIGER

@<TRIPOS>ATOM
      1  C          8.3140   -0.6890   -2.1650 C.3     1  UNL1        0.1270
      2  C          8.4350   -1.9520   -2.9300 C.2     1  UNL1        0.3030
      3  O          9.5510   -2.5020   -3.1050 O.2     1  UNL1       -0.2520
      4  O          7.3170   -2.5610   -3.4770 O.3     1  UNL1       -0.4810
      5  H          7.0910   -3.5230   -3.2110 H       1  UNL1        0.2960
      6  C          6.8880   -0.5360   -1.7320 C.3     1  UNL1        0.0470
      7  C          6.6820   -0.6980   -0.2940 C.2     1  UNL1       -0.0470
      8  C          7.2840   -1.7280    0.3910 C.2     1  UNL1        0.0040
      9  C          5.8760    0.1950    0.3740 C.2     1  UNL1        0.0040
     10  C          7.0440   -1.8220    1.7640 C.2     1  UNL1        0.0000
     11  C          5.6400    0.1010    1.7310 C.2     1  UNL1        0.0000
     12  C          6.2390   -0.9290    2.4240 C.2     1  UNL1        0.0000
@<TRIPOS>BOND
     1     4     5    1
     2     4     2    1
     3     3     2    2
     4     2     1    1
     5     1     6    1
     6     6     7    1
     7     7     9    2
     8     7     8    1
     9     9    11    1
    10     8    10    2
    11    11    12    2
    12    10    12    1
