@<TRIPOS>MOLECULE
/home/cewinharhar/GITHUB/reincatalyze/data/processed/docking_pred/2023-May-05-1615_maxeplen10_maxtrainstep1000_seadep16_gamma099_lrac9e-4_lrcr1e-3/dca47ac415302ce9f1313af6aebf6be1e2794cfe_ligand_2.pdbqt
 12 12 0 0 0
SMALL
GASTEIGER

@<TRIPOS>ATOM
      1  C          5.1070   -0.1310    2.0470 C.3     1  UNL1        0.1270
      2  C          4.4240    1.1820    1.9720 C.2     1  UNL1        0.3030
      3  O          4.9400    2.1510    1.3620 O.2     1  UNL1       -0.2520
      4  O          3.1920    1.3770    2.5760 O.3     1  UNL1       -0.4810
      5  H          2.7350    2.2900    2.5000 H       1  UNL1        0.2960
      6  C          6.5550    0.0730    1.7220 C.3     1  UNL1        0.0470
      7  C          7.0190   -0.6960    0.5680 C.2     1  UNL1       -0.0470
      8  C          6.6270   -0.3580   -0.7060 C.2     1  UNL1        0.0040
      9  C          7.8590   -1.7670    0.7690 C.2     1  UNL1        0.0040
     10  C          7.1100   -1.1360   -1.7610 C.2     1  UNL1        0.0000
     11  C          8.3350   -2.5360   -0.2750 C.2     1  UNL1        0.0000
     12  C          7.9460   -2.2040   -1.5550 C.2     1  UNL1        0.0000
@<TRIPOS>BOND
     1    10    12    2
     2    10     8    1
     3    12    11    1
     4     8     7    2
     5    11     9    2
     6     7     9    1
     7     7     6    1
     8     3     2    2
     9     6     1    1
    10     2     1    1
    11     2     4    1
    12     5     4    1
