MODEL 1
REMARK VINA RESULT:      -7.3      0.000      0.000
REMARK SMILES O=C(O)CCc1ccccc1
REMARK SMILES IDX 4 1 2 2 1 3 3 4 5 6 6 7 7 8 11 9 8 10 10 11 9 12
REMARK H PARENT 3 5
REMARK Flexibility Score: inf
ROOT
ATOM      1  C   UNL     1       8.406  -0.660  -2.069  1.00  0.00     0.127 C 
ENDROOT
BRANCH   1   2
ATOM      2  C   UNL     1       8.375  -1.900  -2.881  1.00  0.00     0.303 C 
ATOM      3  O   UNL     1       7.288  -2.412  -3.246  1.00  0.00    -0.252 OA
BRANCH   2   4
ATOM      4  O   UNL     1       9.549  -2.530  -3.260  1.00  0.00    -0.481 OA
ATOM      5  H   UNL     1      10.107  -2.134  -4.021  1.00  0.00     0.296 HD
ENDBRANCH   2   4
ENDBRANCH   1   2
BRANCH   1   6
ATOM      6  C   UNL     1       7.031  -0.065  -2.067  1.00  0.00     0.047 C 
BRANCH   6   7
ATOM      7  C   UNL     1       6.458   0.103  -0.732  1.00  0.00    -0.047 A 
ATOM      8  C   UNL     1       5.806   1.264  -0.388  1.00  0.00     0.004 A 
ATOM      9  C   UNL     1       6.575  -0.918   0.182  1.00  0.00     0.004 A 
ATOM     10  C   UNL     1       5.283   1.355   0.904  1.00  0.00     0.000 A 
ATOM     11  C   UNL     1       6.058  -0.827   1.459  1.00  0.00     0.000 A 
ATOM     12  C   UNL     1       5.404   0.334   1.812  1.00  0.00     0.000 A 
ENDBRANCH   6   7
ENDBRANCH   1   6
TORSDOF 4
ENDMDL
