@<TRIPOS>MOLECULE
/home/cewinharhar/GITHUB/reincatalyze/data/processed/docking_pred/2023-May-05-1615_maxeplen10_maxtrainstep1000_seadep16_gamma099_lrac9e-4_lrcr1e-3/dcca543849eb83a4cf97fda16a0578d2b97a91da_ligand_2.pdbqt
 12 12 0 0 0
SMALL
GASTEIGER

@<TRIPOS>ATOM
      1  C          8.4060   -0.6600   -2.0690 C.3     1  UNL1        0.1270
      2  C          8.3750   -1.9000   -2.8810 C.2     1  UNL1        0.3030
      3  O          7.2880   -2.4120   -3.2460 O.2     1  UNL1       -0.2520
      4  O          9.5490   -2.5300   -3.2600 O.3     1  UNL1       -0.4810
      5  H         10.1070   -2.1340   -4.0210 H       1  UNL1        0.2960
      6  C          7.0310   -0.0650   -2.0670 C.3     1  UNL1        0.0470
      7  C          6.4580    0.1030   -0.7320 C.2     1  UNL1       -0.0470
      8  C          5.8060    1.2640   -0.3880 C.2     1  UNL1        0.0040
      9  C          6.5750   -0.9180    0.1820 C.2     1  UNL1        0.0040
     10  C          5.2830    1.3550    0.9040 C.2     1  UNL1        0.0000
     11  C          6.0580   -0.8270    1.4590 C.2     1  UNL1        0.0000
     12  C          5.4040    0.3340    1.8120 C.2     1  UNL1        0.0000
@<TRIPOS>BOND
     1     5     4    1
     2     4     2    1
     3     3     2    2
     4     2     1    1
     5     1     6    1
     6     6     7    1
     7     7     8    2
     8     7     9    1
     9     8    10    1
    10     9    11    2
    11    10    12    2
    12    11    12    1
