@<TRIPOS>MOLECULE
/home/cewinharhar/GITHUB/reincatalyze/data/processed/docking_pred/2023-May-05-1615_maxeplen10_maxtrainstep1000_seadep16_gamma099_lrac9e-4_lrcr1e-3/de552809cd3cf8423e47c41d2ed627091c55f56d_ligand_2.pdbqt
 12 12 0 0 0
SMALL
GASTEIGER

@<TRIPOS>ATOM
      1  C          5.0150    1.7720    0.6530 C.3     1  UNL1        0.1270
      2  C          4.5650    1.1120    1.9010 C.2     1  UNL1        0.3030
      3  O          3.4430    1.3660    2.4040 O.2     1  UNL1       -0.2520
      4  O          5.3740    0.1920    2.5500 O.3     1  UNL1       -0.4810
      5  H          5.4020   -0.7740    2.2140 H       1  UNL1        0.2960
      6  C          6.5120    1.8460    0.6730 C.3     1  UNL1        0.0470
      7  C          7.1600    1.0610   -0.3750 C.2     1  UNL1       -0.0470
      8  C          8.4930    1.2400   -0.6660 C.2     1  UNL1        0.0040
      9  C          6.4220    0.1330   -1.0730 C.2     1  UNL1        0.0040
     10  C          9.0470    0.4550   -1.6790 C.2     1  UNL1        0.0000
     11  C          6.9720   -0.6430   -2.0740 C.2     1  UNL1        0.0000
     12  C          8.3060   -0.4690   -2.3720 C.2     1  UNL1        0.0000
@<TRIPOS>BOND
     1    12    11    2
     2    12    10    1
     3    11     9    1
     4    10     8    2
     5     9     7    2
     6     8     7    1
     7     7     6    1
     8     1     6    1
     9     1     2    1
    10     2     3    2
    11     2     4    1
    12     5     4    1
