@<TRIPOS>MOLECULE
/home/cewinharhar/GITHUB/reincatalyze/data/processed/docking_pred/2023-May-05-1615_maxeplen10_maxtrainstep1000_seadep16_gamma099_lrac9e-4_lrcr1e-3/df357a1c250a0cea862119ec51667dccc9d8d697_ligand_2.pdbqt
 12 12 0 0 0
SMALL
GASTEIGER

@<TRIPOS>ATOM
      1  C          8.4050   -0.6570   -2.0760 C.3     1  UNL1        0.1270
      2  C          8.3750   -1.9040   -2.8760 C.2     1  UNL1        0.3030
      3  O          7.2880   -2.4100   -3.2510 O.2     1  UNL1       -0.2520
      4  O          9.5490   -2.5480   -3.2330 O.3     1  UNL1       -0.4810
      5  H         10.2310   -2.0570   -3.8190 H       1  UNL1        0.2960
      6  C          7.0280   -0.0680   -2.0700 C.3     1  UNL1        0.0470
      7  C          6.4590    0.1000   -0.7340 C.2     1  UNL1       -0.0470
      8  C          5.8050    1.2600   -0.3890 C.2     1  UNL1        0.0040
      9  C          6.5810   -0.9200    0.1810 C.2     1  UNL1        0.0040
     10  C          5.2850    1.3500    0.9050 C.2     1  UNL1        0.0000
     11  C          6.0670   -0.8290    1.4590 C.2     1  UNL1        0.0000
     12  C          5.4110    0.3300    1.8130 C.2     1  UNL1        0.0000
@<TRIPOS>BOND
     1     5     4    1
     2     3     2    2
     3     4     2    1
     4     2     1    1
     5     1     6    1
     6     6     7    1
     7     7     8    2
     8     7     9    1
     9     8    10    1
    10     9    11    2
    11    10    12    2
    12    11    12    1
