@<TRIPOS>MOLECULE
/home/cewinharhar/GITHUB/reincatalyze/data/processed/docking_pred/2023-May-05-1615_maxeplen10_maxtrainstep1000_seadep16_gamma099_lrac9e-4_lrcr1e-3/e1ac879641feb84a16575019a922afe40680d27c_ligand_2.pdbqt
 12 12 0 0 0
SMALL
GASTEIGER

@<TRIPOS>ATOM
      1  C          5.0470    1.7710    0.6460 C.3     1  UNL1        0.1270
      2  C          4.5990    1.1110    1.8960 C.2     1  UNL1        0.3030
      3  O          3.4790    1.3680    2.4020 O.2     1  UNL1       -0.2520
      4  O          5.4080    0.1900    2.5410 O.3     1  UNL1       -0.4810
      5  H          5.1850   -0.8070    2.4720 H       1  UNL1        0.2960
      6  C          6.5430    1.8400    0.6600 C.3     1  UNL1        0.0470
      7  C          7.1850    1.0440   -0.3850 C.2     1  UNL1       -0.0470
      8  C          8.5170    1.2150   -0.6820 C.2     1  UNL1        0.0040
      9  C          6.4400    0.1130   -1.0720 C.2     1  UNL1        0.0040
     10  C          9.0640    0.4190   -1.6910 C.2     1  UNL1        0.0000
     11  C          6.9820   -0.6720   -2.0700 C.2     1  UNL1        0.0000
     12  C          8.3160   -0.5060   -2.3740 C.2     1  UNL1        0.0000
@<TRIPOS>BOND
     1    12    11    2
     2    12    10    1
     3    11     9    1
     4    10     8    2
     5     9     7    2
     6     8     7    1
     7     7     6    1
     8     1     6    1
     9     1     2    1
    10     2     3    2
    11     2     4    1
    12     5     4    1
