@<TRIPOS>MOLECULE
/home/cewinharhar/GITHUB/reincatalyze/data/processed/docking_pred/2023-May-05-1615_maxeplen10_maxtrainstep1000_seadep16_gamma099_lrac9e-4_lrcr1e-3/e1ac879641feb84a16575019a922afe40680d27c_ligand_2.pdbqt
 12 12 0 0 0
SMALL
GASTEIGER

@<TRIPOS>ATOM
      1  C          8.5670   -0.5990   -2.2680 C.3     1  UNL1        0.1270
      2  C          8.5570   -1.9130   -2.9530 C.2     1  UNL1        0.3030
      3  O          9.6160   -2.5640   -3.1290 O.2     1  UNL1       -0.2520
      4  O          7.3730   -2.4610   -3.4210 O.3     1  UNL1       -0.4810
      5  H          6.5080   -1.9190   -3.3500 H       1  UNL1        0.2960
      6  C          7.1540   -0.1090   -2.1680 C.3     1  UNL1        0.0470
      7  C          6.7420    0.2440   -0.8110 C.2     1  UNL1       -0.0470
      8  C          5.7580    1.1810   -0.5960 C.2     1  UNL1        0.0040
      9  C          7.3500   -0.3740    0.2570 C.2     1  UNL1        0.0040
     10  C          5.4150    1.4690    0.7270 C.2     1  UNL1        0.0000
     11  C          7.0090   -0.0880    1.5650 C.2     1  UNL1        0.0000
     12  C          6.0250    0.8500    1.7890 C.2     1  UNL1        0.0000
@<TRIPOS>BOND
     1     4     5    1
     2     4     2    1
     3     3     2    2
     4     2     1    1
     5     1     6    1
     6     6     7    1
     7     7     8    2
     8     7     9    1
     9     8    10    1
    10     9    11    2
    11    10    12    2
    12    11    12    1
