MODEL 1
REMARK VINA RESULT:      -7.2      0.000      0.000
REMARK SMILES O=C(O)CCc1ccccc1
REMARK SMILES IDX 4 1 2 2 1 3 3 4 5 6 6 7 7 8 11 9 8 10 10 11 9 12
REMARK H PARENT 3 5
REMARK Flexibility Score: inf
ROOT
ATOM      1  C   UNL     1       8.567  -0.599  -2.268  1.00  0.00     0.127 C 
ENDROOT
BRANCH   1   2
ATOM      2  C   UNL     1       8.557  -1.913  -2.953  1.00  0.00     0.303 C 
ATOM      3  O   UNL     1       9.616  -2.564  -3.129  1.00  0.00    -0.252 OA
BRANCH   2   4
ATOM      4  O   UNL     1       7.373  -2.461  -3.421  1.00  0.00    -0.481 OA
ATOM      5  H   UNL     1       6.508  -1.919  -3.350  1.00  0.00     0.296 HD
ENDBRANCH   2   4
ENDBRANCH   1   2
BRANCH   1   6
ATOM      6  C   UNL     1       7.154  -0.109  -2.168  1.00  0.00     0.047 C 
BRANCH   6   7
ATOM      7  C   UNL     1       6.742   0.244  -0.811  1.00  0.00    -0.047 A 
ATOM      8  C   UNL     1       5.758   1.181  -0.596  1.00  0.00     0.004 A 
ATOM      9  C   UNL     1       7.350  -0.374   0.257  1.00  0.00     0.004 A 
ATOM     10  C   UNL     1       5.415   1.469   0.727  1.00  0.00     0.000 A 
ATOM     11  C   UNL     1       7.009  -0.088   1.565  1.00  0.00     0.000 A 
ATOM     12  C   UNL     1       6.025   0.850   1.789  1.00  0.00     0.000 A 
ENDBRANCH   6   7
ENDBRANCH   1   6
TORSDOF 4
ENDMDL
MODEL 2
REMARK VINA RESULT:      -6.9      3.320      5.107
REMARK SMILES O=C(O)CCc1ccccc1
REMARK SMILES IDX 4 1 2 2 1 3 3 4 5 6 6 7 7 8 11 9 8 10 10 11 9 12
REMARK H PARENT 3 5
REMARK Flexibility Score: inf
ROOT
ATOM      1  C   UNL     1       5.047   1.771   0.646  1.00  0.00     0.127 C 
ENDROOT
BRANCH   1   2
ATOM      2  C   UNL     1       4.599   1.111   1.896  1.00  0.00     0.303 C 
ATOM      3  O   UNL     1       3.479   1.368   2.402  1.00  0.00    -0.252 OA
BRANCH   2   4
ATOM      4  O   UNL     1       5.408   0.190   2.541  1.00  0.00    -0.481 OA
ATOM      5  H   UNL     1       5.185  -0.807   2.472  1.00  0.00     0.296 HD
ENDBRANCH   2   4
ENDBRANCH   1   2
BRANCH   1   6
ATOM      6  C   UNL     1       6.543   1.840   0.660  1.00  0.00     0.047 C 
BRANCH   6   7
ATOM      7  C   UNL     1       7.185   1.044  -0.385  1.00  0.00    -0.047 A 
ATOM      8  C   UNL     1       8.517   1.215  -0.682  1.00  0.00     0.004 A 
ATOM      9  C   UNL     1       6.440   0.113  -1.072  1.00  0.00     0.004 A 
ATOM     10  C   UNL     1       9.064   0.419  -1.691  1.00  0.00     0.000 A 
ATOM     11  C   UNL     1       6.982  -0.672  -2.070  1.00  0.00     0.000 A 
ATOM     12  C   UNL     1       8.316  -0.506  -2.374  1.00  0.00     0.000 A 
ENDBRANCH   6   7
ENDBRANCH   1   6
TORSDOF 4
ENDMDL
