@<TRIPOS>MOLECULE
/home/cewinharhar/GITHUB/reincatalyze/data/processed/docking_pred/2023-May-05-1615_maxeplen10_maxtrainstep1000_seadep16_gamma099_lrac9e-4_lrcr1e-3/e3e0f9713a2c6d1770d60d03407d62bfa70f046f_ligand_2.pdbqt
 12 12 0 0 0
SMALL
GASTEIGER

@<TRIPOS>ATOM
      1  C          5.0470    1.7710    0.6450 C.3     1  UNL1        0.1270
      2  C          4.6020    1.1110    1.8950 C.2     1  UNL1        0.3030
      3  O          3.4830    1.3670    2.4030 O.2     1  UNL1       -0.2520
      4  O          5.4140    0.1910    2.5400 O.3     1  UNL1       -0.4810
      5  H          5.0350   -0.3490    3.3220 H       1  UNL1        0.2960
      6  C          6.5430    1.8430    0.6570 C.3     1  UNL1        0.0470
      7  C          7.1850    1.0460   -0.3870 C.2     1  UNL1       -0.0470
      8  C          8.5180    1.2160   -0.6820 C.2     1  UNL1        0.0040
      9  C          6.4410    0.1160   -1.0750 C.2     1  UNL1        0.0040
     10  C          9.0660    0.4190   -1.6900 C.2     1  UNL1        0.0000
     11  C          6.9840   -0.6710   -2.0720 C.2     1  UNL1        0.0000
     12  C          8.3180   -0.5060   -2.3740 C.2     1  UNL1        0.0000
@<TRIPOS>BOND
     1    12    11    2
     2    12    10    1
     3    11     9    1
     4    10     8    2
     5     9     7    2
     6     8     7    1
     7     7     6    1
     8     1     6    1
     9     1     2    1
    10     2     3    2
    11     2     4    1
    12     4     5    1
