@<TRIPOS>MOLECULE
/home/cewinharhar/GITHUB/reincatalyze/data/processed/docking_pred/2023-May-05-1615_maxeplen10_maxtrainstep1000_seadep16_gamma099_lrac9e-4_lrcr1e-3/e3e0f9713a2c6d1770d60d03407d62bfa70f046f_ligand_2.pdbqt
 12 12 0 0 0
SMALL
GASTEIGER

@<TRIPOS>ATOM
      1  C          8.5520   -0.5870   -2.2870 C.3     1  UNL1        0.1270
      2  C          8.5470   -1.9130   -2.9490 C.2     1  UNL1        0.3030
      3  O          9.6100   -2.5610   -3.1170 O.2     1  UNL1       -0.2520
      4  O          7.3650   -2.4770   -3.4010 O.3     1  UNL1       -0.4810
      5  H          6.5590   -1.8720   -3.5820 H       1  UNL1        0.2960
      6  C          7.1370   -0.1040   -2.1900 C.3     1  UNL1        0.0470
      7  C          6.7260    0.2650   -0.8370 C.2     1  UNL1       -0.0470
      8  C          5.7550    1.2170   -0.6310 C.2     1  UNL1        0.0040
      9  C          7.3220   -0.3540    0.2380 C.2     1  UNL1        0.0040
     10  C          5.4120    1.5190    0.6880 C.2     1  UNL1        0.0000
     11  C          6.9820   -0.0540    1.5420 C.2     1  UNL1        0.0000
     12  C          6.0100    0.8990    1.7560 C.2     1  UNL1        0.0000
@<TRIPOS>BOND
     1     5     4    1
     2     4     2    1
     3     3     2    2
     4     2     1    1
     5     1     6    1
     6     6     7    1
     7     7     8    2
     8     7     9    1
     9     8    10    1
    10     9    11    2
    11    10    12    2
    12    11    12    1
