MODEL 1
REMARK VINA RESULT:      -7.2      0.000      0.000
REMARK SMILES O=C(O)CCc1ccccc1
REMARK SMILES IDX 4 1 2 2 1 3 3 4 5 6 6 7 7 8 11 9 8 10 10 11 9 12
REMARK H PARENT 3 5
REMARK Flexibility Score: inf
ROOT
ATOM      1  C   UNL     1       8.552  -0.587  -2.287  1.00  0.00     0.127 C 
ENDROOT
BRANCH   1   2
ATOM      2  C   UNL     1       8.547  -1.913  -2.949  1.00  0.00     0.303 C 
ATOM      3  O   UNL     1       9.610  -2.561  -3.117  1.00  0.00    -0.252 OA
BRANCH   2   4
ATOM      4  O   UNL     1       7.365  -2.477  -3.401  1.00  0.00    -0.481 OA
ATOM      5  H   UNL     1       6.559  -1.872  -3.582  1.00  0.00     0.296 HD
ENDBRANCH   2   4
ENDBRANCH   1   2
BRANCH   1   6
ATOM      6  C   UNL     1       7.137  -0.104  -2.190  1.00  0.00     0.047 C 
BRANCH   6   7
ATOM      7  C   UNL     1       6.726   0.265  -0.837  1.00  0.00    -0.047 A 
ATOM      8  C   UNL     1       5.755   1.217  -0.631  1.00  0.00     0.004 A 
ATOM      9  C   UNL     1       7.322  -0.354   0.238  1.00  0.00     0.004 A 
ATOM     10  C   UNL     1       5.412   1.519   0.688  1.00  0.00     0.000 A 
ATOM     11  C   UNL     1       6.982  -0.054   1.542  1.00  0.00     0.000 A 
ATOM     12  C   UNL     1       6.010   0.899   1.756  1.00  0.00     0.000 A 
ENDBRANCH   6   7
ENDBRANCH   1   6
TORSDOF 4
ENDMDL
MODEL 2
REMARK VINA RESULT:      -6.9      3.313      5.098
REMARK SMILES O=C(O)CCc1ccccc1
REMARK SMILES IDX 4 1 2 2 1 3 3 4 5 6 6 7 7 8 11 9 8 10 10 11 9 12
REMARK H PARENT 3 5
REMARK Flexibility Score: inf
ROOT
ATOM      1  C   UNL     1       5.047   1.771   0.645  1.00  0.00     0.127 C 
ENDROOT
BRANCH   1   2
ATOM      2  C   UNL     1       4.602   1.111   1.895  1.00  0.00     0.303 C 
ATOM      3  O   UNL     1       3.483   1.367   2.403  1.00  0.00    -0.252 OA
BRANCH   2   4
ATOM      4  O   UNL     1       5.414   0.191   2.540  1.00  0.00    -0.481 OA
ATOM      5  H   UNL     1       5.035  -0.349   3.322  1.00  0.00     0.296 HD
ENDBRANCH   2   4
ENDBRANCH   1   2
BRANCH   1   6
ATOM      6  C   UNL     1       6.543   1.843   0.657  1.00  0.00     0.047 C 
BRANCH   6   7
ATOM      7  C   UNL     1       7.185   1.046  -0.387  1.00  0.00    -0.047 A 
ATOM      8  C   UNL     1       8.518   1.216  -0.682  1.00  0.00     0.004 A 
ATOM      9  C   UNL     1       6.441   0.116  -1.075  1.00  0.00     0.004 A 
ATOM     10  C   UNL     1       9.066   0.419  -1.690  1.00  0.00     0.000 A 
ATOM     11  C   UNL     1       6.984  -0.671  -2.072  1.00  0.00     0.000 A 
ATOM     12  C   UNL     1       8.318  -0.506  -2.374  1.00  0.00     0.000 A 
ENDBRANCH   6   7
ENDBRANCH   1   6
TORSDOF 4
ENDMDL
