MODEL 1
REMARK VINA RESULT:      -5.6      0.000      0.000
REMARK SMILES O=C(O)CCc1ccccc1
REMARK SMILES IDX 4 1 2 2 1 3 3 4 5 6 6 7 7 8 11 9 8 10 10 11 9 12
REMARK H PARENT 3 5
REMARK Flexibility Score: inf
ROOT
ATOM      1  C   UNL     1       6.278  -0.558   2.732  1.00  0.00     0.127 C 
ENDROOT
BRANCH   1   2
ATOM      2  C   UNL     1       7.091  -1.486   1.911  1.00  0.00     0.303 C 
ATOM      3  O   UNL     1       8.257  -1.186   1.552  1.00  0.00    -0.252 OA
BRANCH   2   4
ATOM      4  O   UNL     1       6.586  -2.714   1.516  1.00  0.00    -0.481 OA
ATOM      5  H   UNL     1       6.683  -3.520   2.139  1.00  0.00     0.296 HD
ENDBRANCH   2   4
ENDBRANCH   1   2
BRANCH   1   6
ATOM      6  C   UNL     1       5.196   0.012   1.865  1.00  0.00     0.047 C 
BRANCH   6   7
ATOM      7  C   UNL     1       5.515   1.322   1.301  1.00  0.00    -0.047 A 
ATOM      8  C   UNL     1       4.858   1.787   0.186  1.00  0.00     0.004 A 
ATOM      9  C   UNL     1       6.484   2.094   1.900  1.00  0.00     0.004 A 
ATOM     10  C   UNL     1       5.213   3.048  -0.298  1.00  0.00     0.000 A 
ATOM     11  C   UNL     1       6.835   3.340   1.420  1.00  0.00     0.000 A 
ATOM     12  C   UNL     1       6.181   3.812   0.303  1.00  0.00     0.000 A 
ENDBRANCH   6   7
ENDBRANCH   1   6
TORSDOF 4
ENDMDL
MODEL 2
REMARK VINA RESULT:      -3.7     11.818     14.296
REMARK SMILES O=C(O)CCc1ccccc1
REMARK SMILES IDX 4 1 2 2 1 3 3 4 5 6 6 7 7 8 11 9 8 10 10 11 9 12
REMARK H PARENT 3 5
REMARK Flexibility Score: inf
ROOT
ATOM      1  C   UNL     1       7.967  -6.367  10.971  1.00  0.00     0.127 C 
ENDROOT
BRANCH   1   2
ATOM      2  C   UNL     1       8.357  -4.956  11.203  1.00  0.00     0.303 C 
ATOM      3  O   UNL     1       9.426  -4.665  11.796  1.00  0.00    -0.252 OA
BRANCH   2   4
ATOM      4  O   UNL     1       7.551  -3.916  10.771  1.00  0.00    -0.481 OA
ATOM      5  H   UNL     1       7.504  -3.700   9.771  1.00  0.00     0.296 HD
ENDBRANCH   2   4
ENDBRANCH   1   2
BRANCH   1   6
ATOM      6  C   UNL     1       8.446  -7.184  12.132  1.00  0.00     0.047 C 
BRANCH   6   7
ATOM      7  C   UNL     1       9.326  -8.290  11.757  1.00  0.00    -0.047 A 
ATOM      8  C   UNL     1      10.237  -8.149  10.736  1.00  0.00     0.004 A 
ATOM      9  C   UNL     1       9.237  -9.480  12.441  1.00  0.00     0.004 A 
ATOM     10  C   UNL     1      11.047  -9.246  10.433  1.00  0.00     0.000 A 
ATOM     11  C   UNL     1      10.038 -10.564  12.140  1.00  0.00     0.000 A 
ATOM     12  C   UNL     1      10.953 -10.431  11.118  1.00  0.00     0.000 A 
ENDBRANCH   6   7
ENDBRANCH   1   6
TORSDOF 4
ENDMDL
MODEL 3
REMARK VINA RESULT:      -3.7     11.568     13.343
REMARK SMILES O=C(O)CCc1ccccc1
REMARK SMILES IDX 4 1 2 2 1 3 3 4 5 6 6 7 7 8 11 9 8 10 10 11 9 12
REMARK H PARENT 3 5
REMARK Flexibility Score: inf
ROOT
ATOM      1  C   UNL     1       8.039  -5.993  11.400  1.00  0.00     0.127 C 
ENDROOT
BRANCH   1   2
ATOM      2  C   UNL     1       7.939  -4.517  11.317  1.00  0.00     0.303 C 
ATOM      3  O   UNL     1       7.540  -3.950  10.270  1.00  0.00    -0.252 OA
BRANCH   2   4
ATOM      4  O   UNL     1       8.286  -3.720  12.396  1.00  0.00    -0.481 OA
ATOM      5  H   UNL     1       7.857  -3.898  13.309  1.00  0.00     0.296 HD
ENDBRANCH   2   4
ENDBRANCH   1   2
BRANCH   1   6
ATOM      6  C   UNL     1       8.822  -6.479  10.218  1.00  0.00     0.047 C 
BRANCH   6   7
ATOM      7  C   UNL     1      10.137  -7.020  10.557  1.00  0.00    -0.047 A 
ATOM      8  C   UNL     1      10.390  -8.368  10.457  1.00  0.00     0.004 A 
ATOM      9  C   UNL     1      11.127  -6.163  10.978  1.00  0.00     0.004 A 
ATOM     10  C   UNL     1      11.669  -8.815  10.796  1.00  0.00     0.000 A 
ATOM     11  C   UNL     1      12.391  -6.606  11.313  1.00  0.00     0.000 A 
ATOM     12  C   UNL     1      12.653  -7.955  11.216  1.00  0.00     0.000 A 
ENDBRANCH   6   7
ENDBRANCH   1   6
TORSDOF 4
ENDMDL
