@<TRIPOS>MOLECULE
/home/cewinharhar/GITHUB/reincatalyze/data/processed/docking_pred/2023-May-05-1615_maxeplen10_maxtrainstep1000_seadep16_gamma099_lrac9e-4_lrcr1e-3/e3e22a08cc3fa656d2264310e8071e645bf38a06_ligand_2.pdbqt
 12 12 0 0 0
SMALL
GASTEIGER

@<TRIPOS>ATOM
      1  C          6.2780   -0.5580    2.7320 C.3     1  UNL1        0.1270
      2  C          7.0910   -1.4860    1.9110 C.2     1  UNL1        0.3030
      3  O          8.2570   -1.1860    1.5520 O.2     1  UNL1       -0.2520
      4  O          6.5860   -2.7140    1.5160 O.3     1  UNL1       -0.4810
      5  H          6.6830   -3.5200    2.1390 H       1  UNL1        0.2960
      6  C          5.1960    0.0120    1.8650 C.3     1  UNL1        0.0470
      7  C          5.5150    1.3220    1.3010 C.2     1  UNL1       -0.0470
      8  C          4.8580    1.7870    0.1860 C.2     1  UNL1        0.0040
      9  C          6.4840    2.0940    1.9000 C.2     1  UNL1        0.0040
     10  C          5.2130    3.0480   -0.2980 C.2     1  UNL1        0.0000
     11  C          6.8350    3.3400    1.4200 C.2     1  UNL1        0.0000
     12  C          6.1810    3.8120    0.3030 C.2     1  UNL1        0.0000
@<TRIPOS>BOND
     1    10     8    1
     2    10    12    2
     3     8     7    2
     4    12    11    1
     5     7     6    1
     6     7     9    1
     7    11     9    2
     8     4     2    1
     9     4     5    1
    10     3     2    2
    11     6     1    1
    12     2     1    1
