@<TRIPOS>MOLECULE
/home/cewinharhar/GITHUB/reincatalyze/data/processed/docking_pred/2023-May-05-1615_maxeplen10_maxtrainstep1000_seadep16_gamma099_lrac9e-4_lrcr1e-3/e3e22a08cc3fa656d2264310e8071e645bf38a06_ligand_2.pdbqt
 12 12 0 0 0
SMALL
GASTEIGER

@<TRIPOS>ATOM
      1  C          7.9670   -6.3670   10.9710 C.3     1  UNL1        0.1270
      2  C          8.3570   -4.9560   11.2030 C.2     1  UNL1        0.3030
      3  O          9.4260   -4.6650   11.7960 O.2     1  UNL1       -0.2520
      4  O          7.5510   -3.9160   10.7710 O.3     1  UNL1       -0.4810
      5  H          7.5040   -3.7000    9.7710 H       1  UNL1        0.2960
      6  C          8.4460   -7.1840   12.1320 C.3     1  UNL1        0.0470
      7  C          9.3260   -8.2900   11.7570 C.2     1  UNL1       -0.0470
      8  C         10.2370   -8.1490   10.7360 C.2     1  UNL1        0.0040
      9  C          9.2370   -9.4800   12.4410 C.2     1  UNL1        0.0040
     10  C         11.0470   -9.2460   10.4330 C.2     1  UNL1        0.0000
     11  C         10.0380  -10.5640   12.1400 C.2     1  UNL1        0.0000
     12  C         10.9530  -10.4310   11.1180 C.2     1  UNL1        0.0000
@<TRIPOS>BOND
     1     5     4    1
     2    10     8    1
     3    10    12    2
     4     8     7    2
     5     4     2    1
     6     1     2    1
     7     1     6    1
     8    12    11    1
     9     2     3    2
    10     7     6    1
    11     7     9    1
    12    11     9    2
