@<TRIPOS>MOLECULE
/home/cewinharhar/GITHUB/reincatalyze/data/processed/docking_pred/2023-May-05-1615_maxeplen10_maxtrainstep1000_seadep16_gamma099_lrac9e-4_lrcr1e-3/e3e22a08cc3fa656d2264310e8071e645bf38a06_ligand_2.pdbqt
 12 12 0 0 0
SMALL
GASTEIGER

@<TRIPOS>ATOM
      1  C          8.0390   -5.9930   11.4000 C.3     1  UNL1        0.1270
      2  C          7.9390   -4.5170   11.3170 C.2     1  UNL1        0.3030
      3  O          7.5400   -3.9500   10.2700 O.2     1  UNL1       -0.2520
      4  O          8.2860   -3.7200   12.3960 O.3     1  UNL1       -0.4810
      5  H          7.8570   -3.8980   13.3090 H       1  UNL1        0.2960
      6  C          8.8220   -6.4790   10.2180 C.3     1  UNL1        0.0470
      7  C         10.1370   -7.0200   10.5570 C.2     1  UNL1       -0.0470
      8  C         10.3900   -8.3680   10.4570 C.2     1  UNL1        0.0040
      9  C         11.1270   -6.1630   10.9780 C.2     1  UNL1        0.0040
     10  C         11.6690   -8.8150   10.7960 C.2     1  UNL1        0.0000
     11  C         12.3910   -6.6060   11.3130 C.2     1  UNL1        0.0000
     12  C         12.6530   -7.9550   11.2160 C.2     1  UNL1        0.0000
@<TRIPOS>BOND
     1     6     7    1
     2     6     1    1
     3     3     2    2
     4     8     7    2
     5     8    10    1
     6     7     9    1
     7    10    12    2
     8     9    11    2
     9    12    11    1
    10     2     1    1
    11     2     4    1
    12     4     5    1
