@<TRIPOS>MOLECULE
/home/cewinharhar/GITHUB/reincatalyze/data/processed/docking_pred/2023-May-05-1615_maxeplen10_maxtrainstep1000_seadep16_gamma099_lrac9e-4_lrcr1e-3/e4036567ae6c7c824a0e93db279f74886267d276_ligand_2.pdbqt
 12 12 0 0 0
SMALL
GASTEIGER

@<TRIPOS>ATOM
      1  C          8.4040   -0.6600   -2.0720 C.3     1  UNL1        0.1270
      2  C          8.3740   -1.9040   -2.8780 C.2     1  UNL1        0.3030
      3  O          7.2880   -2.4120   -3.2500 O.2     1  UNL1       -0.2520
      4  O          9.5490   -2.5420   -3.2420 O.3     1  UNL1       -0.4810
      5  H         10.3870   -1.9830   -3.4240 H       1  UNL1        0.2960
      6  C          7.0270   -0.0690   -2.0680 C.3     1  UNL1        0.0470
      7  C          6.4560    0.0990   -0.7330 C.2     1  UNL1       -0.0470
      8  C          5.8020    1.2590   -0.3880 C.2     1  UNL1        0.0040
      9  C          6.5760   -0.9220    0.1810 C.2     1  UNL1        0.0040
     10  C          5.2810    1.3490    0.9040 C.2     1  UNL1        0.0000
     11  C          6.0600   -0.8310    1.4590 C.2     1  UNL1        0.0000
     12  C          5.4050    0.3280    1.8130 C.2     1  UNL1        0.0000
@<TRIPOS>BOND
     1     5     4    1
     2     3     2    2
     3     4     2    1
     4     2     1    1
     5     1     6    1
     6     6     7    1
     7     7     8    2
     8     7     9    1
     9     8    10    1
    10     9    11    2
    11    10    12    2
    12    11    12    1
