@<TRIPOS>MOLECULE
/home/cewinharhar/GITHUB/reincatalyze/data/processed/docking_pred/2023-May-05-1615_maxeplen10_maxtrainstep1000_seadep16_gamma099_lrac9e-4_lrcr1e-3/e69dee760b6a4f483691253cffcee702e9155e2b_ligand_2.pdbqt
 12 12 0 0 0
SMALL
GASTEIGER

@<TRIPOS>ATOM
      1  C          7.2610   -1.2470   -2.1810 C.3     1  UNL1        0.1270
      2  C          8.6990   -1.3020   -2.5360 C.2     1  UNL1        0.3030
      3  O          9.5070   -0.4370   -2.1140 O.2     1  UNL1       -0.2520
      4  O          9.1930   -2.3120   -3.3460 O.3     1  UNL1       -0.4810
      5  H          9.2590   -2.1570   -4.3550 H       1  UNL1        0.2960
      6  C          7.1410   -1.3280   -0.6900 C.3     1  UNL1        0.0470
      7  C          6.3880   -0.2250   -0.0940 C.2     1  UNL1       -0.0470
      8  C          5.9610   -0.2900    1.2120 C.2     1  UNL1        0.0040
      9  C          6.1110    0.8870   -0.8540 C.2     1  UNL1        0.0040
     10  C          5.2490    0.8000    1.7160 C.2     1  UNL1        0.0000
     11  C          5.4060    1.9640   -0.3550 C.2     1  UNL1        0.0000
     12  C          4.9740    1.9060    0.9530 C.2     1  UNL1        0.0000
@<TRIPOS>BOND
     1     5     4    1
     2     4     2    1
     3     2     1    1
     4     2     3    2
     5     1     6    1
     6     9    11    1
     7     9     7    2
     8     6     7    1
     9    11    12    2
    10     7     8    1
    11    12    10    1
    12     8    10    2
