@<TRIPOS>MOLECULE
/home/cewinharhar/GITHUB/reincatalyze/data/processed/docking_pred/2023-May-05-1615_maxeplen10_maxtrainstep1000_seadep16_gamma099_lrac9e-4_lrcr1e-3/e69dee760b6a4f483691253cffcee702e9155e2b_ligand_2.pdbqt
 12 12 0 0 0
SMALL
GASTEIGER

@<TRIPOS>ATOM
      1  C          8.4070   -0.6600   -2.0720 C.3     1  UNL1        0.1270
      2  C          8.3760   -1.9040   -2.8760 C.2     1  UNL1        0.3030
      3  O          7.2890   -2.4140   -3.2460 O.2     1  UNL1       -0.2520
      4  O          9.5510   -2.5410   -3.2440 O.3     1  UNL1       -0.4810
      5  H          9.8850   -2.4580   -4.2080 H       1  UNL1        0.2960
      6  C          7.0310   -0.0670   -2.0690 C.3     1  UNL1        0.0470
      7  C          6.4590    0.1010   -0.7340 C.2     1  UNL1       -0.0470
      8  C          5.8050    1.2610   -0.3900 C.2     1  UNL1        0.0040
      9  C          6.5790   -0.9190    0.1820 C.2     1  UNL1        0.0040
     10  C          5.2830    1.3530    0.9020 C.2     1  UNL1        0.0000
     11  C          6.0630   -0.8270    1.4590 C.2     1  UNL1        0.0000
     12  C          5.4070    0.3330    1.8110 C.2     1  UNL1        0.0000
@<TRIPOS>BOND
     1     5     4    1
     2     3     2    2
     3     4     2    1
     4     2     1    1
     5     1     6    1
     6     6     7    1
     7     7     8    2
     8     7     9    1
     9     8    10    1
    10     9    11    2
    11    10    12    2
    12    11    12    1
