@<TRIPOS>MOLECULE
/home/cewinharhar/GITHUB/reincatalyze/data/processed/docking_pred/2023-May-05-1615_maxeplen10_maxtrainstep1000_seadep16_gamma099_lrac9e-4_lrcr1e-3/e69dee760b6a4f483691253cffcee702e9155e2b_ligand_2.pdbqt
 12 12 0 0 0
SMALL
GASTEIGER

@<TRIPOS>ATOM
      1  C          5.0850   -0.1240    2.0370 C.3     1  UNL1        0.1270
      2  C          4.4030    1.1900    1.9720 C.2     1  UNL1        0.3030
      3  O          4.9160    2.1600    1.3610 O.2     1  UNL1       -0.2520
      4  O          3.1770    1.3850    2.5880 O.3     1  UNL1       -0.4810
      5  H          2.3320    1.0090    2.1500 H       1  UNL1        0.2960
      6  C          6.5350    0.0810    1.7190 C.3     1  UNL1        0.0470
      7  C          7.0090   -0.6990    0.5770 C.2     1  UNL1       -0.0470
      8  C          6.6330   -0.3700   -0.7040 C.2     1  UNL1        0.0040
      9  C          7.8440   -1.7700    0.7960 C.2     1  UNL1        0.0040
     10  C          7.1250   -1.1580   -1.7470 C.2     1  UNL1        0.0000
     11  C          8.3300   -2.5480   -0.2360 C.2     1  UNL1        0.0000
     12  C          7.9560   -2.2260   -1.5220 C.2     1  UNL1        0.0000
@<TRIPOS>BOND
     1    10    12    2
     2    10     8    1
     3    12    11    1
     4     8     7    2
     5    11     9    2
     6     7     9    1
     7     7     6    1
     8     3     2    2
     9     6     1    1
    10     2     1    1
    11     2     4    1
    12     5     4    1
